@<TRIPOS>MOLECULE
3R8
117   119    1
SMALL
USER_CHARGES


@<TRIPOS>ATOM
      1 CA         21.8935  -24.0025  -41.0974 C.3       0 UNK        -0.2013 
      2 C          20.4521  -24.1312  -41.5658 C.2       0 UNK         0.4866 
      3 O          19.5349  -23.7320  -40.8486 O.2       0 UNK        -0.5176 
      4 N          20.2493  -24.6902  -42.7600 N.am      1 UNK        -0.4884 
      5 CA         18.9504  -24.9230  -43.3878 C.3       1 UNK         0.0853 
      6 C6         18.4218  -26.3300  -42.9916 C.3       10 UNK        -0.0849 
      7 S7         16.6914  -26.6711  -43.4567 S.3       10 UNK        -0.2776 
      8 C8         16.4704  -28.3612  -42.7941 C.3       10 UNK         0.0316 
      9 C9         17.4243  -29.4057  -43.3769 C.ar      10 UNK        -0.0863 
     10 C10        17.9396  -30.4048  -42.5441 C.ar      10 UNK        -0.1009 
     11 C11        18.8069  -31.3852  -43.0364 C.ar      10 UNK        -0.0712 
     12 C12        19.1354  -31.3689  -44.3975 C.ar      10 UNK        -0.0894 
     13 C13        18.6600  -30.3605  -45.2393 C.ar      10 UNK        -0.0745 
     14 C14        17.7847  -29.3978  -44.7292 C.ar      10 UNK        -0.0972 
     15 C15        19.1092  -30.2925  -46.6947 C.3       10 UNK         0.0209 
     16 S16        20.9199  -30.4434  -46.9247 S.3       10 UNK        -0.2568 
     17 C17        21.6361  -29.3220  -45.6698 C.3       10 UNK        -0.0983 
     18 CA         21.8098  -27.8703  -46.1797 C.3       3 UNK         0.0876 
     19 N          20.5108  -27.2327  -46.3739 N.am      3 UNK        -0.4424 
     20 C          20.1792  -26.3821  -47.3518 C.2       2 UNK         0.4918 
     21 O          20.8784  -26.1525  -48.3387 O.2       2 UNK        -0.4875 
     22 CA         18.8418  -25.6339  -47.1691 C.3       2 UNK         0.0481 
     23 CB         17.7022  -26.3548  -47.9058 C.3       2 UNK        -0.1831 
     24 N          18.4957  -25.4858  -45.7502 N.am      2 UNK        -0.4498 
     25 C          19.1436  -24.6772  -44.9007 C.2       1 UNK         0.5027 
     26 O          19.9095  -23.7859  -45.2786 O.2       1 UNK        -0.4969 
     27 C          22.6253  -27.0320  -45.1697 C.2       3 UNK         0.5005 
     28 O          22.0867  -26.1262  -44.5256 O.2       3 UNK        -0.5279 
     29 N          23.9144  -27.3682  -45.0213 N.am      4 UNK        -0.4463 
     30 CA         24.8745  -26.6929  -44.1365 C.3       4 UNK         0.0283 
     31 CB         26.2795  -27.2577  -44.4049 C.3       4 UNK        -0.1875 
     32 C          24.5522  -26.7629  -42.6285 C.2       4 UNK         0.4949 
     33 O          25.1245  -25.9877  -41.8620 O.2       4 UNK        -0.5039 
     34 N          23.6566  -27.6697  -42.2250 N.am      5 UNK        -0.4663 
     35 CA         23.1494  -27.8183  -40.8655 C.3       5 UNK         0.0242 
     36 CB         23.9832  -28.8735  -40.1209 C.3       5 UNK        -0.1982 
     37 C          21.6741  -28.2270  -40.9389 C.2       5 UNK         0.5017 
     38 O          21.2494  -28.7891  -41.9501 O.2       5 UNK        -0.5012 
     39 N          20.9321  -27.9527  -39.8591 N.am      6 UNK        -0.4439 
     40 CA         19.4963  -28.2296  -39.7408 C.3       6 UNK         0.0297 
     41 CB         18.8298  -27.0664  -38.9855 C.3       6 UNK        -0.2006 
     42 C          19.1771  -29.5714  -39.0566 C.2       6 UNK         0.4892 
     43 O          17.9979  -29.9002  -38.9223 O.2       6 UNK        -0.5089 
     44 N          20.2034  -30.3180  -38.6316 N.am      7 UNK        -0.4243 
     45 CA         20.0664  -31.6206  -37.9802 C.3       7 UNK         0.0196 
     46 CB         19.9547  -31.4555  -36.4533 C.3       7 UNK        -0.2007 
     47 C          21.2329  -32.5268  -38.3756 C.2       7 UNK         0.5020 
     48 O          21.0095  -33.5817  -38.9671 O.2       7 UNK        -0.5147 
     49 N          22.4658  -32.0822  -38.0968 N.am      8 UNK        -0.4734 
     50 CA         23.7115  -32.7929  -38.4162 C.3       8 UNK         0.0238 
     51 CB         24.8022  -32.3449  -37.4242 C.3       8 UNK        -0.1912 
     52 C          24.1452  -32.6165  -39.8879 C.2       8 UNK         0.5038 
     53 O          25.3247  -32.3800  -40.1560 O.2       8 UNK        -0.5046 
     54 N          23.1818  -32.6949  -40.8122 N.am      9 UNK        -0.4200 
     55 CA         23.3805  -32.5880  -42.2617 C.3       9 UNK         0.0839 
     56 C          24.1249  -33.8088  -42.8733 C.2       9 UNK         0.5513 
     57 N          24.7295  -33.6389  -44.0417 N.am      9 UNK        -0.7519 
     58 O          24.1446  -34.9062  -42.3185 O.2       9 UNK        -0.4960 
     59 C59        22.0488  -32.2745  -42.9934 C.3       10 UNK        -0.0876 
     60 S60        20.7119  -33.4884  -42.6920 S.3       10 UNK        -0.2414 
     61 C61        19.3671  -32.4222  -42.0570 C.3       10 UNK         0.0169 
     62 H62        22.5926  -24.4358  -41.8128 H         1 UNK         0.0903 
     63 H63        22.1524  -22.9527  -40.9633 H         1 UNK         0.0903 
     64 H64        22.0254  -24.5111  -40.1431 H         1 UNK         0.0903 
     65 H65        21.0384  -24.9819  -43.3357 H         1 UNK         0.3096 
     66 H66        18.2404  -24.1675  -43.0436 H         1 UNK         0.1121 
     67 H67        19.0774  -27.1119  -43.3801 H         1 UNK         0.0849 
     68 H68        18.4671  -26.4216  -41.9071 H         1 UNK         0.0849 
     69 H69        16.5729  -28.3177  -41.7083 H         1 UNK         0.0865 
     70 H70        15.4467  -28.6814  -42.9917 H         1 UNK         0.0865 
     71 H71        17.6644  -30.4210  -41.4991 H         1 UNK         0.1346 
     72 H72        19.7947  -32.1155  -44.8139 H         1 UNK         0.1412 
     73 H73        17.3895  -28.6352  -45.3844 H         1 UNK         0.1426 
     74 H74        18.7843  -29.3599  -47.1552 H         1 UNK         0.0716 
     75 H75        18.6190  -31.0925  -47.2505 H         1 UNK         0.0716 
     76 H76        21.0502  -29.3428  -44.7499 H         1 UNK         0.0695 
     77 H77        22.6024  -29.7536  -45.4042 H         1 UNK         0.0695 
     78 H78        22.3602  -27.8842  -47.1231 H         1 UNK         0.0983 
     79 H79        19.8874  -27.3021  -45.5861 H         1 UNK         0.3095 
     80 H80        18.9528  -24.6397  -47.6072 H         1 UNK         0.0454 
     81 H81        17.9389  -26.4771  -48.9637 H         1 UNK         0.0851 
     82 H82        17.5130  -27.3471  -47.4979 H         1 UNK         0.0851 
     83 H83        16.7734  -25.7873  -47.8475 H         1 UNK         0.0851 
     84 H84        17.8217  -26.1337  -45.3610 H         1 UNK         0.2976 
     85 H85        24.2826  -28.1275  -45.5770 H         1 UNK         0.3116 
     86 H86        24.8769  -25.6352  -44.4080 H         1 UNK         0.0646 
     87 H87        27.0284  -26.7514  -43.7939 H         1 UNK         0.0847 
     88 H88        26.5725  -27.1218  -45.4461 H         1 UNK         0.0847 
     89 H89        26.3377  -28.3219  -44.1730 H         1 UNK         0.0847 
     90 H90        23.1616  -28.2175  -42.9167 H         1 UNK         0.3040 
     91 H91        23.2147  -26.8621  -40.3415 H         1 UNK         0.1015 
     92 H92        25.0265  -28.5676  -40.0411 H         1 UNK         0.0786 
     93 H93        23.9589  -29.8309  -40.6397 H         1 UNK         0.0786 
     94 H94        23.6155  -29.0343  -39.1072 H         1 UNK         0.0786 
     95 H95        21.3666  -27.5005  -39.0664 H         1 UNK         0.3172 
     96 H96        19.0555  -28.2827  -40.7371 H         1 UNK         0.0595 
     97 H97        19.0184  -26.1117  -39.4759 H         1 UNK         0.0839 
     98 H98        19.1885  -26.9922  -37.9583 H         1 UNK         0.0839 
     99 H99        17.7472  -27.1949  -38.9437 H         1 UNK         0.0839 
    100 H100       21.1402  -30.0023  -38.8330 H         1 UNK         0.2998 
    101 H101       19.1567  -32.1098  -38.3369 H         1 UNK         0.0822 
    102 H102       19.0526  -30.9059  -36.1834 H         1 UNK         0.0787 
    103 H103       19.9015  -32.4260  -35.9580 H         1 UNK         0.0787 
    104 H104       20.8070  -30.9192  -36.0350 H         1 UNK         0.0787 
    105 H105       22.5677  -31.2124  -37.5949 H         1 UNK         0.3055 
    106 H106       23.5513  -33.8636  -38.2682 H         1 UNK         0.1106 
    107 H107       25.0419  -31.2870  -37.5387 H         1 UNK         0.0828 
    108 H108       24.4939  -32.5111  -36.3919 H         1 UNK         0.0828 
    109 H109       25.7251  -32.9064  -37.5754 H         1 UNK         0.0828 
    110 H110       22.2548  -32.9694  -40.5089 H         1 UNK         0.2931 
    111 H111       24.0325  -31.7258  -42.4175 H         1 UNK         0.0412 
    112 H112       25.2105  -34.4199  -44.4607 H         1 UNK         0.3472 
    113 H113       24.7235  -32.7468  -44.5108 H         1 UNK         0.3472 
    114 H114       22.2100  -32.1996  -44.0702 H         1 UNK         0.0970 
    115 H115       21.7040  -31.2856  -42.6895 H         1 UNK         0.0970 
    116 H116       19.7330  -31.9100  -41.1663 H         1 UNK         0.0612 
    117 H117       18.5496  -33.0655  -41.7297 H         1 UNK         0.0612 
@<TRIPOS>BOND
     1    1    2 1    
     2    1   62 1    
     3    1   63 1    
     4    1   64 1    
     5    2    3 2    
     6    2    4 am   BACKBONE|DICT|INTERRES
     7    4    5 1    
     8    4   65 1    
     9    5    6 1    
    10    5   25 1    
    11    5   66 1    
    12    6    7 1    
    13    6   67 1    
    14    6   68 1    
    15    7    8 1    
    16    8    9 1    
    17    8   69 1    
    18    8   70 1    
    19    9   10 ar   
    20    9   14 ar   
    21   10   11 ar   
    22   10   71 1    
    23   11   12 ar   
    24   11   61 1    
    25   12   13 ar   
    26   12   72 1    
    27   13   14 ar   
    28   13   15 1    
    29   14   73 1    
    30   15   16 1    
    31   15   74 1    
    32   15   75 1    
    33   16   17 1    
    34   17   18 1    
    35   17   76 1    
    36   17   77 1    
    37   18   19 1    
    38   18   27 1    
    39   18   78 1    
    40   19   20 am   BACKBONE|DICT|INTERRES
    41   19   79 1    
    42   20   21 2    
    43   20   22 1    
    44   22   23 1    
    45   22   24 1    
    46   22   80 1    
    47   23   81 1    
    48   23   82 1    
    49   23   83 1    
    50   24   25 am   BACKBONE|DICT|INTERRES
    51   24   84 1    
    52   25   26 2    
    53   27   28 2    
    54   27   29 am   BACKBONE|DICT|INTERRES
    55   29   30 1    
    56   29   85 1    
    57   30   31 1    
    58   30   32 1    
    59   30   86 1    
    60   31   87 1    
    61   31   88 1    
    62   31   89 1    
    63   32   33 2    
    64   32   34 am   BACKBONE|DICT|INTERRES
    65   34   35 1    
    66   34   90 1    
    67   35   36 1    
    68   35   37 1    
    69   35   91 1    
    70   36   92 1    
    71   36   93 1    
    72   36   94 1    
    73   37   38 2    
    74   37   39 am   BACKBONE|DICT|INTERRES
    75   39   40 1    
    76   39   95 1    
    77   40   41 1    
    78   40   42 1    
    79   40   96 1    
    80   41   97 1    
    81   41   98 1    
    82   41   99 1    
    83   42   43 2    
    84   42   44 am   BACKBONE|DICT|INTERRES
    85   44   45 1    
    86   44  100 1    
    87   45   46 1    
    88   45   47 1    
    89   45  101 1    
    90   46  102 1    
    91   46  103 1    
    92   46  104 1    
    93   47   48 2    
    94   47   49 am   BACKBONE|DICT|INTERRES
    95   49   50 1    
    96   49  105 1    
    97   50   51 1    
    98   50   52 1    
    99   50  106 1    
   100   51  107 1    
   101   51  108 1    
   102   51  109 1    
   103   52   53 2    
   104   52   54 am   BACKBONE|DICT|INTERRES
   105   54   55 1    
   106   54  110 1    
   107   55   56 1    
   108   55   59 1    
   109   55  111 1    
   110   56   57 am   BACKBONE|DICT|INTERRES
   111   56   58 2    
   112   57  112 1    
   113   57  113 1    
   114   59   60 1    
   115   59  114 1    
   116   59  115 1    
   117   60   61 1    
   118   61  116 1    
   119   61  117 1    
@<TRIPOS>SUBSTRUCTURE
     1 UNK         1 GROUP             0       ****    0 ROOT    
