@<TRIPOS>MOLECULE
3R8
117   119    1
SMALL
USER_CHARGES


@<TRIPOS>ATOM
      1 CA         18.8441  -26.3472  -48.7563 C.3       0 UNK        -0.2013 
      2 C          18.8388  -26.8034  -47.3055 C.2       0 UNK         0.4866 
      3 O          19.8503  -27.3072  -46.8166 O.2       0 UNK        -0.5176 
      4 N          17.7151  -26.6146  -46.6026 N.am      1 UNK        -0.4884 
      5 CA         17.4859  -27.0301  -45.2100 C.3       1 UNK         0.0853 
      6 C6         15.9730  -27.2475  -44.9235 C.3       10 UNK        -0.0849 
      7 S7         15.2138  -28.4867  -46.0374 S.3       10 UNK        -0.2776 
      8 C8         15.1949  -29.9945  -45.0083 C.3       10 UNK         0.0316 
      9 C9         16.5866  -30.3414  -44.5022 C.ar      10 UNK        -0.0863 
     10 C10        17.5442  -30.8725  -45.3711 C.ar      10 UNK        -0.1009 
     11 C11        18.8524  -31.1016  -44.9342 C.ar      10 UNK        -0.0712 
     12 C12        19.1937  -30.7779  -43.6160 C.ar      10 UNK        -0.0894 
     13 C13        18.2422  -30.2704  -42.7275 C.ar      10 UNK        -0.0745 
     14 C14        16.9318  -30.0774  -43.1747 C.ar      10 UNK        -0.0972 
     15 C15        18.6431  -29.9270  -41.2960 C.3       10 UNK         0.0209 
     16 S16        18.0177  -28.2924  -40.7852 S.3       10 UNK        -0.2568 
     17 C17        19.3511  -27.6755  -39.7048 C.3       10 UNK        -0.0983 
     18 CA         20.5508  -27.0718  -40.4822 C.3       3 UNK         0.0876 
     19 N          20.1238  -26.2007  -41.5831 N.am      3 UNK        -0.4424 
     20 C          20.9352  -25.6378  -42.4843 C.2       2 UNK         0.4918 
     21 O          22.1604  -25.7595  -42.4656 O.2       2 UNK        -0.4875 
     22 CA         20.2549  -24.8449  -43.6129 C.3       2 UNK         0.0481 
     23 CB         21.2717  -24.1333  -44.5247 C.3       2 UNK        -0.1831 
     24 N          19.4270  -25.7299  -44.4328 N.am      2 UNK        -0.4498 
     25 C          18.1524  -26.0660  -44.1971 C.2       1 UNK         0.5027 
     26 O          17.5148  -25.6331  -43.2352 O.2       1 UNK        -0.4969 
     27 C          21.5093  -26.3444  -39.5145 C.2       3 UNK         0.5005 
     28 O          21.3753  -25.1343  -39.3147 O.2       3 UNK        -0.5279 
     29 N          22.4663  -27.0910  -38.9483 N.am      4 UNK        -0.4463 
     30 CA         23.5612  -26.6634  -38.0629 C.3       4 UNK         0.0283 
     31 CB         23.0594  -25.8907  -36.8264 C.3       4 UNK        -0.1875 
     32 C          24.6938  -25.9090  -38.7846 C.2       4 UNK         0.4949 
     33 O          25.8514  -26.0757  -38.3990 O.2       4 UNK        -0.5039 
     34 N          24.3707  -25.1316  -39.8280 N.am      5 UNK        -0.4663 
     35 CA         25.3443  -24.5969  -40.7840 C.3       5 UNK         0.0242 
     36 CB         24.7253  -23.4302  -41.5723 C.3       5 UNK        -0.1982 
     37 C          25.8406  -25.7149  -41.7167 C.2       5 UNK         0.5017 
     38 O          27.0491  -25.9214  -41.8352 O.2       5 UNK        -0.5012 
     39 N          24.8889  -26.4432  -42.3118 N.am      6 UNK        -0.4439 
     40 CA         25.0903  -27.7215  -42.9888 C.3       6 UNK         0.0297 
     41 CB         24.1503  -27.7826  -44.2078 C.3       6 UNK        -0.2006 
     42 C          24.7997  -28.8783  -42.0140 C.2       6 UNK         0.4892 
     43 O          24.3888  -28.6504  -40.8720 O.2       6 UNK        -0.5089 
     44 N          25.0061  -30.1110  -42.4944 N.am      7 UNK        -0.4243 
     45 CA         24.6821  -31.3561  -41.7905 C.3       7 UNK         0.0196 
     46 CB         25.2219  -32.5378  -42.6155 C.3       7 UNK        -0.2007 
     47 C          23.1712  -31.5254  -41.5354 C.2       7 UNK         0.5020 
     48 O          22.3552  -30.8305  -42.1407 O.2       7 UNK        -0.5147 
     49 N          22.8225  -32.4740  -40.6567 N.am      8 UNK        -0.4734 
     50 CA         21.4347  -32.8122  -40.3149 C.3       8 UNK         0.0238 
     51 CB         21.4221  -33.6221  -39.0079 C.3       8 UNK        -0.1912 
     52 C          20.6809  -33.5712  -41.4249 C.2       8 UNK         0.5038 
     53 O          19.4503  -33.5806  -41.4047 O.2       8 UNK        -0.5046 
     54 N          21.4240  -34.1989  -42.3484 N.am      9 UNK        -0.4200 
     55 CA         20.9262  -34.9781  -43.4989 C.3       9 UNK         0.0839 
     56 C          20.1622  -36.2849  -43.1218 C.2       9 UNK         0.5513 
     57 N          20.3081  -36.8088  -41.9104 N.am      9 UNK        -0.7519 
     58 O          19.4533  -36.8565  -43.9467 O.2       9 UNK        -0.4960 
     59 C59        20.1580  -34.1124  -44.5406 C.3       10 UNK        -0.0876 
     60 S60        21.1628  -32.7257  -45.1739 S.3       10 UNK        -0.2414 
     61 C61        19.8838  -31.6537  -45.9180 C.3       10 UNK         0.0169 
     62 H62        17.8864  -25.9202  -49.0534 H         1 UNK         0.0903 
     63 H63        19.6150  -25.5925  -48.9094 H         1 UNK         0.0903 
     64 H64        19.0573  -27.1905  -49.4126 H         1 UNK         0.0903 
     65 H65        16.9214  -26.1818  -47.0538 H         1 UNK         0.3096 
     66 H66        17.9866  -27.9892  -45.0632 H         1 UNK         0.1121 
     67 H67        15.4287  -26.3087  -45.0410 H         1 UNK         0.0849 
     68 H68        15.8117  -27.5546  -43.8888 H         1 UNK         0.0849 
     69 H69        14.5016  -29.8549  -44.1773 H         1 UNK         0.0865 
     70 H70        14.8025  -30.8250  -45.5971 H         1 UNK         0.0865 
     71 H71        17.2754  -31.0769  -46.3987 H         1 UNK         0.1346 
     72 H72        20.2066  -30.9280  -43.2781 H         1 UNK         0.1412 
     73 H73        16.1901  -29.6755  -42.4980 H         1 UNK         0.1426 
     74 H74        19.7296  -29.9416  -41.2008 H         1 UNK         0.0716 
     75 H75        18.2592  -30.6912  -40.6190 H         1 UNK         0.0716 
     76 H76        19.6824  -28.4845  -39.0509 H         1 UNK         0.0695 
     77 H77        18.9038  -26.9226  -39.0524 H         1 UNK         0.0695 
     78 H78        21.1054  -27.8923  -40.9442 H         1 UNK         0.0983 
     79 H79        19.1253  -26.0694  -41.6850 H         1 UNK         0.3095 
     80 H80        19.6277  -24.0799  -43.1506 H         1 UNK         0.0454 
     81 H81        21.9341  -24.8424  -45.0234 H         1 UNK         0.0851 
     82 H82        21.8986  -23.4494  -43.9511 H         1 UNK         0.0851 
     83 H83        20.7711  -23.5449  -45.2935 H         1 UNK         0.0851 
     84 H84        19.8767  -26.1731  -45.2294 H         1 UNK         0.2976 
     85 H85        22.5416  -28.0550  -39.2480 H         1 UNK         0.3116 
     86 H86        24.0030  -27.5928  -37.6997 H         1 UNK         0.0646 
     87 H87        22.6702  -24.9060  -37.0855 H         1 UNK         0.0847 
     88 H88        23.8716  -25.7344  -36.1154 H         1 UNK         0.0847 
     89 H89        22.2739  -26.4382  -36.3059 H         1 UNK         0.0847 
     90 H90        23.3877  -25.0244  -40.0501 H         1 UNK         0.3040 
     91 H91        26.2053  -24.2131  -40.2319 H         1 UNK         0.1015 
     92 H92        23.8440  -23.7354  -42.1360 H         1 UNK         0.0786 
     93 H93        25.4419  -23.0209  -42.2856 H         1 UNK         0.0786 
     94 H94        24.4304  -22.6181  -40.9076 H         1 UNK         0.0786 
     95 H95        23.9153  -26.1857  -42.1612 H         1 UNK         0.3172 
     96 H96        26.1232  -27.8055  -43.3323 H         1 UNK         0.0595 
     97 H97        23.1028  -27.8392  -43.9078 H         1 UNK         0.0839 
     98 H98        24.3562  -28.6568  -44.8259 H         1 UNK         0.0839 
     99 H99        24.2668  -26.9053  -44.8444 H         1 UNK         0.0839 
    100 H100       25.3176  -30.2071  -43.4494 H         1 UNK         0.2998 
    101 H101       25.1893  -31.3347  -40.8236 H         1 UNK         0.0822 
    102 H102       26.2930  -32.4411  -42.7944 H         1 UNK         0.0787 
    103 H103       25.0706  -33.4862  -42.0987 H         1 UNK         0.0787 
    104 H104       24.7251  -32.6117  -43.5843 H         1 UNK         0.0787 
    105 H105       23.5479  -33.0033  -40.1931 H         1 UNK         0.3055 
    106 H106       20.8906  -31.8813  -40.1415 H         1 UNK         0.1106 
    107 H107       20.4014  -33.8680  -38.7105 H         1 UNK         0.0828 
    108 H108       21.9672  -34.5615  -39.1071 H         1 UNK         0.0828 
    109 H109       21.8676  -33.0592  -38.1875 H         1 UNK         0.0828 
    110 H110       22.4270  -34.1344  -42.2674 H         1 UNK         0.2931 
    111 H111       21.8267  -35.3376  -43.9982 H         1 UNK         0.0412 
    112 H112       19.8201  -37.6599  -41.6783 H         1 UNK         0.3472 
    113 H113       20.8950  -36.3599  -41.2261 H         1 UNK         0.3472 
    114 H114       19.8598  -34.7153  -45.4000 H         1 UNK         0.0970 
    115 H115       19.2341  -33.7303  -44.1042 H         1 UNK         0.0970 
    116 H116       20.3790  -30.8110  -46.4022 H         1 UNK         0.0612 
    117 H117       19.3861  -32.2175  -46.7085 H         1 UNK         0.0612 
@<TRIPOS>BOND
     1    1    2 1    
     2    1   62 1    
     3    1   63 1    
     4    1   64 1    
     5    2    3 2    
     6    2    4 am   BACKBONE|DICT|INTERRES
     7    4    5 1    
     8    4   65 1    
     9    5    6 1    
    10    5   25 1    
    11    5   66 1    
    12    6    7 1    
    13    6   67 1    
    14    6   68 1    
    15    7    8 1    
    16    8    9 1    
    17    8   69 1    
    18    8   70 1    
    19    9   10 ar   
    20    9   14 ar   
    21   10   11 ar   
    22   10   71 1    
    23   11   12 ar   
    24   11   61 1    
    25   12   13 ar   
    26   12   72 1    
    27   13   14 ar   
    28   13   15 1    
    29   14   73 1    
    30   15   16 1    
    31   15   74 1    
    32   15   75 1    
    33   16   17 1    
    34   17   18 1    
    35   17   76 1    
    36   17   77 1    
    37   18   19 1    
    38   18   27 1    
    39   18   78 1    
    40   19   20 am   BACKBONE|DICT|INTERRES
    41   19   79 1    
    42   20   21 2    
    43   20   22 1    
    44   22   23 1    
    45   22   24 1    
    46   22   80 1    
    47   23   81 1    
    48   23   82 1    
    49   23   83 1    
    50   24   25 am   BACKBONE|DICT|INTERRES
    51   24   84 1    
    52   25   26 2    
    53   27   28 2    
    54   27   29 am   BACKBONE|DICT|INTERRES
    55   29   30 1    
    56   29   85 1    
    57   30   31 1    
    58   30   32 1    
    59   30   86 1    
    60   31   87 1    
    61   31   88 1    
    62   31   89 1    
    63   32   33 2    
    64   32   34 am   BACKBONE|DICT|INTERRES
    65   34   35 1    
    66   34   90 1    
    67   35   36 1    
    68   35   37 1    
    69   35   91 1    
    70   36   92 1    
    71   36   93 1    
    72   36   94 1    
    73   37   38 2    
    74   37   39 am   BACKBONE|DICT|INTERRES
    75   39   40 1    
    76   39   95 1    
    77   40   41 1    
    78   40   42 1    
    79   40   96 1    
    80   41   97 1    
    81   41   98 1    
    82   41   99 1    
    83   42   43 2    
    84   42   44 am   BACKBONE|DICT|INTERRES
    85   44   45 1    
    86   44  100 1    
    87   45   46 1    
    88   45   47 1    
    89   45  101 1    
    90   46  102 1    
    91   46  103 1    
    92   46  104 1    
    93   47   48 2    
    94   47   49 am   BACKBONE|DICT|INTERRES
    95   49   50 1    
    96   49  105 1    
    97   50   51 1    
    98   50   52 1    
    99   50  106 1    
   100   51  107 1    
   101   51  108 1    
   102   51  109 1    
   103   52   53 2    
   104   52   54 am   BACKBONE|DICT|INTERRES
   105   54   55 1    
   106   54  110 1    
   107   55   56 1    
   108   55   59 1    
   109   55  111 1    
   110   56   57 am   BACKBONE|DICT|INTERRES
   111   56   58 2    
   112   57  112 1    
   113   57  113 1    
   114   59   60 1    
   115   59  114 1    
   116   59  115 1    
   117   60   61 1    
   118   61  116 1    
   119   61  117 1    
@<TRIPOS>SUBSTRUCTURE
     1 UNK         1 GROUP             0       ****    0 ROOT    
