@<TRIPOS>MOLECULE
3R8
117   119    1
SMALL
USER_CHARGES


@<TRIPOS>ATOM
      1 CA         15.6032  -24.1499  -44.8239 C.3       0 UNK        -0.2013 
      2 C          16.3987  -24.5753  -46.0486 C.2       0 UNK         0.4866 
      3 O          16.9668  -23.7239  -46.7319 O.2       0 UNK        -0.5176 
      4 N          16.4313  -25.8836  -46.3359 N.am      1 UNK        -0.4884 
      5 CA         17.0860  -26.4853  -47.5084 C.3       1 UNK         0.0853 
      6 C6         16.7127  -27.9828  -47.6903 C.3       10 UNK        -0.0849 
      7 S7         14.9316  -28.3114  -47.4487 S.3       10 UNK        -0.2776 
      8 C8         14.9490  -29.7825  -46.3673 C.3       10 UNK         0.0316 
      9 C9         15.6332  -29.5752  -45.0155 C.ar      10 UNK        -0.0863 
     10 C10        16.6344  -30.4649  -44.6069 C.ar      10 UNK        -0.1009 
     11 C11        17.1934  -30.3690  -43.3297 C.ar      10 UNK        -0.0712 
     12 C12        16.7560  -29.3649  -42.4654 C.ar      10 UNK        -0.0894 
     13 C13        15.7958  -28.4330  -42.8700 C.ar      10 UNK        -0.0745 
     14 C14        15.2249  -28.5563  -44.1437 C.ar      10 UNK        -0.0972 
     15 C15        15.3273  -27.3319  -41.9185 C.3       10 UNK         0.0209 
     16 S16        16.6448  -26.6479  -40.8439 S.3       10 UNK        -0.2568 
     17 C17        17.7216  -25.7930  -42.0418 C.3       10 UNK        -0.0983 
     18 CA         19.0837  -26.5065  -42.2707 C.3       3 UNK         0.0876 
     19 N          19.6031  -26.1683  -43.5961 N.am      3 UNK        -0.4424 
     20 C          20.4760  -26.8893  -44.3115 C.2       2 UNK         0.4918 
     21 O          21.1102  -27.8432  -43.8675 O.2       2 UNK        -0.4875 
     22 CA         20.5282  -26.5534  -45.8075 C.3       2 UNK         0.0481 
     23 CB         21.4781  -27.4734  -46.6023 C.3       2 UNK        -0.1831 
     24 N          19.1508  -26.6827  -46.2696 N.am      2 UNK        -0.4498 
     25 C          18.6168  -26.3210  -47.4386 C.2       1 UNK         0.5027 
     26 O          19.2477  -25.8626  -48.3918 O.2       1 UNK        -0.4969 
     27 C          20.1278  -26.2563  -41.1589 C.2       3 UNK         0.5005 
     28 O          20.0163  -25.2837  -40.4090 O.2       3 UNK        -0.5279 
     29 N          21.1399  -27.1284  -41.0882 N.am      4 UNK        -0.4463 
     30 CA         22.2016  -27.1202  -40.0885 C.3       4 UNK         0.0283 
     31 CB         23.4003  -26.3054  -40.6034 C.3       4 UNK        -0.1875 
     32 C          22.5947  -28.5706  -39.7967 C.2       4 UNK         0.4949 
     33 O          23.0523  -29.2689  -40.7041 O.2       4 UNK        -0.5039 
     34 N          22.4012  -29.0027  -38.5448 N.am      5 UNK        -0.4663 
     35 CA         22.7496  -30.3406  -38.0606 C.3       5 UNK         0.0242 
     36 CB         22.1649  -30.5392  -36.6534 C.3       5 UNK        -0.1982 
     37 C          24.2691  -30.5629  -38.0489 C.2       5 UNK         0.5017 
     38 O          25.0093  -29.6599  -37.6522 O.2       5 UNK        -0.5012 
     39 N          24.7005  -31.7499  -38.4953 N.am      6 UNK        -0.4439 
     40 CA         26.0791  -32.2434  -38.6330 C.3       6 UNK         0.0297 
     41 CB         26.8303  -32.2381  -37.2872 C.3       6 UNK        -0.2006 
     42 C          26.8960  -31.5418  -39.7333 C.2       6 UNK         0.4892 
     43 O          27.6501  -32.2136  -40.4375 O.2       6 UNK        -0.5089 
     44 N          26.7247  -30.2222  -39.8787 N.am      7 UNK        -0.4243 
     45 CA         27.3310  -29.3970  -40.9232 C.3       7 UNK         0.0196 
     46 CB         27.1277  -27.9146  -40.5747 C.3       7 UNK        -0.2007 
     47 C          26.7779  -29.6997  -42.3262 C.2       7 UNK         0.5020 
     48 O          27.5238  -29.5834  -43.2992 O.2       7 UNK        -0.5147 
     49 N          25.4972  -30.0817  -42.4097 N.am      8 UNK        -0.4734 
     50 CA         24.8215  -30.4348  -43.6566 C.3       8 UNK         0.0238 
     51 CB         24.1314  -29.1951  -44.2483 C.3       8 UNK        -0.1912 
     52 C          23.8381  -31.5908  -43.4433 C.2       8 UNK         0.5038 
     53 O          23.9564  -32.6105  -44.1242 O.2       8 UNK        -0.5046 
     54 N          22.8947  -31.4221  -42.5092 N.am      9 UNK        -0.4200 
     55 CA         21.8870  -32.4305  -42.1563 C.3       9 UNK         0.0839 
     56 C          22.5067  -33.5415  -41.2715 C.2       9 UNK         0.5513 
     57 N          22.3941  -34.7996  -41.6718 N.am      9 UNK        -0.7519 
     58 O          23.0473  -33.2698  -40.2013 O.2       9 UNK        -0.4960 
     59 C59        20.6584  -31.7993  -41.4544 C.3       10 UNK        -0.0876 
     60 S60        19.8171  -30.5465  -42.4764 S.3       10 UNK        -0.2414 
     61 C61        18.2364  -31.3676  -42.8490 C.3       10 UNK         0.0169 
     62 H62        16.2592  -23.6811  -44.0910 H         1 UNK         0.0903 
     63 H63        14.8406  -23.4252  -45.1079 H         1 UNK         0.0903 
     64 H64        15.1034  -24.9929  -44.3488 H         1 UNK         0.0903 
     65 H65        15.9113  -26.5339  -45.7643 H         1 UNK         0.3096 
     66 H66        16.7382  -25.9401  -48.3889 H         1 UNK         0.1121 
     67 H67        16.9887  -28.3168  -48.6922 H         1 UNK         0.0849 
     68 H68        17.2794  -28.6140  -47.0035 H         1 UNK         0.0849 
     69 H69        13.9182  -30.0905  -46.1869 H         1 UNK         0.0865 
     70 H70        15.4151  -30.6035  -46.9145 H         1 UNK         0.0865 
     71 H71        16.9536  -31.2587  -45.2686 H         1 UNK         0.1346 
     72 H72        17.1772  -29.3113  -41.4711 H         1 UNK         0.1412 
     73 H73        14.4407  -27.8769  -44.4495 H         1 UNK         0.1426 
     74 H74        14.5453  -27.7451  -41.2804 H         1 UNK         0.0716 
     75 H75        14.8673  -26.5139  -42.4736 H         1 UNK         0.0716 
     76 H76        17.8550  -24.7557  -41.7297 H         1 UNK         0.0695 
     77 H77        17.1731  -25.7413  -42.9823 H         1 UNK         0.0695 
     78 H78        18.8929  -27.5813  -42.2788 H         1 UNK         0.0983 
     79 H79        19.1848  -25.3621  -44.0360 H         1 UNK         0.3095 
     80 H80        20.8494  -25.5162  -45.9180 H         1 UNK         0.0454 
     81 H81        21.1825  -28.5204  -46.5251 H         1 UNK         0.0851 
     82 H82        22.4983  -27.3921  -46.2260 H         1 UNK         0.0851 
     83 H83        21.5051  -27.2096  -47.6590 H         1 UNK         0.0851 
     84 H84        18.5161  -27.0500  -45.5731 H         1 UNK         0.2976 
     85 H85        21.1983  -27.8632  -41.7889 H         1 UNK         0.3116 
     86 H86        21.8359  -26.6612  -39.1673 H         1 UNK         0.0646 
     87 H87        23.8161  -26.7321  -41.5175 H         1 UNK         0.0847 
     88 H88        24.1967  -26.2756  -39.8593 H         1 UNK         0.0847 
     89 H89        23.1170  -25.2745  -40.8152 H         1 UNK         0.0847 
     90 H90        22.0468  -28.3547  -37.8562 H         1 UNK         0.3040 
     91 H91        22.2943  -31.0738  -38.7265 H         1 UNK         0.1015 
     92 H92        21.0801  -30.4303  -36.6544 H         1 UNK         0.0786 
     93 H93        22.5752  -29.8225  -35.9406 H         1 UNK         0.0786 
     94 H94        22.3885  -31.5381  -36.2758 H         1 UNK         0.0786 
     95 H95        24.0042  -32.3752  -38.9010 H         1 UNK         0.3172 
     96 H96        25.9772  -33.2848  -38.9429 H         1 UNK         0.0595 
     97 H97        27.0080  -31.2274  -36.9191 H         1 UNK         0.0839 
     98 H98        27.8042  -32.7191  -37.3865 H         1 UNK         0.0839 
     99 H99        26.2771  -32.7822  -36.5218 H         1 UNK         0.0839 
    100 H100       26.1120  -29.7595  -39.2131 H         1 UNK         0.2998 
    101 H101       28.4032  -29.6043  -40.9375 H         1 UNK         0.0822 
    102 H102       27.5804  -27.6660  -39.6146 H         1 UNK         0.0787 
    103 H103       27.5849  -27.2694  -41.3263 H         1 UNK         0.0787 
    104 H104       26.0696  -27.6588  -40.5238 H         1 UNK         0.0787 
    105 H105       24.9413  -30.1294  -41.5642 H         1 UNK         0.3055 
    106 H106       25.5571  -30.7901  -44.3824 H         1 UNK         0.1106 
    107 H107       23.5024  -29.4592  -45.0993 H         1 UNK         0.0828 
    108 H108       23.4987  -28.7041  -43.5094 H         1 UNK         0.0828 
    109 H109       24.8619  -28.4645  -44.5954 H         1 UNK         0.0828 
    110 H110       22.8748  -30.5628  -41.9648 H         1 UNK         0.2931 
    111 H111       21.5301  -32.8845  -43.0835 H         1 UNK         0.0412 
    112 H112       21.9514  -35.0294  -42.5483 H         1 UNK         0.3472 
    113 H113       22.7777  -35.5331  -41.0964 H         1 UNK         0.3472 
    114 H114       19.9452  -32.5757  -41.1717 H         1 UNK         0.0970 
    115 H115       20.9535  -31.3149  -40.5245 H         1 UNK         0.0970 
    116 H116       17.8551  -31.8588  -41.9527 H         1 UNK         0.0612 
    117 H117       18.4066  -32.1500  -43.5900 H         1 UNK         0.0612 
@<TRIPOS>BOND
     1    1    2 1    
     2    1   62 1    
     3    1   63 1    
     4    1   64 1    
     5    2    3 2    
     6    2    4 am   BACKBONE|DICT|INTERRES
     7    4    5 1    
     8    4   65 1    
     9    5    6 1    
    10    5   25 1    
    11    5   66 1    
    12    6    7 1    
    13    6   67 1    
    14    6   68 1    
    15    7    8 1    
    16    8    9 1    
    17    8   69 1    
    18    8   70 1    
    19    9   10 ar   
    20    9   14 ar   
    21   10   11 ar   
    22   10   71 1    
    23   11   12 ar   
    24   11   61 1    
    25   12   13 ar   
    26   12   72 1    
    27   13   14 ar   
    28   13   15 1    
    29   14   73 1    
    30   15   16 1    
    31   15   74 1    
    32   15   75 1    
    33   16   17 1    
    34   17   18 1    
    35   17   76 1    
    36   17   77 1    
    37   18   19 1    
    38   18   27 1    
    39   18   78 1    
    40   19   20 am   BACKBONE|DICT|INTERRES
    41   19   79 1    
    42   20   21 2    
    43   20   22 1    
    44   22   23 1    
    45   22   24 1    
    46   22   80 1    
    47   23   81 1    
    48   23   82 1    
    49   23   83 1    
    50   24   25 am   BACKBONE|DICT|INTERRES
    51   24   84 1    
    52   25   26 2    
    53   27   28 2    
    54   27   29 am   BACKBONE|DICT|INTERRES
    55   29   30 1    
    56   29   85 1    
    57   30   31 1    
    58   30   32 1    
    59   30   86 1    
    60   31   87 1    
    61   31   88 1    
    62   31   89 1    
    63   32   33 2    
    64   32   34 am   BACKBONE|DICT|INTERRES
    65   34   35 1    
    66   34   90 1    
    67   35   36 1    
    68   35   37 1    
    69   35   91 1    
    70   36   92 1    
    71   36   93 1    
    72   36   94 1    
    73   37   38 2    
    74   37   39 am   BACKBONE|DICT|INTERRES
    75   39   40 1    
    76   39   95 1    
    77   40   41 1    
    78   40   42 1    
    79   40   96 1    
    80   41   97 1    
    81   41   98 1    
    82   41   99 1    
    83   42   43 2    
    84   42   44 am   BACKBONE|DICT|INTERRES
    85   44   45 1    
    86   44  100 1    
    87   45   46 1    
    88   45   47 1    
    89   45  101 1    
    90   46  102 1    
    91   46  103 1    
    92   46  104 1    
    93   47   48 2    
    94   47   49 am   BACKBONE|DICT|INTERRES
    95   49   50 1    
    96   49  105 1    
    97   50   51 1    
    98   50   52 1    
    99   50  106 1    
   100   51  107 1    
   101   51  108 1    
   102   51  109 1    
   103   52   53 2    
   104   52   54 am   BACKBONE|DICT|INTERRES
   105   54   55 1    
   106   54  110 1    
   107   55   56 1    
   108   55   59 1    
   109   55  111 1    
   110   56   57 am   BACKBONE|DICT|INTERRES
   111   56   58 2    
   112   57  112 1    
   113   57  113 1    
   114   59   60 1    
   115   59  114 1    
   116   59  115 1    
   117   60   61 1    
   118   61  116 1    
   119   61  117 1    
@<TRIPOS>SUBSTRUCTURE
     1 UNK         1 GROUP             0       ****    0 ROOT    
