@<TRIPOS>MOLECULE
3R8
117   119    1
SMALL
USER_CHARGES


@<TRIPOS>ATOM
      1 CA         14.1498  -25.3544  -44.6913 C.3       0 UNK        -0.2013 
      2 C          14.9299  -26.0071  -45.8226 C.2       0 UNK         0.4866 
      3 O          14.3281  -26.5441  -46.7528 O.2       0 UNK        -0.5176 
      4 N          16.2631  -25.9643  -45.7499 N.am      1 UNK        -0.4884 
      5 CA         17.1942  -26.4969  -46.7439 C.3       1 UNK         0.0853 
      6 C6         17.2561  -28.0560  -46.7486 C.3       10 UNK        -0.0849 
      7 S7         18.2168  -28.8081  -45.3899 S.3       10 UNK        -0.2776 
      8 C8         16.9494  -29.0605  -44.1110 C.3       10 UNK         0.0316 
      9 C9         17.6089  -29.1705  -42.7462 C.ar      10 UNK        -0.0863 
     10 C10        17.7805  -30.4119  -42.1274 C.ar      10 UNK        -0.1009 
     11 C11        18.4258  -30.5052  -40.8889 C.ar      10 UNK        -0.0712 
     12 C12        18.9012  -29.3404  -40.2739 C.ar      10 UNK        -0.0894 
     13 C13        18.7343  -28.0932  -40.8849 C.ar      10 UNK        -0.0745 
     14 C14        18.0710  -28.0158  -42.1117 C.ar      10 UNK        -0.0972 
     15 C15        19.2518  -26.8301  -40.2109 C.3       10 UNK         0.0209 
     16 S16        20.9511  -26.4208  -40.7256 S.3       10 UNK        -0.2568 
     17 C17        20.6945  -25.5592  -42.3138 C.3       10 UNK        -0.0983 
     18 CA         21.7110  -25.9919  -43.4012 C.3       3 UNK         0.0876 
     19 N          21.1824  -25.7311  -44.7393 N.am      3 UNK        -0.4424 
     20 C          21.6716  -26.2226  -45.8819 C.2       2 UNK         0.4918 
     21 O          22.6112  -27.0179  -45.9367 O.2       2 UNK        -0.4875 
     22 CA         20.9703  -25.7546  -47.1762 C.3       2 UNK         0.0481 
     23 CB         21.7332  -26.1813  -48.4441 C.3       2 UNK        -0.1831 
     24 N          19.5895  -26.2415  -47.2685 N.am      2 UNK        -0.4498 
     25 C          18.5522  -25.7861  -46.5521 C.2       1 UNK         0.5027 
     26 O          18.6439  -24.8493  -45.7498 O.2       1 UNK        -0.4969 
     27 C          23.0652  -25.2816  -43.1997 C.2       3 UNK         0.5005 
     28 O          23.1997  -24.1084  -43.5589 O.2       3 UNK        -0.5279 
     29 N          24.0159  -25.9839  -42.5786 N.am      4 UNK        -0.4463 
     30 CA         25.2850  -25.4546  -42.0862 C.3       4 UNK         0.0283 
     31 CB         26.4180  -25.8507  -43.0508 C.3       4 UNK        -0.1875 
     32 C          25.4721  -26.0103  -40.6692 C.2       4 UNK         0.4949 
     33 O          26.3296  -26.8648  -40.4483 O.2       4 UNK        -0.5039 
     34 N          24.5687  -25.6011  -39.7646 N.am      5 UNK        -0.4663 
     35 CA         24.3126  -26.1169  -38.4049 C.3       5 UNK         0.0242 
     36 CB         25.5775  -26.0985  -37.5236 C.3       5 UNK        -0.1982 
     37 C          23.6239  -27.4979  -38.3806 C.2       5 UNK         0.5017 
     38 O          22.8844  -27.7878  -37.4398 O.2       5 UNK        -0.5012 
     39 N          23.8373  -28.2938  -39.4294 N.am      6 UNK        -0.4439 
     40 CA         23.1187  -29.5058  -39.7942 C.3       6 UNK         0.0297 
     41 CB         23.8274  -30.7275  -39.1813 C.3       6 UNK        -0.2006 
     42 C          23.0841  -29.5741  -41.3297 C.2       6 UNK         0.4892 
     43 O          23.7137  -28.7456  -41.9964 O.2       6 UNK        -0.5089 
     44 N          22.3625  -30.5622  -41.8613 N.am      7 UNK        -0.4243 
     45 CA         22.3141  -30.8910  -43.2842 C.3       7 UNK         0.0196 
     46 CB         21.0463  -30.2874  -43.9165 C.3       7 UNK        -0.2007 
     47 C          22.4262  -32.4160  -43.4057 C.2       7 UNK         0.5020 
     48 O          23.4301  -32.9745  -42.9619 O.2       7 UNK        -0.5147 
     49 N          21.3937  -33.0815  -43.9451 N.am      8 UNK        -0.4734 
     50 CA         21.2916  -34.5469  -44.0463 C.3       8 UNK         0.0238 
     51 CB         20.0221  -34.9111  -44.8330 C.3       8 UNK        -0.1912 
     52 C          21.3076  -35.2701  -42.6837 C.2       8 UNK         0.5038 
     53 O          21.7053  -36.4333  -42.6149 O.2       8 UNK        -0.5046 
     54 N          20.9022  -34.5502  -41.6321 N.am      9 UNK        -0.4200 
     55 CA         21.0538  -34.9041  -40.2152 C.3       9 UNK         0.0839 
     56 C          22.5220  -34.9363  -39.6918 C.2       9 UNK         0.5513 
     57 N          23.5145  -34.4365  -40.4194 N.am      9 UNK        -0.7519 
     58 O          22.7650  -35.4399  -38.5983 O.2       9 UNK        -0.4960 
     59 C59        20.1474  -34.0147  -39.3192 C.3       10 UNK        -0.0876 
     60 S60        20.2795  -32.2265  -39.6959 S.3       10 UNK        -0.2414 
     61 C61        18.5702  -31.8630  -40.2117 C.3       10 UNK         0.0169 
     62 H62        13.5206  -24.5549  -45.0815 H         1 UNK         0.0903 
     63 H63        13.5069  -26.0889  -44.2069 H         1 UNK         0.0903 
     64 H64        14.8084  -24.9293  -43.9340 H         1 UNK         0.0903 
     65 H65        16.7252  -25.4450  -45.0127 H         1 UNK         0.3096 
     66 H66        16.8327  -26.1748  -47.7232 H         1 UNK         0.1121 
     67 H67        16.2516  -28.4813  -46.7535 H         1 UNK         0.0849 
     68 H68        17.7044  -28.3960  -47.6833 H         1 UNK         0.0849 
     69 H69        16.2463  -28.2273  -44.1054 H         1 UNK         0.0865 
     70 H70        16.3698  -29.9553  -44.3426 H         1 UNK         0.0865 
     71 H71        17.4161  -31.3058  -42.6149 H         1 UNK         0.1346 
     72 H72        19.4005  -29.4055  -39.3168 H         1 UNK         0.1412 
     73 H73        17.9224  -27.0586  -42.5897 H         1 UNK         0.1426 
     74 H74        19.2427  -26.9635  -39.1281 H         1 UNK         0.0716 
     75 H75        18.5899  -25.9872  -40.4155 H         1 UNK         0.0716 
     76 H76        19.6831  -25.7637  -42.6586 H         1 UNK         0.0695 
     77 H77        20.7240  -24.4812  -42.1416 H         1 UNK         0.0695 
     78 H78        21.8663  -27.0703  -43.3268 H         1 UNK         0.0983 
     79 H79        20.3847  -25.1081  -44.8031 H         1 UNK         0.3095 
     80 H80        20.9516  -24.6628  -47.1575 H         1 UNK         0.0454 
     81 H81        21.7768  -27.2664  -48.5453 H         1 UNK         0.0851 
     82 H82        21.2670  -25.7783  -49.3433 H         1 UNK         0.0851 
     83 H83        22.7604  -25.8149  -48.4230 H         1 UNK         0.0851 
     84 H84        19.4429  -27.0404  -47.8684 H         1 UNK         0.2976 
     85 H85        23.8298  -26.9592  -42.3400 H         1 UNK         0.3116 
     86 H86        25.2505  -24.3656  -42.0120 H         1 UNK         0.0646 
     87 H87        26.4885  -26.9330  -43.1683 H         1 UNK         0.0847 
     88 H88        27.3828  -25.4961  -42.6863 H         1 UNK         0.0847 
     89 H89        26.2637  -25.4175  -44.0390 H         1 UNK         0.0847 
     90 H90        23.8823  -24.9318  -40.0876 H         1 UNK         0.3040 
     91 H91        23.5989  -25.4202  -37.9614 H         1 UNK         0.1015 
     92 H92        26.0509  -25.1167  -37.5274 H         1 UNK         0.0786 
     93 H93        26.3163  -26.8311  -37.8489 H         1 UNK         0.0786 
     94 H94        25.3286  -26.3348  -36.4882 H         1 UNK         0.0786 
     95 H95        24.4716  -27.9642  -40.1488 H         1 UNK         0.3172 
     96 H96        22.0906  -29.4467  -39.4307 H         1 UNK         0.0595 
     97 H97        24.8473  -30.8291  -39.5543 H         1 UNK         0.0839 
     98 H98        23.3011  -31.6530  -39.4154 H         1 UNK         0.0839 
     99 H99        23.8744  -30.6528  -38.0949 H         1 UNK         0.0839 
    100 H100       21.8848  -31.2015  -41.2397 H         1 UNK         0.2998 
    101 H101       23.1852  -30.4761  -43.7960 H         1 UNK         0.0822 
    102 H102       21.0168  -29.2064  -43.7845 H         1 UNK         0.0787 
    103 H103       21.0090  -30.4756  -44.9902 H         1 UNK         0.0787 
    104 H104       20.1376  -30.6891  -43.4717 H         1 UNK         0.0787 
    105 H105       20.6099  -32.5462  -44.2913 H         1 UNK         0.3055 
    106 H106       22.1599  -34.9020  -44.6059 H         1 UNK         0.1106 
    107 H107       19.1199  -34.5594  -44.3309 H         1 UNK         0.0828 
    108 H108       20.0387  -34.4831  -45.8355 H         1 UNK         0.0828 
    109 H109       19.9305  -35.9923  -44.9471 H         1 UNK         0.0828 
    110 H110       20.5899  -33.6069  -41.8035 H         1 UNK         0.2931 
    111 H111       20.6934  -35.9295  -40.1136 H         1 UNK         0.0412 
    112 H112       23.3514  -34.0136  -41.3274 H         1 UNK         0.3472 
    113 H113       24.4529  -34.4817  -40.0562 H         1 UNK         0.3472 
    114 H114       20.3637  -34.1669  -38.2599 H         1 UNK         0.0970 
    115 H115       19.1110  -34.3328  -39.4403 H         1 UNK         0.0970 
    116 H116       18.2311  -32.6535  -40.8831 H         1 UNK         0.0612 
    117 H117       17.9195  -31.8955  -39.3370 H         1 UNK         0.0612 
@<TRIPOS>BOND
     1    1    2 1    
     2    1   62 1    
     3    1   63 1    
     4    1   64 1    
     5    2    3 2    
     6    2    4 am   BACKBONE|DICT|INTERRES
     7    4    5 1    
     8    4   65 1    
     9    5    6 1    
    10    5   25 1    
    11    5   66 1    
    12    6    7 1    
    13    6   67 1    
    14    6   68 1    
    15    7    8 1    
    16    8    9 1    
    17    8   69 1    
    18    8   70 1    
    19    9   10 ar   
    20    9   14 ar   
    21   10   11 ar   
    22   10   71 1    
    23   11   12 ar   
    24   11   61 1    
    25   12   13 ar   
    26   12   72 1    
    27   13   14 ar   
    28   13   15 1    
    29   14   73 1    
    30   15   16 1    
    31   15   74 1    
    32   15   75 1    
    33   16   17 1    
    34   17   18 1    
    35   17   76 1    
    36   17   77 1    
    37   18   19 1    
    38   18   27 1    
    39   18   78 1    
    40   19   20 am   BACKBONE|DICT|INTERRES
    41   19   79 1    
    42   20   21 2    
    43   20   22 1    
    44   22   23 1    
    45   22   24 1    
    46   22   80 1    
    47   23   81 1    
    48   23   82 1    
    49   23   83 1    
    50   24   25 am   BACKBONE|DICT|INTERRES
    51   24   84 1    
    52   25   26 2    
    53   27   28 2    
    54   27   29 am   BACKBONE|DICT|INTERRES
    55   29   30 1    
    56   29   85 1    
    57   30   31 1    
    58   30   32 1    
    59   30   86 1    
    60   31   87 1    
    61   31   88 1    
    62   31   89 1    
    63   32   33 2    
    64   32   34 am   BACKBONE|DICT|INTERRES
    65   34   35 1    
    66   34   90 1    
    67   35   36 1    
    68   35   37 1    
    69   35   91 1    
    70   36   92 1    
    71   36   93 1    
    72   36   94 1    
    73   37   38 2    
    74   37   39 am   BACKBONE|DICT|INTERRES
    75   39   40 1    
    76   39   95 1    
    77   40   41 1    
    78   40   42 1    
    79   40   96 1    
    80   41   97 1    
    81   41   98 1    
    82   41   99 1    
    83   42   43 2    
    84   42   44 am   BACKBONE|DICT|INTERRES
    85   44   45 1    
    86   44  100 1    
    87   45   46 1    
    88   45   47 1    
    89   45  101 1    
    90   46  102 1    
    91   46  103 1    
    92   46  104 1    
    93   47   48 2    
    94   47   49 am   BACKBONE|DICT|INTERRES
    95   49   50 1    
    96   49  105 1    
    97   50   51 1    
    98   50   52 1    
    99   50  106 1    
   100   51  107 1    
   101   51  108 1    
   102   51  109 1    
   103   52   53 2    
   104   52   54 am   BACKBONE|DICT|INTERRES
   105   54   55 1    
   106   54  110 1    
   107   55   56 1    
   108   55   59 1    
   109   55  111 1    
   110   56   57 am   BACKBONE|DICT|INTERRES
   111   56   58 2    
   112   57  112 1    
   113   57  113 1    
   114   59   60 1    
   115   59  114 1    
   116   59  115 1    
   117   60   61 1    
   118   61  116 1    
   119   61  117 1    
@<TRIPOS>SUBSTRUCTURE
     1 UNK         1 GROUP             0       ****    0 ROOT    
