@<TRIPOS>MOLECULE
3R8
117   119    1
SMALL
USER_CHARGES


@<TRIPOS>ATOM
      1 CA         14.3258  -24.1735  -44.6748 C.3       0 UNK        -0.2013 
      2 C          15.3934  -25.2472  -44.5302 C.2       0 UNK         0.4866 
      3 O          16.4217  -25.1841  -45.2051 O.2       0 UNK        -0.5176 
      4 N          15.1621  -26.2328  -43.6540 N.am      1 UNK        -0.4884 
      5 CA         16.0737  -27.3466  -43.3705 C.3       1 UNK         0.0853 
      6 C6         15.3336  -28.5562  -42.7489 C.3       10 UNK        -0.0849 
      7 S7         14.2077  -29.3374  -43.9500 S.3       10 UNK        -0.2776 
      8 C8         15.0382  -30.9392  -44.2367 C.3       10 UNK         0.0316 
      9 C9         16.4309  -30.8280  -44.8573 C.ar      10 UNK        -0.0863 
     10 C10        17.4675  -31.6376  -44.3773 C.ar      10 UNK        -0.1009 
     11 C11        18.7307  -31.6092  -44.9761 C.ar      10 UNK        -0.0712 
     12 C12        18.9579  -30.7530  -46.0557 C.ar      10 UNK        -0.0894 
     13 C13        17.9426  -29.9199  -46.5335 C.ar      10 UNK        -0.0745 
     14 C14        16.6781  -29.9721  -45.9382 C.ar      10 UNK        -0.0972 
     15 C15        18.1955  -28.9989  -47.7208 C.3       10 UNK         0.0209 
     16 S16        18.7910  -27.3526  -47.2120 S.3       10 UNK        -0.2568 
     17 C17        20.5667  -27.6706  -46.9210 C.3       10 UNK        -0.0983 
     18 CA         21.2061  -26.7372  -45.8622 C.3       3 UNK         0.0876 
     19 N          20.4105  -26.6690  -44.6324 N.am      3 UNK        -0.4424 
     20 C          20.5493  -25.7468  -43.6692 C.2       2 UNK         0.4918 
     21 O          21.4458  -24.9029  -43.6556 O.2       2 UNK        -0.4875 
     22 CA         19.4793  -25.7534  -42.5638 C.3       2 UNK         0.0481 
     23 CB         19.3294  -24.3924  -41.8580 C.3       2 UNK        -0.1831 
     24 N          18.1952  -26.1710  -43.1254 N.am      2 UNK        -0.4498 
     25 C          17.2547  -26.8807  -42.4976 C.2       1 UNK         0.5027 
     26 O          17.2942  -27.1638  -41.2990 O.2       1 UNK        -0.4969 
     27 C          22.6646  -27.1662  -45.6032 C.2       3 UNK         0.5005 
     28 O          23.5623  -26.7310  -46.3265 O.2       3 UNK        -0.5279 
     29 N          22.8669  -28.0191  -44.5910 N.am      4 UNK        -0.4463 
     30 CA         24.1558  -28.5669  -44.1883 C.3       4 UNK         0.0283 
     31 CB         24.2432  -30.0413  -44.6237 C.3       4 UNK        -0.1875 
     32 C          24.2835  -28.3995  -42.6732 C.2       4 UNK         0.4949 
     33 O          23.9050  -29.2961  -41.9182 O.2       4 UNK        -0.5039 
     34 N          24.8081  -27.2440  -42.2470 N.am      5 UNK        -0.4663 
     35 CA         25.0239  -26.8952  -40.8366 C.3       5 UNK         0.0242 
     36 CB         25.4730  -25.4287  -40.7393 C.3       5 UNK        -0.1982 
     37 C          26.0223  -27.8175  -40.1106 C.2       5 UNK         0.5017 
     38 O          25.9063  -27.9901  -38.8978 O.2       5 UNK        -0.5012 
     39 N          26.9583  -28.4121  -40.8656 N.am      6 UNK        -0.4439 
     40 CA         27.9033  -29.4243  -40.3863 C.3       6 UNK         0.0297 
     41 CB         29.0118  -29.6253  -41.4322 C.3       6 UNK        -0.2006 
     42 C          27.2276  -30.7674  -40.0519 C.2       6 UNK         0.4892 
     43 O          27.6637  -31.4410  -39.1178 O.2       6 UNK        -0.5089 
     44 N          26.1788  -31.1269  -40.8072 N.am      7 UNK        -0.4243 
     45 CA         25.3335  -32.2946  -40.5419 C.3       7 UNK         0.0196 
     46 CB         24.6575  -32.7486  -41.8464 C.3       7 UNK        -0.2007 
     47 C          24.2757  -31.9938  -39.4678 C.2       7 UNK         0.5020 
     48 O          23.8994  -32.8982  -38.7226 O.2       7 UNK        -0.5147 
     49 N          23.8223  -30.7317  -39.4191 N.am      8 UNK        -0.4734 
     50 CA         22.8116  -30.1687  -38.5162 C.3       8 UNK         0.0238 
     51 CB         23.2673  -30.2498  -37.0436 C.3       8 UNK        -0.1912 
     52 C          21.4041  -30.7500  -38.7506 C.2       8 UNK         0.5038 
     53 O          20.6043  -30.8188  -37.8155 O.2       8 UNK        -0.5046 
     54 N          21.1244  -31.1425  -40.0003 N.am      9 UNK        -0.4200 
     55 CA         19.8221  -31.6497  -40.4570 C.3       9 UNK         0.0839 
     56 C          18.7378  -30.5569  -40.6807 C.2       9 UNK         0.5513 
     57 N          19.0721  -29.2740  -40.6170 N.am      9 UNK        -0.7519 
     58 O          17.5741  -30.8854  -40.8939 O.2       9 UNK        -0.4960 
     59 C59        19.9771  -32.5891  -41.6799 C.3       10 UNK        -0.0876 
     60 S60        20.7910  -31.8120  -43.1213 S.3       10 UNK        -0.2414 
     61 C61        19.8447  -32.5313  -44.4998 C.3       10 UNK         0.0169 
     62 H62        14.7395  -23.1975  -44.4228 H         1 UNK         0.0903 
     63 H63        13.9686  -24.1371  -45.7036 H         1 UNK         0.0903 
     64 H64        13.4704  -24.3580  -44.0252 H         1 UNK         0.0903 
     65 H65        14.3038  -26.2301  -43.1209 H         1 UNK         0.3096 
     66 H66        16.5065  -27.6818  -44.3159 H         1 UNK         0.1121 
     67 H67        14.7621  -28.2544  -41.8693 H         1 UNK         0.0849 
     68 H68        16.0458  -29.3062  -42.4002 H         1 UNK         0.0849 
     69 H69        15.0830  -31.4777  -43.2883 H         1 UNK         0.0865 
     70 H70        14.4140  -31.5404  -44.8988 H         1 UNK         0.0865 
     71 H71        17.2860  -32.3089  -43.5493 H         1 UNK         0.1346 
     72 H72        19.9268  -30.7533  -46.5338 H         1 UNK         0.1412 
     73 H73        15.8813  -29.3504  -46.3238 H         1 UNK         0.1426 
     74 H74        18.9105  -29.4512  -48.4100 H         1 UNK         0.0716 
     75 H75        17.2722  -28.8720  -48.2881 H         1 UNK         0.0716 
     76 H76        20.6976  -28.7084  -46.6217 H         1 UNK         0.0695 
     77 H77        21.0850  -27.5670  -47.8762 H         1 UNK         0.0695 
     78 H78        21.2392  -25.7289  -46.2815 H         1 UNK         0.0983 
     79 H79        19.6443  -27.3232  -44.5702 H         1 UNK         0.3095 
     80 H80        19.8056  -26.4905  -41.8275 H         1 UNK         0.0454 
     81 H81        19.0298  -23.6104  -42.5564 H         1 UNK         0.0851 
     82 H82        18.5835  -24.4372  -41.0645 H         1 UNK         0.0851 
     83 H83        20.2686  -24.0815  -41.3989 H         1 UNK         0.0851 
     84 H84        18.0074  -25.8884  -44.0840 H         1 UNK         0.2976 
     85 H85        22.0753  -28.2942  -44.0256 H         1 UNK         0.3116 
     86 H86        24.9775  -28.0226  -44.6588 H         1 UNK         0.0646 
     87 H87        23.4187  -30.6326  -44.2245 H         1 UNK         0.0847 
     88 H88        24.2193  -30.1325  -45.7096 H         1 UNK         0.0847 
     89 H89        25.1717  -30.4985  -44.2800 H         1 UNK         0.0847 
     90 H90        25.0644  -26.5462  -42.9319 H         1 UNK         0.3040 
     91 H91        24.0655  -26.9938  -40.3216 H         1 UNK         0.1015 
     92 H92        26.4171  -25.2591  -41.2587 H         1 UNK         0.0786 
     93 H93        25.6155  -25.1322  -39.6990 H         1 UNK         0.0786 
     94 H94        24.7281  -24.7564  -41.1659 H         1 UNK         0.0786 
     95 H95        26.9884  -28.1824  -41.8483 H         1 UNK         0.3172 
     96 H96        28.3646  -29.0484  -39.4704 H         1 UNK         0.0595 
     97 H97        29.7436  -30.3573  -41.0872 H         1 UNK         0.0839 
     98 H98        29.5514  -28.6974  -41.6231 H         1 UNK         0.0839 
     99 H99        28.6148  -29.9860  -42.3819 H         1 UNK         0.0839 
    100 H100       25.8646  -30.4983  -41.5327 H         1 UNK         0.2998 
    101 H101       25.9590  -33.1135  -40.1793 H         1 UNK         0.0822 
    102 H102       24.0662  -33.6507  -41.6833 H         1 UNK         0.0787 
    103 H103       23.9823  -31.9888  -42.2402 H         1 UNK         0.0787 
    104 H104       25.3929  -32.9780  -42.6176 H         1 UNK         0.0787 
    105 H105       24.1346  -30.1047  -40.1548 H         1 UNK         0.3055 
    106 H106       22.7394  -29.1107  -38.7736 H         1 UNK         0.1106 
    107 H107       24.2625  -29.8235  -36.9149 H         1 UNK         0.0828 
    108 H108       22.5914  -29.6928  -36.3938 H         1 UNK         0.0828 
    109 H109       23.2912  -31.2775  -36.6805 H         1 UNK         0.0828 
    110 H110       21.8311  -31.0349  -40.7139 H         1 UNK         0.2931 
    111 H111       19.4283  -32.2710  -39.6502 H         1 UNK         0.0412 
    112 H112       18.3601  -28.5628  -40.7574 H         1 UNK         0.3472 
    113 H113       20.0229  -29.0058  -40.4303 H         1 UNK         0.3472 
    114 H114       20.5721  -33.4579  -41.3945 H         1 UNK         0.0970 
    115 H115       19.0037  -32.9891  -41.9677 H         1 UNK         0.0970 
    116 H116       20.5370  -32.7271  -45.3200 H         1 UNK         0.0612 
    117 H117       19.4392  -33.5043  -44.2190 H         1 UNK         0.0612 
@<TRIPOS>BOND
     1    1    2 1    
     2    1   62 1    
     3    1   63 1    
     4    1   64 1    
     5    2    3 2    
     6    2    4 am   BACKBONE|DICT|INTERRES
     7    4    5 1    
     8    4   65 1    
     9    5    6 1    
    10    5   25 1    
    11    5   66 1    
    12    6    7 1    
    13    6   67 1    
    14    6   68 1    
    15    7    8 1    
    16    8    9 1    
    17    8   69 1    
    18    8   70 1    
    19    9   10 ar   
    20    9   14 ar   
    21   10   11 ar   
    22   10   71 1    
    23   11   12 ar   
    24   11   61 1    
    25   12   13 ar   
    26   12   72 1    
    27   13   14 ar   
    28   13   15 1    
    29   14   73 1    
    30   15   16 1    
    31   15   74 1    
    32   15   75 1    
    33   16   17 1    
    34   17   18 1    
    35   17   76 1    
    36   17   77 1    
    37   18   19 1    
    38   18   27 1    
    39   18   78 1    
    40   19   20 am   BACKBONE|DICT|INTERRES
    41   19   79 1    
    42   20   21 2    
    43   20   22 1    
    44   22   23 1    
    45   22   24 1    
    46   22   80 1    
    47   23   81 1    
    48   23   82 1    
    49   23   83 1    
    50   24   25 am   BACKBONE|DICT|INTERRES
    51   24   84 1    
    52   25   26 2    
    53   27   28 2    
    54   27   29 am   BACKBONE|DICT|INTERRES
    55   29   30 1    
    56   29   85 1    
    57   30   31 1    
    58   30   32 1    
    59   30   86 1    
    60   31   87 1    
    61   31   88 1    
    62   31   89 1    
    63   32   33 2    
    64   32   34 am   BACKBONE|DICT|INTERRES
    65   34   35 1    
    66   34   90 1    
    67   35   36 1    
    68   35   37 1    
    69   35   91 1    
    70   36   92 1    
    71   36   93 1    
    72   36   94 1    
    73   37   38 2    
    74   37   39 am   BACKBONE|DICT|INTERRES
    75   39   40 1    
    76   39   95 1    
    77   40   41 1    
    78   40   42 1    
    79   40   96 1    
    80   41   97 1    
    81   41   98 1    
    82   41   99 1    
    83   42   43 2    
    84   42   44 am   BACKBONE|DICT|INTERRES
    85   44   45 1    
    86   44  100 1    
    87   45   46 1    
    88   45   47 1    
    89   45  101 1    
    90   46  102 1    
    91   46  103 1    
    92   46  104 1    
    93   47   48 2    
    94   47   49 am   BACKBONE|DICT|INTERRES
    95   49   50 1    
    96   49  105 1    
    97   50   51 1    
    98   50   52 1    
    99   50  106 1    
   100   51  107 1    
   101   51  108 1    
   102   51  109 1    
   103   52   53 2    
   104   52   54 am   BACKBONE|DICT|INTERRES
   105   54   55 1    
   106   54  110 1    
   107   55   56 1    
   108   55   59 1    
   109   55  111 1    
   110   56   57 am   BACKBONE|DICT|INTERRES
   111   56   58 2    
   112   57  112 1    
   113   57  113 1    
   114   59   60 1    
   115   59  114 1    
   116   59  115 1    
   117   60   61 1    
   118   61  116 1    
   119   61  117 1    
@<TRIPOS>SUBSTRUCTURE
     1 UNK         1 GROUP             0       ****    0 ROOT    
