@<TRIPOS>MOLECULE
3R8
117   119    1
SMALL
USER_CHARGES


@<TRIPOS>ATOM
      1 CA         15.1213  -23.3456  -41.4720 C.3       0 UNK        -0.2013 
      2 C          15.6122  -23.4103  -42.9105 C.2       0 UNK         0.4866 
      3 O          15.6180  -22.3914  -43.6016 O.2       0 UNK        -0.5176 
      4 N          16.0208  -24.6016  -43.3669 N.am      1 UNK        -0.4884 
      5 CA         16.5210  -24.8533  -44.7253 C.3       1 UNK         0.0853 
      6 C6         16.6315  -26.3641  -45.0221 C.3       10 UNK        -0.0849 
      7 S7         15.0290  -27.2447  -45.0087 S.3       10 UNK        -0.2776 
      8 C8         15.3460  -28.6900  -43.9220 C.3       10 UNK         0.0316 
      9 C9         16.6738  -29.4174  -44.1552 C.ar      10 UNK        -0.0863 
     10 C10        17.2950  -30.0627  -43.0801 C.ar      10 UNK        -0.1009 
     11 C11        18.5500  -30.6606  -43.2334 C.ar      10 UNK        -0.0712 
     12 C12        19.1968  -30.5979  -44.4706 C.ar      10 UNK        -0.0894 
     13 C13        18.5909  -29.9512  -45.5509 C.ar      10 UNK        -0.0745 
     14 C14        17.3114  -29.4145  -45.4018 C.ar      10 UNK        -0.0972 
     15 C15        19.3368  -29.7583  -46.8620 C.3       10 UNK         0.0209 
     16 S16        19.9299  -28.0383  -47.0268 S.3       10 UNK        -0.2568 
     17 C17        21.2496  -28.0050  -45.7719 C.3       10 UNK        -0.0983 
     18 CA         21.8573  -26.5956  -45.5554 C.3       3 UNK         0.0876 
     19 N          20.8991  -25.6671  -44.9433 N.am      3 UNK        -0.4424 
     20 C          21.0812  -24.3417  -44.8529 C.2       2 UNK         0.4918 
     21 O          22.0006  -23.7454  -45.4176 O.2       2 UNK        -0.4875 
     22 CA         20.0943  -23.5580  -43.9586 C.3       2 UNK         0.0481 
     23 CB         20.0843  -22.0436  -44.2593 C.3       2 UNK        -0.1831 
     24 N          18.7298  -24.1014  -43.9536 N.am      2 UNK        -0.4498 
     25 C          17.8886  -24.1907  -44.9966 C.2       1 UNK         0.5027 
     26 O          18.1540  -23.8019  -46.1348 O.2       1 UNK        -0.4969 
     27 C          23.1049  -26.7230  -44.6588 C.2       3 UNK         0.5005 
     28 O          22.9781  -26.6883  -43.4327 O.2       3 UNK        -0.5279 
     29 N          24.2754  -26.9627  -45.2676 N.am      4 UNK        -0.4463 
     30 CA         25.5345  -27.2362  -44.5574 C.3       4 UNK         0.0283 
     31 CB         26.6883  -27.3070  -45.5703 C.3       4 UNK        -0.1875 
     32 C          25.4931  -28.5171  -43.6992 C.2       4 UNK         0.4949 
     33 O          26.2163  -28.6116  -42.7079 O.2       4 UNK        -0.5039 
     34 N          24.6241  -29.4634  -44.0802 N.am      5 UNK        -0.4663 
     35 CA         24.3543  -30.7085  -43.3621 C.3       5 UNK         0.0242 
     36 CB         23.6075  -31.6703  -44.3012 C.3       5 UNK        -0.1982 
     37 C          23.5596  -30.5278  -42.0565 C.2       5 UNK         0.5017 
     38 O          23.5219  -31.4719  -41.2677 O.2       5 UNK        -0.5012 
     39 N          22.9417  -29.3551  -41.8302 N.am      6 UNK        -0.4439 
     40 CA         22.0458  -29.0646  -40.6975 C.3       6 UNK         0.0297 
     41 CB         21.4049  -27.6806  -40.8860 C.3       6 UNK        -0.2006 
     42 C          22.6655  -29.1944  -39.2923 C.2       6 UNK         0.4892 
     43 O          21.9200  -29.2187  -38.3125 O.2       6 UNK        -0.5089 
     44 N          23.9970  -29.3135  -39.2109 N.am      7 UNK        -0.4243 
     45 CA         24.7374  -29.6543  -37.9956 C.3       7 UNK         0.0196 
     46 CB         26.2394  -29.4580  -38.2584 C.3       7 UNK        -0.2007 
     47 C          24.4655  -31.0831  -37.4791 C.2       7 UNK         0.5020 
     48 O          24.7000  -31.3335  -36.2962 O.2       7 UNK        -0.5147 
     49 N          23.9923  -31.9910  -38.3471 N.am      8 UNK        -0.4734 
     50 CA         23.6852  -33.3821  -37.9935 C.3       8 UNK         0.0238 
     51 CB         24.9154  -34.2690  -38.2545 C.3       8 UNK        -0.1912 
     52 C          22.4516  -33.9354  -38.7230 C.2       8 UNK         0.5038 
     53 O          21.7023  -34.7060  -38.1221 O.2       8 UNK        -0.5046 
     54 N          22.2602  -33.5504  -39.9919 N.am      9 UNK        -0.4200 
     55 CA         21.1906  -34.0127  -40.8917 C.3       9 UNK         0.0839 
     56 C          21.2546  -35.5275  -41.2625 C.2       9 UNK         0.5513 
     57 N          22.4085  -36.1762  -41.1566 N.am      9 UNK        -0.7519 
     58 O          20.2614  -36.1229  -41.6720 O.2       9 UNK        -0.4960 
     59 C59        19.7831  -33.5257  -40.4356 C.3       10 UNK        -0.0876 
     60 S60        18.7215  -33.0493  -41.8425 S.3       10 UNK        -0.2414 
     61 C61        19.2346  -31.3195  -42.0478 C.3       10 UNK         0.0169 
     62 H62        14.0891  -22.9977  -41.4437 H         1 UNK         0.0903 
     63 H63        15.1646  -24.3177  -40.9811 H         1 UNK         0.0903 
     64 H64        15.7317  -22.6485  -40.8985 H         1 UNK         0.0903 
     65 H65        15.9609  -25.4111  -42.7654 H         1 UNK         0.3096 
     66 H66        15.8107  -24.4149  -45.4305 H         1 UNK         0.1121 
     67 H67        17.0718  -26.5251  -46.0090 H         1 UNK         0.0849 
     68 H68        17.3164  -26.8253  -44.3086 H         1 UNK         0.0849 
     69 H69        14.5306  -29.4041  -44.0441 H         1 UNK         0.0865 
     70 H70        15.2968  -28.3436  -42.8885 H         1 UNK         0.0865 
     71 H71        16.8124  -30.0828  -42.1122 H         1 UNK         0.1346 
     72 H72        20.1843  -31.0228  -44.5826 H         1 UNK         0.1412 
     73 H73        16.8502  -28.9259  -46.2483 H         1 UNK         0.1426 
     74 H74        18.6723  -29.9876  -47.6963 H         1 UNK         0.0716 
     75 H75        20.1794  -30.4472  -46.9396 H         1 UNK         0.0716 
     76 H76        22.0136  -28.7128  -46.0999 H         1 UNK         0.0695 
     77 H77        20.8588  -28.3909  -44.8290 H         1 UNK         0.0695 
     78 H78        22.1641  -26.1869  -46.5209 H         1 UNK         0.0983 
     79 H79        20.1344  -26.0854  -44.4375 H         1 UNK         0.3095 
     80 H80        20.4636  -23.6806  -42.9395 H         1 UNK         0.0454 
     81 H81        19.3923  -21.5133  -43.6052 H         1 UNK         0.0851 
     82 H82        19.7968  -21.8362  -45.2904 H         1 UNK         0.0851 
     83 H83        21.0717  -21.6071  -44.1050 H         1 UNK         0.0851 
     84 H84        18.3984  -24.4461  -43.0631 H         1 UNK         0.2976 
     85 H85        24.3100  -26.9847  -46.2776 H         1 UNK         0.3116 
     86 H86        25.7233  -26.3990  -43.8819 H         1 UNK         0.0646 
     87 H87        27.6394  -27.4830  -45.0656 H         1 UNK         0.0847 
     88 H88        26.7883  -26.3745  -46.1261 H         1 UNK         0.0847 
     89 H89        26.5479  -28.1152  -46.2892 H         1 UNK         0.0847 
     90 H90        24.0906  -29.3012  -44.9209 H         1 UNK         0.3040 
     91 H91        25.3107  -31.1626  -43.0930 H         1 UNK         0.1015 
     92 H92        24.1945  -31.8889  -45.1935 H         1 UNK         0.0786 
     93 H93        22.6491  -31.2605  -44.6213 H         1 UNK         0.0786 
     94 H94        23.4063  -32.6233  -43.8091 H         1 UNK         0.0786 
     95 H95        23.0639  -28.6038  -42.5012 H         1 UNK         0.3172 
     96 H96        21.2455  -29.8023  -40.7300 H         1 UNK         0.0595 
     97 H97        22.1525  -26.8867  -40.8692 H         1 UNK         0.0839 
     98 H98        20.6868  -27.4677  -40.0929 H         1 UNK         0.0839 
     99 H99        20.8662  -27.6171  -41.8317 H         1 UNK         0.0839 
    100 H100       24.5262  -29.2749  -40.0704 H         1 UNK         0.2998 
    101 H101       24.4312  -28.9603  -37.2099 H         1 UNK         0.0822 
    102 H102       26.5996  -30.1166  -39.0499 H         1 UNK         0.0787 
    103 H103       26.4614  -28.4308  -38.5486 H         1 UNK         0.0787 
    104 H104       26.8244  -29.6737  -37.3631 H         1 UNK         0.0787 
    105 H105       23.8165  -31.7031  -39.3044 H         1 UNK         0.3055 
    106 H106       23.4485  -33.4370  -36.9281 H         1 UNK         0.1106 
    107 H107       24.7049  -35.3127  -38.0167 H         1 UNK         0.0828 
    108 H108       25.2294  -34.2261  -39.2980 H         1 UNK         0.0828 
    109 H109       25.7610  -33.9626  -37.6385 H         1 UNK         0.0828 
    110 H110       22.9096  -32.8961  -40.4218 H         1 UNK         0.2931 
    111 H111       21.4256  -33.5055  -41.8282 H         1 UNK         0.0412 
    112 H112       23.2360  -35.7004  -40.8352 H         1 UNK         0.3472 
    113 H113       22.4501  -37.1529  -41.4028 H         1 UNK         0.3472 
    114 H114       19.2764  -34.2894  -39.8427 H         1 UNK         0.0970 
    115 H115       19.8697  -32.6617  -39.7746 H         1 UNK         0.0970 
    116 H116       19.0150  -30.7631  -41.1353 H         1 UNK         0.0612 
    117 H117       20.3163  -31.2899  -42.1838 H         1 UNK         0.0612 
@<TRIPOS>BOND
     1    1    2 1    
     2    1   62 1    
     3    1   63 1    
     4    1   64 1    
     5    2    3 2    
     6    2    4 am   BACKBONE|DICT|INTERRES
     7    4    5 1    
     8    4   65 1    
     9    5    6 1    
    10    5   25 1    
    11    5   66 1    
    12    6    7 1    
    13    6   67 1    
    14    6   68 1    
    15    7    8 1    
    16    8    9 1    
    17    8   69 1    
    18    8   70 1    
    19    9   10 ar   
    20    9   14 ar   
    21   10   11 ar   
    22   10   71 1    
    23   11   12 ar   
    24   11   61 1    
    25   12   13 ar   
    26   12   72 1    
    27   13   14 ar   
    28   13   15 1    
    29   14   73 1    
    30   15   16 1    
    31   15   74 1    
    32   15   75 1    
    33   16   17 1    
    34   17   18 1    
    35   17   76 1    
    36   17   77 1    
    37   18   19 1    
    38   18   27 1    
    39   18   78 1    
    40   19   20 am   BACKBONE|DICT|INTERRES
    41   19   79 1    
    42   20   21 2    
    43   20   22 1    
    44   22   23 1    
    45   22   24 1    
    46   22   80 1    
    47   23   81 1    
    48   23   82 1    
    49   23   83 1    
    50   24   25 am   BACKBONE|DICT|INTERRES
    51   24   84 1    
    52   25   26 2    
    53   27   28 2    
    54   27   29 am   BACKBONE|DICT|INTERRES
    55   29   30 1    
    56   29   85 1    
    57   30   31 1    
    58   30   32 1    
    59   30   86 1    
    60   31   87 1    
    61   31   88 1    
    62   31   89 1    
    63   32   33 2    
    64   32   34 am   BACKBONE|DICT|INTERRES
    65   34   35 1    
    66   34   90 1    
    67   35   36 1    
    68   35   37 1    
    69   35   91 1    
    70   36   92 1    
    71   36   93 1    
    72   36   94 1    
    73   37   38 2    
    74   37   39 am   BACKBONE|DICT|INTERRES
    75   39   40 1    
    76   39   95 1    
    77   40   41 1    
    78   40   42 1    
    79   40   96 1    
    80   41   97 1    
    81   41   98 1    
    82   41   99 1    
    83   42   43 2    
    84   42   44 am   BACKBONE|DICT|INTERRES
    85   44   45 1    
    86   44  100 1    
    87   45   46 1    
    88   45   47 1    
    89   45  101 1    
    90   46  102 1    
    91   46  103 1    
    92   46  104 1    
    93   47   48 2    
    94   47   49 am   BACKBONE|DICT|INTERRES
    95   49   50 1    
    96   49  105 1    
    97   50   51 1    
    98   50   52 1    
    99   50  106 1    
   100   51  107 1    
   101   51  108 1    
   102   51  109 1    
   103   52   53 2    
   104   52   54 am   BACKBONE|DICT|INTERRES
   105   54   55 1    
   106   54  110 1    
   107   55   56 1    
   108   55   59 1    
   109   55  111 1    
   110   56   57 am   BACKBONE|DICT|INTERRES
   111   56   58 2    
   112   57  112 1    
   113   57  113 1    
   114   59   60 1    
   115   59  114 1    
   116   59  115 1    
   117   60   61 1    
   118   61  116 1    
   119   61  117 1    
@<TRIPOS>SUBSTRUCTURE
     1 UNK         1 GROUP             0       ****    0 ROOT    
