@<TRIPOS>MOLECULE
3R8
117   119    1
SMALL
USER_CHARGES


@<TRIPOS>ATOM
      1 CA         19.7638  -25.3738  -38.9316 C.3       0 UNK        -0.2013 
      2 C          18.6935  -25.6908  -39.9655 C.2       0 UNK         0.4866 
      3 O          17.5620  -26.0088  -39.6006 O.2       0 UNK        -0.5176 
      4 N          19.0456  -25.6142  -41.2516 N.am      1 UNK        -0.4884 
      5 CA         18.1904  -25.9005  -42.4015 C.3       1 UNK         0.0853 
      6 C6         17.9278  -27.4210  -42.5760 C.3       10 UNK        -0.0849 
      7 S7         16.4050  -27.7627  -43.5160 S.3       10 UNK        -0.2776 
      8 C8         16.3990  -29.5844  -43.5143 C.3       10 UNK         0.0316 
      9 C9         17.5702  -30.1569  -44.2999 C.ar      10 UNK        -0.0863 
     10 C10        18.6106  -30.8191  -43.6415 C.ar      10 UNK        -0.1009 
     11 C11        19.6844  -31.3482  -44.3641 C.ar      10 UNK        -0.0712 
     12 C12        19.7156  -31.2061  -45.7538 C.ar      10 UNK        -0.0894 
     13 C13        18.6912  -30.5303  -46.4212 C.ar      10 UNK        -0.0745 
     14 C14        17.6130  -30.0226  -45.6901 C.ar      10 UNK        -0.0972 
     15 C15        18.7401  -30.3558  -47.9313 C.3       10 UNK         0.0209 
     16 S16        18.8009  -28.6009  -48.4120 S.3       10 UNK        -0.2568 
     17 C17        20.5727  -28.1733  -48.2361 C.3       10 UNK        -0.0983 
     18 CA         20.9790  -27.3788  -46.9528 C.3       3 UNK         0.0876 
     19 N          19.9081  -26.5324  -46.4206 N.am      3 UNK        -0.4424 
     20 C          19.7306  -25.2358  -46.6908 C.2       2 UNK         0.4918 
     21 O          20.4612  -24.5814  -47.4353 O.2       2 UNK        -0.4875 
     22 CA         18.5383  -24.5390  -46.0053 C.3       2 UNK         0.0481 
     23 CB         17.3390  -24.4829  -46.9650 C.3       2 UNK        -0.1831 
     24 N          18.1086  -25.1458  -44.7374 N.am      2 UNK        -0.4498 
     25 C          18.8653  -25.2811  -43.6397 C.2       1 UNK         0.5027 
     26 O          20.0583  -24.9653  -43.5885 O.2       1 UNK        -0.4969 
     27 C          21.6279  -28.2136  -45.8268 C.2       3 UNK         0.5005 
     28 O          22.1690  -29.2890  -46.0897 O.2       3 UNK        -0.5279 
     29 N          21.5972  -27.6871  -44.5904 N.am      4 UNK        -0.4463 
     30 CA         22.2362  -28.2696  -43.4063 C.3       4 UNK         0.0283 
     31 CB         21.8541  -27.4434  -42.1671 C.3       4 UNK        -0.1875 
     32 C          23.7676  -28.3474  -43.5216 C.2       4 UNK         0.4949 
     33 O          24.3837  -27.5109  -44.1854 O.2       4 UNK        -0.5039 
     34 N          24.3560  -29.3047  -42.7977 N.am      5 UNK        -0.4663 
     35 CA         25.8002  -29.4643  -42.6247 C.3       5 UNK         0.0242 
     36 CB         26.1539  -30.9564  -42.7698 C.3       5 UNK        -0.1982 
     37 C          26.1693  -28.8965  -41.2461 C.2       5 UNK         0.5017 
     38 O          26.6168  -29.6376  -40.3685 O.2       5 UNK        -0.5012 
     39 N          25.8646  -27.6036  -41.0537 N.am      6 UNK        -0.4439 
     40 CA         25.7788  -26.8603  -39.7877 C.3       6 UNK         0.0297 
     41 CB         27.1095  -26.8541  -39.0085 C.3       6 UNK        -0.2006 
     42 C          24.5988  -27.3385  -38.9212 C.2       6 UNK         0.4892 
     43 O          23.7124  -26.5415  -38.6128 O.2       6 UNK        -0.5089 
     44 N          24.5827  -28.6359  -38.5960 N.am      7 UNK        -0.4243 
     45 CA         23.4370  -29.3476  -38.0380 C.3       7 UNK         0.0196 
     46 CB         23.9435  -30.5632  -37.2463 C.3       7 UNK        -0.2007 
     47 C          22.5117  -29.8049  -39.1744 C.2       7 UNK         0.5020 
     48 O          22.9834  -30.1080  -40.2743 O.2       7 UNK        -0.5147 
     49 N          21.2109  -29.9097  -38.8829 N.am      8 UNK        -0.4734 
     50 CA         20.1614  -30.3177  -39.8262 C.3       8 UNK         0.0238 
     51 CB         18.8124  -29.7504  -39.3458 C.3       8 UNK        -0.1912 
     52 C          20.1050  -31.8412  -40.0832 C.2       8 UNK         0.5038 
     53 O          19.0107  -32.3823  -40.2400 O.2       8 UNK        -0.5046 
     54 N          21.2810  -32.4845  -40.1362 N.am      9 UNK        -0.4200 
     55 CA         21.5585  -33.8921  -40.4838 C.3       9 UNK         0.0839 
     56 C          20.7073  -34.9907  -39.7742 C.2       9 UNK         0.5513 
     57 N          20.1643  -34.7322  -38.5913 N.am      9 UNK        -0.7519 
     58 O          20.5765  -36.1072  -40.2702 O.2       9 UNK        -0.4960 
     59 C59        21.7733  -34.1105  -42.0126 C.3       10 UNK        -0.0876 
     60 S60        20.3456  -33.7086  -43.0776 S.3       10 UNK        -0.2414 
     61 C61        20.8240  -32.0466  -43.6412 C.3       10 UNK         0.0169 
     62 H62        19.8957  -26.2197  -38.2573 H         1 UNK         0.0903 
     63 H63        20.7279  -25.1603  -39.3936 H         1 UNK         0.0903 
     64 H64        19.4702  -24.5076  -38.3394 H         1 UNK         0.0903 
     65 H65        19.9656  -25.2835  -41.5205 H         1 UNK         0.3096 
     66 H66        17.2443  -25.3782  -42.2403 H         1 UNK         0.1121 
     67 H67        17.8095  -27.9004  -41.6038 H         1 UNK         0.0849 
     68 H68        18.7735  -27.9194  -43.0530 H         1 UNK         0.0849 
     69 H69        16.4041  -29.9458  -42.4846 H         1 UNK         0.0865 
     70 H70        15.4654  -29.9360  -43.9558 H         1 UNK         0.0865 
     71 H71        18.5838  -30.9306  -42.5668 H         1 UNK         0.1346 
     72 H72        20.5528  -31.6004  -46.3135 H         1 UNK         0.1412 
     73 H73        16.8141  -29.5043  -46.2033 H         1 UNK         0.1426 
     74 H74        17.8441  -30.8037  -48.3623 H         1 UNK         0.0716 
     75 H75        19.5873  -30.8868  -48.3675 H         1 UNK         0.0716 
     76 H76        20.8016  -27.5468  -49.0991 H         1 UNK         0.0695 
     77 H77        21.1815  -29.0661  -48.3837 H         1 UNK         0.0695 
     78 H78        21.8018  -26.7257  -47.2528 H         1 UNK         0.0983 
     79 H79        19.2359  -26.9993  -45.8292 H         1 UNK         0.3095 
     80 H80        18.8464  -23.5148  -45.7859 H         1 UNK         0.0454 
     81 H81        16.9649  -25.4801  -47.2011 H         1 UNK         0.0851 
     82 H82        17.6146  -24.0081  -47.9079 H         1 UNK         0.0851 
     83 H83        16.5168  -23.9048  -46.5432 H         1 UNK         0.0851 
     84 H84        17.1531  -25.4749  -44.6990 H         1 UNK         0.2976 
     85 H85        21.2004  -26.7631  -44.4765 H         1 UNK         0.3116 
     86 H86        21.8527  -29.2828  -43.2835 H         1 UNK         0.0646 
     87 H87        20.8055  -27.5787  -41.9141 H         1 UNK         0.0847 
     88 H88        22.0405  -26.3797  -42.3170 H         1 UNK         0.0847 
     89 H89        22.4281  -27.7406  -41.2901 H         1 UNK         0.0847 
     90 H90        23.7811  -29.8497  -42.1611 H         1 UNK         0.3040 
     91 H91        26.3541  -28.9038  -43.3813 H         1 UNK         0.1015 
     92 H92        25.6365  -31.5692  -42.0301 H         1 UNK         0.0786 
     93 H93        27.2247  -31.1185  -42.6396 H         1 UNK         0.0786 
     94 H94        25.8869  -31.3304  -43.7584 H         1 UNK         0.0786 
     95 H95        25.4868  -27.1127  -41.8538 H         1 UNK         0.3172 
     96 H96        25.5660  -25.8274  -40.0686 H         1 UNK         0.0595 
     97 H97        27.3849  -27.8437  -38.6437 H         1 UNK         0.0839 
     98 H98        27.0423  -26.2002  -38.1381 H         1 UNK         0.0839 
     99 H99        27.9282  -26.4863  -39.6270 H         1 UNK         0.0839 
    100 H100       25.3236  -29.2113  -38.9866 H         1 UNK         0.2998 
    101 H101       22.8865  -28.6859  -37.3657 H         1 UNK         0.0822 
    102 H102       24.6043  -30.2585  -36.4346 H         1 UNK         0.0787 
    103 H103       23.1152  -31.1147  -36.7994 H         1 UNK         0.0787 
    104 H104       24.4941  -31.2583  -37.8821 H         1 UNK         0.0787 
    105 H105       20.9074  -29.6976  -37.9428 H         1 UNK         0.3055 
    106 H106       20.3789  -29.8594  -40.7934 H         1 UNK         0.1106 
    107 H107       18.5055  -30.1915  -38.3968 H         1 UNK         0.0828 
    108 H108       18.0197  -29.9490  -40.0682 H         1 UNK         0.0828 
    109 H109       18.8588  -28.6698  -39.2143 H         1 UNK         0.0828 
    110 H110       22.1030  -31.9053  -40.0136 H         1 UNK         0.2931 
    111 H111       22.5432  -34.0570  -40.0451 H         1 UNK         0.0412 
    112 H112       20.2544  -33.8177  -38.1786 H         1 UNK         0.3472 
    113 H113       19.6267  -35.4470  -38.1268 H         1 UNK         0.3472 
    114 H114       22.0603  -35.1444  -42.2117 H         1 UNK         0.0970 
    115 H115       22.6301  -33.5197  -42.3399 H         1 UNK         0.0970 
    116 H116       21.1288  -31.4442  -42.7866 H         1 UNK         0.0612 
    117 H117       21.7001  -32.1246  -44.2872 H         1 UNK         0.0612 
@<TRIPOS>BOND
     1    1    2 1    
     2    1   62 1    
     3    1   63 1    
     4    1   64 1    
     5    2    3 2    
     6    2    4 am   BACKBONE|DICT|INTERRES
     7    4    5 1    
     8    4   65 1    
     9    5    6 1    
    10    5   25 1    
    11    5   66 1    
    12    6    7 1    
    13    6   67 1    
    14    6   68 1    
    15    7    8 1    
    16    8    9 1    
    17    8   69 1    
    18    8   70 1    
    19    9   10 ar   
    20    9   14 ar   
    21   10   11 ar   
    22   10   71 1    
    23   11   12 ar   
    24   11   61 1    
    25   12   13 ar   
    26   12   72 1    
    27   13   14 ar   
    28   13   15 1    
    29   14   73 1    
    30   15   16 1    
    31   15   74 1    
    32   15   75 1    
    33   16   17 1    
    34   17   18 1    
    35   17   76 1    
    36   17   77 1    
    37   18   19 1    
    38   18   27 1    
    39   18   78 1    
    40   19   20 am   BACKBONE|DICT|INTERRES
    41   19   79 1    
    42   20   21 2    
    43   20   22 1    
    44   22   23 1    
    45   22   24 1    
    46   22   80 1    
    47   23   81 1    
    48   23   82 1    
    49   23   83 1    
    50   24   25 am   BACKBONE|DICT|INTERRES
    51   24   84 1    
    52   25   26 2    
    53   27   28 2    
    54   27   29 am   BACKBONE|DICT|INTERRES
    55   29   30 1    
    56   29   85 1    
    57   30   31 1    
    58   30   32 1    
    59   30   86 1    
    60   31   87 1    
    61   31   88 1    
    62   31   89 1    
    63   32   33 2    
    64   32   34 am   BACKBONE|DICT|INTERRES
    65   34   35 1    
    66   34   90 1    
    67   35   36 1    
    68   35   37 1    
    69   35   91 1    
    70   36   92 1    
    71   36   93 1    
    72   36   94 1    
    73   37   38 2    
    74   37   39 am   BACKBONE|DICT|INTERRES
    75   39   40 1    
    76   39   95 1    
    77   40   41 1    
    78   40   42 1    
    79   40   96 1    
    80   41   97 1    
    81   41   98 1    
    82   41   99 1    
    83   42   43 2    
    84   42   44 am   BACKBONE|DICT|INTERRES
    85   44   45 1    
    86   44  100 1    
    87   45   46 1    
    88   45   47 1    
    89   45  101 1    
    90   46  102 1    
    91   46  103 1    
    92   46  104 1    
    93   47   48 2    
    94   47   49 am   BACKBONE|DICT|INTERRES
    95   49   50 1    
    96   49  105 1    
    97   50   51 1    
    98   50   52 1    
    99   50  106 1    
   100   51  107 1    
   101   51  108 1    
   102   51  109 1    
   103   52   53 2    
   104   52   54 am   BACKBONE|DICT|INTERRES
   105   54   55 1    
   106   54  110 1    
   107   55   56 1    
   108   55   59 1    
   109   55  111 1    
   110   56   57 am   BACKBONE|DICT|INTERRES
   111   56   58 2    
   112   57  112 1    
   113   57  113 1    
   114   59   60 1    
   115   59  114 1    
   116   59  115 1    
   117   60   61 1    
   118   61  116 1    
   119   61  117 1    
@<TRIPOS>SUBSTRUCTURE
     1 UNK         1 GROUP             0       ****    0 ROOT    
