@<TRIPOS>MOLECULE
3R8
117   119    1
SMALL
USER_CHARGES


@<TRIPOS>ATOM
      1 CA         16.5270  -23.2289  -48.2300 C.3       0 UNK        -0.2013 
      2 C          17.3157  -24.1685  -47.3296 C.2       0 UNK         0.4866 
      3 O          16.8423  -24.5103  -46.2452 O.2       0 UNK        -0.5176 
      4 N          18.5074  -24.5898  -47.7793 N.am      1 UNK        -0.4884 
      5 CA         19.4613  -25.4513  -47.0642 C.3       1 UNK         0.0853 
      6 C6         18.8374  -26.8190  -46.6478 C.3       10 UNK        -0.0849 
      7 S7         20.0443  -28.1894  -46.5983 S.3       10 UNK        -0.2776 
      8 C8         18.9412  -29.6390  -46.5702 C.3       10 UNK         0.0316 
      9 C9         18.4105  -29.9321  -45.1728 C.ar      10 UNK        -0.0863 
     10 C10        19.0407  -30.8883  -44.3697 C.ar      10 UNK        -0.1009 
     11 C11        18.5364  -31.2064  -43.1017 C.ar      10 UNK        -0.0712 
     12 C12        17.4062  -30.5314  -42.6347 C.ar      10 UNK        -0.0894 
     13 C13        16.7857  -29.5495  -43.4124 C.ar      10 UNK        -0.0745 
     14 C14        17.2792  -29.2683  -44.6895 C.ar      10 UNK        -0.0972 
     15 C15        15.6055  -28.7705  -42.8517 C.3       10 UNK         0.0209 
     16 S16        16.0706  -27.8381  -41.3553 S.3       10 UNK        -0.2568 
     17 C17        17.2740  -26.6285  -42.0105 C.3       10 UNK        -0.0983 
     18 CA         18.7545  -27.0991  -41.9817 C.3       3 UNK         0.0876 
     19 N          19.6089  -26.1268  -42.6698 N.am      3 UNK        -0.4424 
     20 C          20.9412  -26.1484  -42.8257 C.2       2 UNK         0.4918 
     21 O          21.7059  -26.9650  -42.3057 O.2       2 UNK        -0.4875 
     22 CA         21.4842  -25.1129  -43.8176 C.3       2 UNK         0.0481 
     23 CB         23.0195  -25.0987  -43.8949 C.3       2 UNK        -0.1831 
     24 N          20.9362  -25.4746  -45.1200 N.am      2 UNK        -0.4498 
     25 C          20.1352  -24.7203  -45.8769 C.2       1 UNK         0.5027 
     26 O          19.9225  -23.5240  -45.6610 O.2       1 UNK        -0.4969 
     27 C          19.2632  -27.4423  -40.5661 C.2       3 UNK         0.5005 
     28 O          19.0567  -26.6633  -39.6332 O.2       3 UNK        -0.5279 
     29 N          19.9685  -28.5814  -40.4683 N.am      4 UNK        -0.4463 
     30 CA         20.6521  -29.1251  -39.2867 C.3       4 UNK         0.0283 
     31 CB         19.6275  -29.5471  -38.2137 C.3       4 UNK        -0.1875 
     32 C          21.7677  -28.2213  -38.7139 C.2       4 UNK         0.4949 
     33 O          22.2036  -28.4447  -37.5838 O.2       4 UNK        -0.5039 
     34 N          22.2215  -27.2340  -39.4964 N.am      5 UNK        -0.4663 
     35 CA         23.2692  -26.2780  -39.1366 C.3       5 UNK         0.0242 
     36 CB         22.7976  -24.8564  -39.4848 C.3       5 UNK        -0.1982 
     37 C          24.5846  -26.5982  -39.8577 C.2       5 UNK         0.5017 
     38 O          25.6490  -26.4446  -39.2579 O.2       5 UNK        -0.5012 
     39 N          24.4947  -27.0507  -41.1151 N.am      6 UNK        -0.4439 
     40 CA         25.6287  -27.4755  -41.9346 C.3       6 UNK         0.0297 
     41 CB         26.3393  -26.2630  -42.5710 C.3       6 UNK        -0.2006 
     42 C          25.1451  -28.5134  -42.9548 C.2       6 UNK         0.4892 
     43 O          25.3264  -28.3370  -44.1606 O.2       6 UNK        -0.5089 
     44 N          24.5193  -29.5740  -42.4375 N.am      7 UNK        -0.4243 
     45 CA         24.0482  -30.7356  -43.1811 C.3       7 UNK         0.0196 
     46 CB         22.5425  -30.5895  -43.4582 C.3       7 UNK        -0.2007 
     47 C          24.3305  -31.9759  -42.3289 C.2       7 UNK         0.5020 
     48 O          24.3249  -31.8776  -41.0989 O.2       7 UNK        -0.5147 
     49 N          24.5428  -33.1257  -42.9829 N.am      8 UNK        -0.4734 
     50 CA         24.8583  -34.4085  -42.3349 C.3       8 UNK         0.0238 
     51 CB         25.1978  -35.4534  -43.4103 C.3       8 UNK        -0.1912 
     52 C          23.7465  -34.9325  -41.4071 C.2       8 UNK         0.5038 
     53 O          24.0458  -35.6115  -40.4243 O.2       8 UNK        -0.5046 
     54 N          22.4962  -34.5854  -41.7296 N.am      9 UNK        -0.4200 
     55 CA         21.3027  -34.8061  -40.9039 C.3       9 UNK         0.0839 
     56 C          21.1355  -33.8090  -39.7179 C.2       9 UNK         0.5513 
     57 N          21.9959  -32.8130  -39.5401 N.am      9 UNK        -0.7519 
     58 O          20.2065  -33.9527  -38.9279 O.2       9 UNK        -0.4960 
     59 C59        20.0187  -34.9260  -41.7724 C.3       10 UNK        -0.0876 
     60 S60        19.8589  -33.6850  -43.1061 S.3       10 UNK        -0.2414 
     61 C61        19.1991  -32.2474  -42.2018 C.3       10 UNK         0.0169 
     62 H62        17.0502  -23.0210  -49.1632 H         1 UNK         0.0903 
     63 H63        15.5599  -23.6675  -48.4742 H         1 UNK         0.0903 
     64 H64        16.3528  -22.2814  -47.7208 H         1 UNK         0.0903 
     65 H65        18.8379  -24.2422  -48.6694 H         1 UNK         0.3096 
     66 H66        20.2579  -25.6441  -47.7852 H         1 UNK         0.1121 
     67 H67        18.3313  -26.7437  -45.6836 H         1 UNK         0.0849 
     68 H68        18.0649  -27.0996  -47.3657 H         1 UNK         0.0849 
     69 H69        18.1137  -29.4972  -47.2671 H         1 UNK         0.0865 
     70 H70        19.4962  -30.5016  -46.9425 H         1 UNK         0.0865 
     71 H71        19.9177  -31.3960  -44.7443 H         1 UNK         0.1346 
     72 H72        17.0187  -30.7488  -41.6483 H         1 UNK         0.1412 
     73 H73        16.7909  -28.5233  -45.3024 H         1 UNK         0.1426 
     74 H74        14.8049  -29.4677  -42.6011 H         1 UNK         0.0716 
     75 H75        15.1964  -28.0825  -43.5933 H         1 UNK         0.0716 
     76 H76        17.1631  -25.7051  -41.4389 H         1 UNK         0.0695 
     77 H77        16.9822  -26.3798  -43.0325 H         1 UNK         0.0695 
     78 H78        18.8229  -28.0066  -42.5812 H         1 UNK         0.0983 
     79 H79        19.1102  -25.3875  -43.1423 H         1 UNK         0.3095 
     80 H80        21.1403  -24.1268  -43.4988 H         1 UNK         0.0454 
     81 H81        23.4190  -26.0692  -44.1920 H         1 UNK         0.0851 
     82 H82        23.4539  -24.8411  -42.9288 H         1 UNK         0.0851 
     83 H83        23.3710  -24.3600  -44.6149 H         1 UNK         0.0851 
     84 H84        21.0258  -26.4523  -45.3736 H         1 UNK         0.2976 
     85 H85        20.1160  -29.1046  -41.3201 H         1 UNK         0.3116 
     86 H86        21.1566  -30.0288  -39.6305 H         1 UNK         0.0646 
     87 H87        19.1147  -28.6859  -37.7844 H         1 UNK         0.0847 
     88 H88        20.1117  -30.0787  -37.3938 H         1 UNK         0.0847 
     89 H89        18.8729  -30.2159  -38.6278 H         1 UNK         0.0847 
     90 H90        21.8256  -27.1462  -40.4277 H         1 UNK         0.3040 
     91 H91        23.4629  -26.3164  -38.0621 H         1 UNK         0.1015 
     92 H92        21.8834  -24.6027  -38.9476 H         1 UNK         0.0786 
     93 H93        22.6001  -24.7409  -40.5506 H         1 UNK         0.0786 
     94 H94        23.5513  -24.1172  -39.2101 H         1 UNK         0.0786 
     95 H95        23.5775  -27.1529  -41.5406 H         1 UNK         0.3172 
     96 H96        26.3506  -27.9895  -41.2960 H         1 UNK         0.0595 
     97 H97        25.6891  -25.7188  -43.2537 H         1 UNK         0.0839 
     98 H98        27.2113  -26.5826  -43.1427 H         1 UNK         0.0839 
     99 H99        26.6914  -25.5628  -41.8136 H         1 UNK         0.0839 
    100 H100       24.4669  -29.6776  -41.4315 H         1 UNK         0.2998 
    101 H101       24.5913  -30.8254  -44.1246 H         1 UNK         0.0822 
    102 H102       22.3328  -29.7035  -44.0584 H         1 UNK         0.0787 
    103 H103       22.1634  -31.4522  -44.0062 H         1 UNK         0.0787 
    104 H104       21.9694  -30.5074  -42.5342 H         1 UNK         0.0787 
    105 H105       24.5194  -33.1233  -43.9934 H         1 UNK         0.3055 
    106 H106       25.7440  -34.2552  -41.7139 H         1 UNK         0.1106 
    107 H107       25.4587  -36.4104  -42.9559 H         1 UNK         0.0828 
    108 H108       24.3570  -35.6309  -44.0821 H         1 UNK         0.0828 
    109 H109       26.0510  -35.1416  -44.0130 H         1 UNK         0.0828 
    110 H110       22.3517  -34.0245  -42.5561 H         1 UNK         0.2931 
    111 H111       21.4299  -35.7766  -40.4202 H         1 UNK         0.0412 
    112 H112       22.7889  -32.6746  -40.1571 H         1 UNK         0.3472 
    113 H113       21.8736  -32.2067  -38.7460 H         1 UNK         0.3472 
    114 H114       19.1147  -34.9296  -41.1603 H         1 UNK         0.0970 
    115 H115       20.0258  -35.9014  -42.2611 H         1 UNK         0.0970 
    116 H116       20.0090  -31.7712  -41.6488 H         1 UNK         0.0612 
    117 H117       18.4825  -32.6041  -41.4603 H         1 UNK         0.0612 
@<TRIPOS>BOND
     1    1    2 1    
     2    1   62 1    
     3    1   63 1    
     4    1   64 1    
     5    2    3 2    
     6    2    4 am   BACKBONE|DICT|INTERRES
     7    4    5 1    
     8    4   65 1    
     9    5    6 1    
    10    5   25 1    
    11    5   66 1    
    12    6    7 1    
    13    6   67 1    
    14    6   68 1    
    15    7    8 1    
    16    8    9 1    
    17    8   69 1    
    18    8   70 1    
    19    9   10 ar   
    20    9   14 ar   
    21   10   11 ar   
    22   10   71 1    
    23   11   12 ar   
    24   11   61 1    
    25   12   13 ar   
    26   12   72 1    
    27   13   14 ar   
    28   13   15 1    
    29   14   73 1    
    30   15   16 1    
    31   15   74 1    
    32   15   75 1    
    33   16   17 1    
    34   17   18 1    
    35   17   76 1    
    36   17   77 1    
    37   18   19 1    
    38   18   27 1    
    39   18   78 1    
    40   19   20 am   BACKBONE|DICT|INTERRES
    41   19   79 1    
    42   20   21 2    
    43   20   22 1    
    44   22   23 1    
    45   22   24 1    
    46   22   80 1    
    47   23   81 1    
    48   23   82 1    
    49   23   83 1    
    50   24   25 am   BACKBONE|DICT|INTERRES
    51   24   84 1    
    52   25   26 2    
    53   27   28 2    
    54   27   29 am   BACKBONE|DICT|INTERRES
    55   29   30 1    
    56   29   85 1    
    57   30   31 1    
    58   30   32 1    
    59   30   86 1    
    60   31   87 1    
    61   31   88 1    
    62   31   89 1    
    63   32   33 2    
    64   32   34 am   BACKBONE|DICT|INTERRES
    65   34   35 1    
    66   34   90 1    
    67   35   36 1    
    68   35   37 1    
    69   35   91 1    
    70   36   92 1    
    71   36   93 1    
    72   36   94 1    
    73   37   38 2    
    74   37   39 am   BACKBONE|DICT|INTERRES
    75   39   40 1    
    76   39   95 1    
    77   40   41 1    
    78   40   42 1    
    79   40   96 1    
    80   41   97 1    
    81   41   98 1    
    82   41   99 1    
    83   42   43 2    
    84   42   44 am   BACKBONE|DICT|INTERRES
    85   44   45 1    
    86   44  100 1    
    87   45   46 1    
    88   45   47 1    
    89   45  101 1    
    90   46  102 1    
    91   46  103 1    
    92   46  104 1    
    93   47   48 2    
    94   47   49 am   BACKBONE|DICT|INTERRES
    95   49   50 1    
    96   49  105 1    
    97   50   51 1    
    98   50   52 1    
    99   50  106 1    
   100   51  107 1    
   101   51  108 1    
   102   51  109 1    
   103   52   53 2    
   104   52   54 am   BACKBONE|DICT|INTERRES
   105   54   55 1    
   106   54  110 1    
   107   55   56 1    
   108   55   59 1    
   109   55  111 1    
   110   56   57 am   BACKBONE|DICT|INTERRES
   111   56   58 2    
   112   57  112 1    
   113   57  113 1    
   114   59   60 1    
   115   59  114 1    
   116   59  115 1    
   117   60   61 1    
   118   61  116 1    
   119   61  117 1    
@<TRIPOS>SUBSTRUCTURE
     1 UNK         1 GROUP             0       ****    0 ROOT    
