@<TRIPOS>MOLECULE
3R8
117   119    1
SMALL
USER_CHARGES


@<TRIPOS>ATOM
      1 CA         14.9087  -23.3060  -42.5397 C.3       0 UNK        -0.2013 
      2 C          16.1110  -24.2123  -42.3209 C.2       0 UNK         0.4866 
      3 O          16.7493  -24.1320  -41.2714 O.2       0 UNK        -0.5176 
      4 N          16.4202  -25.0665  -43.3074 N.am      1 UNK        -0.4884 
      5 CA         17.5246  -26.0403  -43.3102 C.3       1 UNK         0.0853 
      6 C6         17.3335  -27.1886  -42.2789 C.3       10 UNK        -0.0849 
      7 S7         15.9523  -28.2884  -42.7464 S.3       10 UNK        -0.2776 
      8 C8         16.6295  -29.9489  -42.3685 C.3       10 UNK         0.0316 
      9 C9         17.7422  -30.4729  -43.2852 C.ar      10 UNK        -0.0863 
     10 C10        18.1613  -31.7985  -43.1243 C.ar      10 UNK        -0.1009 
     11 C11        19.1897  -32.3286  -43.9106 C.ar      10 UNK        -0.0712 
     12 C12        19.8251  -31.5161  -44.8536 C.ar      10 UNK        -0.0894 
     13 C13        19.4319  -30.1867  -45.0163 C.ar      10 UNK        -0.0745 
     14 C14        18.3769  -29.6834  -44.2531 C.ar      10 UNK        -0.0972 
     15 C15        20.1628  -29.2735  -45.9862 C.3       10 UNK         0.0209 
     16 S16        21.4084  -28.2881  -45.1011 S.3       10 UNK        -0.2568 
     17 C17        21.9759  -27.1727  -46.4313 C.3       10 UNK        -0.0983 
     18 CA         22.7808  -25.9410  -45.9262 C.3       3 UNK         0.0876 
     19 N          22.0163  -25.1064  -45.0035 N.am      3 UNK        -0.4424 
     20 C          21.0419  -24.2617  -45.3417 C.2       2 UNK         0.4918 
     21 O          20.6737  -24.0627  -46.5011 O.2       2 UNK        -0.4875 
     22 CA         20.3239  -23.5512  -44.1833 C.3       2 UNK         0.0481 
     23 CB         20.0599  -22.0684  -44.4973 C.3       2 UNK        -0.1831 
     24 N          19.0529  -24.2259  -43.9316 N.am      2 UNK        -0.4498 
     25 C          18.9181  -25.3708  -43.2468 C.2       1 UNK         0.5027 
     26 O          19.8396  -25.8970  -42.6198 O.2       1 UNK        -0.4969 
     27 C          24.0971  -26.3378  -45.2361 C.2       3 UNK         0.5005 
     28 O          24.2401  -26.1368  -44.0256 O.2       3 UNK        -0.5279 
     29 N          25.0207  -26.9365  -46.0019 N.am      4 UNK        -0.4463 
     30 CA         26.3252  -27.4209  -45.5299 C.3       4 UNK         0.0283 
     31 CB         27.1465  -27.9161  -46.7314 C.3       4 UNK        -0.1875 
     32 C          26.2479  -28.5158  -44.4472 C.2       4 UNK         0.4949 
     33 O          27.1965  -28.6649  -43.6770 O.2       4 UNK        -0.5039 
     34 N          25.1236  -29.2443  -44.3901 N.am      5 UNK        -0.4663 
     35 CA         24.8259  -30.2308  -43.3485 C.3       5 UNK         0.0242 
     36 CB         23.7522  -31.2012  -43.8652 C.3       5 UNK        -0.1982 
     37 C          24.3826  -29.5989  -42.0149 C.2       5 UNK         0.5017 
     38 O          24.3174  -30.3157  -41.0159 O.2       5 UNK        -0.5012 
     39 N          24.0625  -28.2931  -42.0150 N.am      6 UNK        -0.4439 
     40 CA         23.6683  -27.4707  -40.8621 C.3       6 UNK         0.0297 
     41 CB         24.8900  -27.2172  -39.9542 C.3       6 UNK        -0.2006 
     42 C          22.4548  -28.0153  -40.0793 C.2       6 UNK         0.4892 
     43 O          22.3785  -27.8257  -38.8642 O.2       6 UNK        -0.5089 
     44 N          21.5467  -28.7020  -40.7905 N.am      7 UNK        -0.4243 
     45 CA         20.3477  -29.3890  -40.2927 C.3       7 UNK         0.0196 
     46 CB         19.3873  -28.3854  -39.6171 C.3       7 UNK        -0.2007 
     47 C          20.6314  -30.5914  -39.3663 C.2       7 UNK         0.5020 
     48 O          19.6876  -31.1039  -38.7634 O.2       7 UNK        -0.5147 
     49 N          21.8924  -31.0418  -39.2551 N.am      8 UNK        -0.4734 
     50 CA         22.3208  -32.0922  -38.3183 C.3       8 UNK         0.0238 
     51 CB         23.8549  -32.1827  -38.3179 C.3       8 UNK        -0.1912 
     52 C          21.6997  -33.4720  -38.5968 C.2       8 UNK         0.5038 
     53 O          21.4781  -34.2412  -37.6609 O.2       8 UNK        -0.5046 
     54 N          21.4164  -33.7401  -39.8742 N.am      9 UNK        -0.4200 
     55 CA         20.6682  -34.9015  -40.3718 C.3       9 UNK         0.0839 
     56 C          19.1218  -34.7867  -40.2199 C.2       9 UNK         0.5513 
     57 N          18.5658  -33.6862  -39.7259 N.am      9 UNK        -0.7519 
     58 O          18.4066  -35.7302  -40.5468 O.2       9 UNK        -0.4960 
     59 C59        21.1000  -35.2757  -41.8186 C.3       10 UNK        -0.0876 
     60 S60        21.2632  -33.8395  -42.9357 S.3       10 UNK        -0.2414 
     61 C61        19.6308  -33.7718  -43.7285 C.3       10 UNK         0.0169 
     62 H62        14.4349  -23.4802  -43.5056 H         1 UNK         0.0903 
     63 H63        14.1646  -23.4770  -41.7622 H         1 UNK         0.0903 
     64 H64        15.2138  -22.2608  -42.4953 H         1 UNK         0.0903 
     65 H65        15.8400  -25.0800  -44.1355 H         1 UNK         0.3096 
     66 H66        17.5035  -26.4885  -44.3042 H         1 UNK         0.1121 
     67 H67        18.2347  -27.7976  -42.2065 H         1 UNK         0.0849 
     68 H68        17.1573  -26.7948  -41.2772 H         1 UNK         0.0849 
     69 H69        16.9911  -29.9527  -41.3392 H         1 UNK         0.0865 
     70 H70        15.7984  -30.6550  -42.3995 H         1 UNK         0.0865 
     71 H71        17.6868  -32.4219  -42.3781 H         1 UNK         0.1346 
     72 H72        20.6412  -31.9142  -45.4412 H         1 UNK         0.1412 
     73 H73        18.0835  -28.6600  -44.4112 H         1 UNK         0.1426 
     74 H74        19.4506  -28.6104  -46.4796 H         1 UNK         0.0716 
     75 H75        20.6484  -29.8540  -46.7722 H         1 UNK         0.0716 
     76 H76        22.5617  -27.7543  -47.1448 H         1 UNK         0.0695 
     77 H77        21.1023  -26.8272  -46.9860 H         1 UNK         0.0695 
     78 H78        23.0524  -25.3249  -46.7865 H         1 UNK         0.0983 
     79 H79        22.2813  -25.2232  -44.0331 H         1 UNK         0.3095 
     80 H80        20.9473  -23.5996  -43.2877 H         1 UNK         0.0454 
     81 H81        20.9935  -21.5428  -44.7016 H         1 UNK         0.0851 
     82 H82        19.4178  -21.9422  -45.3700 H         1 UNK         0.0851 
     83 H83        19.5827  -21.5652  -43.6562 H         1 UNK         0.0851 
     84 H84        18.2476  -23.8703  -44.4264 H         1 UNK         0.2976 
     85 H85        24.8231  -27.0715  -46.9836 H         1 UNK         0.3116 
     86 H86        26.8482  -26.5703  -45.0876 H         1 UNK         0.0646 
     87 H87        28.1344  -28.2552  -46.4158 H         1 UNK         0.0847 
     88 H88        27.2994  -27.1235  -47.4641 H         1 UNK         0.0847 
     89 H89        26.6618  -28.7533  -47.2353 H         1 UNK         0.0847 
     90 H90        24.3944  -29.0584  -45.0639 H         1 UNK         0.3040 
     91 H91        25.7324  -30.8054  -43.1450 H         1 UNK         0.1015 
     92 H92        24.0530  -31.6711  -44.8016 H         1 UNK         0.0786 
     93 H93        22.7952  -30.7052  -44.0277 H         1 UNK         0.0786 
     94 H94        23.5831  -32.0017  -43.1445 H         1 UNK         0.0786 
     95 H95        24.1478  -27.7796  -42.8877 H         1 UNK         0.3172 
     96 H96        23.3542  -26.5095  -41.2714 H         1 UNK         0.0595 
     97 H97        25.7272  -26.8102  -40.5214 H         1 UNK         0.0839 
     98 H98        25.2272  -28.1336  -39.4685 H         1 UNK         0.0839 
     99 H99        24.6545  -26.4988  -39.1680 H         1 UNK         0.0839 
    100 H100       21.7146  -28.7894  -41.7835 H         1 UNK         0.2998 
    101 H101       19.8484  -29.7906  -41.1759 H         1 UNK         0.0822 
    102 H102       19.3150  -27.4549  -40.1787 H         1 UNK         0.0787 
    103 H103       18.3830  -28.8015  -39.5321 H         1 UNK         0.0787 
    104 H104       19.7163  -28.1303  -38.6091 H         1 UNK         0.0787 
    105 H105       22.6232  -30.5950  -39.8003 H         1 UNK         0.3055 
    106 H106       21.9966  -31.7912  -37.3196 H         1 UNK         0.1106 
    107 H107       24.2034  -32.9155  -37.5888 H         1 UNK         0.0828 
    108 H108       24.2410  -32.4830  -39.2928 H         1 UNK         0.0828 
    109 H109       24.3094  -31.2260  -38.0592 H         1 UNK         0.0828 
    110 H110       21.6308  -33.0384  -40.5679 H         1 UNK         0.2931 
    111 H111       20.9413  -35.7506  -39.7423 H         1 UNK         0.0412 
    112 H112       17.5642  -33.6510  -39.6261 H         1 UNK         0.3472 
    113 H113       19.1252  -32.8975  -39.4199 H         1 UNK         0.3472 
    114 H114       20.4419  -36.0260  -42.2612 H         1 UNK         0.0970 
    115 H115       22.0809  -35.7514  -41.7762 H         1 UNK         0.0970 
    116 H116       18.8973  -34.3202  -43.1365 H         1 UNK         0.0612 
    117 H117       19.6807  -34.2704  -44.6974 H         1 UNK         0.0612 
@<TRIPOS>BOND
     1    1    2 1    
     2    1   62 1    
     3    1   63 1    
     4    1   64 1    
     5    2    3 2    
     6    2    4 am   BACKBONE|DICT|INTERRES
     7    4    5 1    
     8    4   65 1    
     9    5    6 1    
    10    5   25 1    
    11    5   66 1    
    12    6    7 1    
    13    6   67 1    
    14    6   68 1    
    15    7    8 1    
    16    8    9 1    
    17    8   69 1    
    18    8   70 1    
    19    9   10 ar   
    20    9   14 ar   
    21   10   11 ar   
    22   10   71 1    
    23   11   12 ar   
    24   11   61 1    
    25   12   13 ar   
    26   12   72 1    
    27   13   14 ar   
    28   13   15 1    
    29   14   73 1    
    30   15   16 1    
    31   15   74 1    
    32   15   75 1    
    33   16   17 1    
    34   17   18 1    
    35   17   76 1    
    36   17   77 1    
    37   18   19 1    
    38   18   27 1    
    39   18   78 1    
    40   19   20 am   BACKBONE|DICT|INTERRES
    41   19   79 1    
    42   20   21 2    
    43   20   22 1    
    44   22   23 1    
    45   22   24 1    
    46   22   80 1    
    47   23   81 1    
    48   23   82 1    
    49   23   83 1    
    50   24   25 am   BACKBONE|DICT|INTERRES
    51   24   84 1    
    52   25   26 2    
    53   27   28 2    
    54   27   29 am   BACKBONE|DICT|INTERRES
    55   29   30 1    
    56   29   85 1    
    57   30   31 1    
    58   30   32 1    
    59   30   86 1    
    60   31   87 1    
    61   31   88 1    
    62   31   89 1    
    63   32   33 2    
    64   32   34 am   BACKBONE|DICT|INTERRES
    65   34   35 1    
    66   34   90 1    
    67   35   36 1    
    68   35   37 1    
    69   35   91 1    
    70   36   92 1    
    71   36   93 1    
    72   36   94 1    
    73   37   38 2    
    74   37   39 am   BACKBONE|DICT|INTERRES
    75   39   40 1    
    76   39   95 1    
    77   40   41 1    
    78   40   42 1    
    79   40   96 1    
    80   41   97 1    
    81   41   98 1    
    82   41   99 1    
    83   42   43 2    
    84   42   44 am   BACKBONE|DICT|INTERRES
    85   44   45 1    
    86   44  100 1    
    87   45   46 1    
    88   45   47 1    
    89   45  101 1    
    90   46  102 1    
    91   46  103 1    
    92   46  104 1    
    93   47   48 2    
    94   47   49 am   BACKBONE|DICT|INTERRES
    95   49   50 1    
    96   49  105 1    
    97   50   51 1    
    98   50   52 1    
    99   50  106 1    
   100   51  107 1    
   101   51  108 1    
   102   51  109 1    
   103   52   53 2    
   104   52   54 am   BACKBONE|DICT|INTERRES
   105   54   55 1    
   106   54  110 1    
   107   55   56 1    
   108   55   59 1    
   109   55  111 1    
   110   56   57 am   BACKBONE|DICT|INTERRES
   111   56   58 2    
   112   57  112 1    
   113   57  113 1    
   114   59   60 1    
   115   59  114 1    
   116   59  115 1    
   117   60   61 1    
   118   61  116 1    
   119   61  117 1    
@<TRIPOS>SUBSTRUCTURE
     1 UNK         1 GROUP             0       ****    0 ROOT    
