@<TRIPOS>MOLECULE
3R8
117   119    1
SMALL
USER_CHARGES


@<TRIPOS>ATOM
      1 CA         18.9219  -23.0543  -45.3816 C.3       0 UNK        -0.2013 
      2 C          18.6283  -24.5410  -45.2559 C.2       0 UNK         0.4866 
      3 O          18.7255  -25.0926  -44.1598 O.2       0 UNK        -0.5176 
      4 N          18.2987  -25.2038  -46.3757 N.am      1 UNK        -0.4884 
      5 CA         17.9028  -26.6219  -46.4763 C.3       1 UNK         0.0853 
      6 C6         16.5936  -26.9074  -45.6794 C.3       10 UNK        -0.0849 
      7 S7         15.5488  -28.2020  -46.4318 S.3       10 UNK        -0.2776 
      8 C8         14.8297  -29.0157  -44.9631 C.3       10 UNK         0.0316 
      9 C9         15.8650  -29.7602  -44.1272 C.ar      10 UNK        -0.0863 
     10 C10        16.5559  -30.8489  -44.6694 C.ar      10 UNK        -0.1009 
     11 C11        17.5122  -31.5316  -43.9130 C.ar      10 UNK        -0.0712 
     12 C12        17.7657  -31.1245  -42.6012 C.ar      10 UNK        -0.0894 
     13 C13        17.0817  -30.0427  -42.0386 C.ar      10 UNK        -0.0745 
     14 C14        16.1200  -29.3735  -42.8061 C.ar      10 UNK        -0.0972 
     15 C15        17.3758  -29.6563  -40.5889 C.3       10 UNK         0.0209 
     16 S16        17.3785  -27.8625  -40.2264 S.3       10 UNK        -0.2568 
     17 C17        18.3749  -27.1070  -41.5583 C.3       10 UNK        -0.0983 
     18 CA         19.8036  -27.6793  -41.7505 C.3       3 UNK         0.0876 
     19 N          20.2274  -27.4720  -43.1324 N.am      3 UNK        -0.4424 
     20 C          21.0967  -28.2315  -43.8099 C.2       2 UNK         0.4918 
     21 O          21.6645  -29.2129  -43.3280 O.2       2 UNK        -0.4875 
     22 CA         21.3985  -27.7970  -45.2626 C.3       2 UNK         0.0481 
     23 CB         21.9439  -28.9453  -46.1360 C.3       2 UNK        -0.1831 
     24 N          20.2614  -27.1155  -45.8972 N.am      2 UNK        -0.4498 
     25 C          19.0388  -27.6216  -46.1313 C.2       1 UNK         0.5027 
     26 O          18.7875  -28.8217  -46.0684 O.2       1 UNK        -0.4969 
     27 C          20.8137  -27.0621  -40.7583 C.2       3 UNK         0.5005 
     28 O          21.6863  -26.2832  -41.1559 O.2       3 UNK        -0.5279 
     29 N          20.6465  -27.4008  -39.4707 N.am      4 UNK        -0.4463 
     30 CA         21.3438  -26.8465  -38.3040 C.3       4 UNK         0.0283 
     31 CB         20.8146  -25.4249  -38.0049 C.3       4 UNK        -0.1875 
     32 C          22.8778  -26.9310  -38.4258 C.2       4 UNK         0.4949 
     33 O          23.4184  -28.0374  -38.4203 O.2       4 UNK        -0.5039 
     34 N          23.5478  -25.7762  -38.5507 N.am      5 UNK        -0.4663 
     35 CA         25.0043  -25.6250  -38.6493 C.3       5 UNK         0.0242 
     36 CB         25.3516  -24.1275  -38.6476 C.3       5 UNK        -0.1982 
     37 C          25.6482  -26.3236  -39.8614 C.2       5 UNK         0.5017 
     38 O          26.8432  -26.6158  -39.8129 O.2       5 UNK        -0.5012 
     39 N          24.8557  -26.6095  -40.9046 N.am      6 UNK        -0.4439 
     40 CA         25.2625  -27.4037  -42.0684 C.3       6 UNK         0.0297 
     41 CB         24.4648  -26.9375  -43.2949 C.3       6 UNK        -0.2006 
     42 C          25.1717  -28.9304  -41.8386 C.2       6 UNK         0.4892 
     43 O          25.3837  -29.6892  -42.7848 O.2       6 UNK        -0.5089 
     44 N          24.9041  -29.3525  -40.5922 N.am      7 UNK        -0.4243 
     45 CA         24.9386  -30.7255  -40.0762 C.3       7 UNK         0.0196 
     46 CB         26.3346  -31.3625  -40.2550 C.3       7 UNK        -0.2007 
     47 C          23.7936  -31.6167  -40.5861 C.2       7 UNK         0.5020 
     48 O          23.9900  -32.8212  -40.7534 O.2       7 UNK        -0.5147 
     49 N          22.6114  -31.0145  -40.7855 N.am      8 UNK        -0.4734 
     50 CA         21.3272  -31.6564  -41.1065 C.3       8 UNK         0.0238 
     51 CB         20.7436  -32.3228  -39.8433 C.3       8 UNK        -0.1912 
     52 C          21.4000  -32.6163  -42.3103 C.2       8 UNK         0.5038 
     53 O          21.0222  -33.7840  -42.1967 O.2       8 UNK        -0.5046 
     54 N          21.9145  -32.0954  -43.4288 N.am      9 UNK        -0.4200 
     55 CA         22.1764  -32.8074  -44.6914 C.3       9 UNK         0.0839 
     56 C          23.3356  -33.8492  -44.6313 C.2       9 UNK         0.5513 
     57 N          24.0864  -33.9703  -43.5427 N.am      9 UNK        -0.7519 
     58 O          23.5857  -34.5453  -45.6123 O.2       9 UNK        -0.4960 
     59 C59        20.8961  -33.3984  -45.3556 C.3       10 UNK        -0.0876 
     60 S60        19.5934  -32.1475  -45.6207 S.3       10 UNK        -0.2414 
     61 C61        18.2704  -32.7107  -44.5050 C.3       10 UNK         0.0169 
     62 H62        19.9374  -22.8428  -45.0480 H         1 UNK         0.0903 
     63 H63        18.8206  -22.7024  -46.4080 H         1 UNK         0.0903 
     64 H64        18.2335  -22.4843  -44.7582 H         1 UNK         0.0903 
     65 H65        18.2690  -24.6945  -47.2494 H         1 UNK         0.3096 
     66 H66        17.6943  -26.7809  -47.5357 H         1 UNK         0.1121 
     67 H67        15.9767  -26.0085  -45.6352 H         1 UNK         0.0849 
     68 H68        16.8188  -27.1547  -44.6413 H         1 UNK         0.0849 
     69 H69        14.3072  -28.2685  -44.3636 H         1 UNK         0.0865 
     70 H70        14.0696  -29.7252  -45.2930 H         1 UNK         0.0865 
     71 H71        16.3652  -31.1515  -45.6899 H         1 UNK         0.1346 
     72 H72        18.4915  -31.6655  -42.0128 H         1 UNK         0.1412 
     73 H73        15.5753  -28.5446  -42.3754 H         1 UNK         0.1426 
     74 H74        18.3337  -30.0697  -40.2711 H         1 UNK         0.0716 
     75 H75        16.6248  -30.1280  -39.9541 H         1 UNK         0.0716 
     76 H76        18.4071  -26.0275  -41.3963 H         1 UNK         0.0695 
     77 H77        17.8004  -27.2293  -42.4763 H         1 UNK         0.0695 
     78 H78        19.7836  -28.7538  -41.5797 H         1 UNK         0.0983 
     79 H79        19.8322  -26.6539  -43.5859 H         1 UNK         0.3095 
     80 H80        22.1849  -27.0453  -45.1934 H         1 UNK         0.0454 
     81 H81        22.1622  -28.6060  -47.1481 H         1 UNK         0.0851 
     82 H82        21.2389  -29.7726  -46.2041 H         1 UNK         0.0851 
     83 H83        22.8701  -29.3443  -45.7208 H         1 UNK         0.0851 
     84 H84        20.3581  -26.1152  -46.0021 H         1 UNK         0.2976 
     85 H85        19.8990  -28.0449  -39.2510 H         1 UNK         0.3116 
     86 H86        21.0767  -27.4788  -37.4560 H         1 UNK         0.0646 
     87 H87        20.9853  -24.7358  -38.8330 H         1 UNK         0.0847 
     88 H88        21.2847  -25.0047  -37.1146 H         1 UNK         0.0847 
     89 H89        19.7413  -25.4430  -37.8151 H         1 UNK         0.0847 
     90 H90        23.0078  -24.9232  -38.5791 H         1 UNK         0.3040 
     91 H91        25.4394  -26.0791  -37.7562 H         1 UNK         0.1015 
     92 H92        24.9176  -23.6120  -39.5055 H         1 UNK         0.0786 
     93 H93        26.4313  -23.9759  -38.6886 H         1 UNK         0.0786 
     94 H94        24.9932  -23.6366  -37.7425 H         1 UNK         0.0786 
     95 H95        23.8764  -26.3461  -40.8542 H         1 UNK         0.3172 
     96 H96        26.3144  -27.2010  -42.2800 H         1 UNK         0.0595 
     97 H97        23.3990  -26.9285  -43.0858 H         1 UNK         0.0839 
     98 H98        24.6325  -27.5810  -44.1597 H         1 UNK         0.0839 
     99 H99        24.7495  -25.9262  -43.5852 H         1 UNK         0.0839 
    100 H100       24.6675  -28.6512  -39.8975 H         1 UNK         0.2998 
    101 H101       24.7695  -30.6312  -39.0024 H         1 UNK         0.0822 
    102 H102       27.1202  -30.7130  -39.8688 H         1 UNK         0.0787 
    103 H103       26.4042  -32.3081  -39.7160 H         1 UNK         0.0787 
    104 H104       26.5545  -31.5718  -41.3022 H         1 UNK         0.0787 
    105 H105       22.5875  -30.0104  -40.6761 H         1 UNK         0.3055 
    106 H106       20.6475  -30.8597  -41.4029 H         1 UNK         0.1106 
    107 H107       19.7560  -32.7423  -40.0390 H         1 UNK         0.0828 
    108 H108       21.3777  -33.1366  -39.4896 H         1 UNK         0.0828 
    109 H109       20.6346  -31.6056  -39.0298 H         1 UNK         0.0828 
    110 H110       22.1515  -31.1075  -43.4220 H         1 UNK         0.2931 
    111 H111       22.5489  -32.0321  -45.3619 H         1 UNK         0.0412 
    112 H112       23.8916  -33.4345  -42.7042 H         1 UNK         0.3472 
    113 H113       24.8366  -34.6426  -43.5392 H         1 UNK         0.3472 
    114 H114       20.5083  -34.2355  -44.7737 H         1 UNK         0.0970 
    115 H115       21.1391  -33.8125  -46.3357 H         1 UNK         0.0970 
    116 H116       18.6869  -33.3218  -43.7036 H         1 UNK         0.0612 
    117 H117       17.5860  -33.3552  -45.0582 H         1 UNK         0.0612 
@<TRIPOS>BOND
     1    1    2 1    
     2    1   62 1    
     3    1   63 1    
     4    1   64 1    
     5    2    3 2    
     6    2    4 am   BACKBONE|DICT|INTERRES
     7    4    5 1    
     8    4   65 1    
     9    5    6 1    
    10    5   25 1    
    11    5   66 1    
    12    6    7 1    
    13    6   67 1    
    14    6   68 1    
    15    7    8 1    
    16    8    9 1    
    17    8   69 1    
    18    8   70 1    
    19    9   10 ar   
    20    9   14 ar   
    21   10   11 ar   
    22   10   71 1    
    23   11   12 ar   
    24   11   61 1    
    25   12   13 ar   
    26   12   72 1    
    27   13   14 ar   
    28   13   15 1    
    29   14   73 1    
    30   15   16 1    
    31   15   74 1    
    32   15   75 1    
    33   16   17 1    
    34   17   18 1    
    35   17   76 1    
    36   17   77 1    
    37   18   19 1    
    38   18   27 1    
    39   18   78 1    
    40   19   20 am   BACKBONE|DICT|INTERRES
    41   19   79 1    
    42   20   21 2    
    43   20   22 1    
    44   22   23 1    
    45   22   24 1    
    46   22   80 1    
    47   23   81 1    
    48   23   82 1    
    49   23   83 1    
    50   24   25 am   BACKBONE|DICT|INTERRES
    51   24   84 1    
    52   25   26 2    
    53   27   28 2    
    54   27   29 am   BACKBONE|DICT|INTERRES
    55   29   30 1    
    56   29   85 1    
    57   30   31 1    
    58   30   32 1    
    59   30   86 1    
    60   31   87 1    
    61   31   88 1    
    62   31   89 1    
    63   32   33 2    
    64   32   34 am   BACKBONE|DICT|INTERRES
    65   34   35 1    
    66   34   90 1    
    67   35   36 1    
    68   35   37 1    
    69   35   91 1    
    70   36   92 1    
    71   36   93 1    
    72   36   94 1    
    73   37   38 2    
    74   37   39 am   BACKBONE|DICT|INTERRES
    75   39   40 1    
    76   39   95 1    
    77   40   41 1    
    78   40   42 1    
    79   40   96 1    
    80   41   97 1    
    81   41   98 1    
    82   41   99 1    
    83   42   43 2    
    84   42   44 am   BACKBONE|DICT|INTERRES
    85   44   45 1    
    86   44  100 1    
    87   45   46 1    
    88   45   47 1    
    89   45  101 1    
    90   46  102 1    
    91   46  103 1    
    92   46  104 1    
    93   47   48 2    
    94   47   49 am   BACKBONE|DICT|INTERRES
    95   49   50 1    
    96   49  105 1    
    97   50   51 1    
    98   50   52 1    
    99   50  106 1    
   100   51  107 1    
   101   51  108 1    
   102   51  109 1    
   103   52   53 2    
   104   52   54 am   BACKBONE|DICT|INTERRES
   105   54   55 1    
   106   54  110 1    
   107   55   56 1    
   108   55   59 1    
   109   55  111 1    
   110   56   57 am   BACKBONE|DICT|INTERRES
   111   56   58 2    
   112   57  112 1    
   113   57  113 1    
   114   59   60 1    
   115   59  114 1    
   116   59  115 1    
   117   60   61 1    
   118   61  116 1    
   119   61  117 1    
@<TRIPOS>SUBSTRUCTURE
     1 UNK         1 GROUP             0       ****    0 ROOT    
