@<TRIPOS>MOLECULE
3R8
117   119    1
SMALL
USER_CHARGES


@<TRIPOS>ATOM
      1 CA         15.3606  -25.1461  -45.2476 C.3       0 UNK        -0.2013 
      2 C          16.8150  -25.5750  -45.1387 C.2       0 UNK         0.4866 
      3 O          17.2132  -26.1309  -44.1152 O.2       0 UNK        -0.5176 
      4 N          17.6210  -25.3050  -46.1777 N.am      1 UNK        -0.4884 
      5 CA         19.0380  -25.6951  -46.3408 C.3       1 UNK         0.0853 
      6 C6         19.2457  -27.2377  -46.3287 C.3       10 UNK        -0.0849 
      7 S7         18.2787  -28.1324  -47.5944 S.3       10 UNK        -0.2776 
      8 C8         16.9253  -28.8916  -46.6267 C.3       10 UNK         0.0316 
      9 C9         17.4117  -29.7451  -45.4599 C.ar      10 UNK        -0.0863 
     10 C10        18.2572  -30.8345  -45.6883 C.ar      10 UNK        -0.1009 
     11 C11        18.7024  -31.6232  -44.6245 C.ar      10 UNK        -0.0712 
     12 C12        18.2848  -31.3223  -43.3237 C.ar      10 UNK        -0.0894 
     13 C13        17.4235  -30.2490  -43.0811 C.ar      10 UNK        -0.0745 
     14 C14        16.9984  -29.4577  -44.1531 C.ar      10 UNK        -0.0972 
     15 C15        16.9072  -29.9898  -41.6706 C.3       10 UNK         0.0209 
     16 S16        18.2212  -29.4837  -40.5142 S.3       10 UNK        -0.2568 
     17 C17        18.4579  -27.7250  -40.9401 C.3       10 UNK        -0.0983 
     18 CA         19.7350  -27.4775  -41.7822 C.3       3 UNK         0.0876 
     19 N          19.6909  -26.1648  -42.4396 N.am      3 UNK        -0.4424 
     20 C          20.3252  -25.0116  -42.1593 C.2       2 UNK         0.4918 
     21 O          21.0726  -24.8428  -41.1956 O.2       2 UNK        -0.4875 
     22 CA         20.0558  -23.8217  -43.1136 C.3       2 UNK         0.0481 
     23 CB         21.2916  -22.9237  -43.3224 C.3       2 UNK        -0.1831 
     24 N          19.4674  -24.2294  -44.3959 N.am      2 UNK        -0.4498 
     25 C          20.0058  -25.0331  -45.3271 C.2       1 UNK         0.5027 
     26 O          21.2035  -25.3162  -45.3685 O.2       1 UNK        -0.4969 
     27 C          21.0614  -27.7983  -41.0547 C.2       3 UNK         0.5005 
     28 O          22.0042  -28.2758  -41.6894 O.2       3 UNK        -0.5279 
     29 N          21.1187  -27.5167  -39.7447 N.am      4 UNK        -0.4463 
     30 CA         22.2579  -27.7690  -38.8580 C.3       4 UNK         0.0283 
     31 CB         21.8725  -27.3925  -37.4195 C.3       4 UNK        -0.1875 
     32 C          23.5653  -27.0655  -39.2640 C.2       4 UNK         0.4949 
     33 O          24.6359  -27.5794  -38.9424 O.2       4 UNK        -0.5039 
     34 N          23.4829  -25.9458  -39.9983 N.am      5 UNK        -0.4663 
     35 CA         24.6483  -25.2590  -40.5702 C.3       5 UNK         0.0242 
     36 CB         24.2411  -23.8577  -41.0462 C.3       5 UNK        -0.1982 
     37 C          25.3075  -26.0482  -41.7177 C.2       5 UNK         0.5017 
     38 O          26.4935  -25.8475  -41.9788 O.2       5 UNK        -0.5012 
     39 N          24.5453  -26.9508  -42.3514 N.am      6 UNK        -0.4439 
     40 CA         25.0191  -27.9290  -43.3323 C.3       6 UNK         0.0297 
     41 CB         23.9928  -28.0146  -44.4779 C.3       6 UNK        -0.2006 
     42 C          25.2583  -29.3098  -42.6839 C.2       6 UNK         0.4892 
     43 O          25.4117  -30.2908  -43.4112 O.2       6 UNK        -0.5089 
     44 N          25.2707  -29.3643  -41.3407 N.am      7 UNK        -0.4243 
     45 CA         25.3998  -30.5409  -40.4702 C.3       7 UNK         0.0196 
     46 CB         26.7177  -31.3006  -40.7344 C.3       7 UNK        -0.2007 
     47 C          24.1696  -31.4712  -40.4713 C.2       7 UNK         0.5020 
     48 O          24.2600  -32.5741  -39.9291 O.2       7 UNK        -0.5147 
     49 N          23.0419  -31.0106  -41.0365 N.am      8 UNK        -0.4734 
     50 CA         21.7672  -31.7232  -41.1914 C.3       8 UNK         0.0238 
     51 CB         21.0689  -31.8741  -39.8210 C.3       8 UNK        -0.1912 
     52 C          21.9066  -33.0495  -41.9738 C.2       8 UNK         0.5038 
     53 O          22.8104  -33.1813  -42.8025 O.2       8 UNK        -0.5046 
     54 N          20.9877  -33.9902  -41.7383 N.am      9 UNK        -0.4200 
     55 CA         20.9192  -35.3123  -42.3720 C.3       9 UNK         0.0839 
     56 C          20.0036  -36.2609  -41.5538 C.2       9 UNK         0.5513 
     57 N          20.0423  -37.5564  -41.8338 N.am      9 UNK        -0.7519 
     58 O          19.2619  -35.8383  -40.6674 O.2       9 UNK        -0.4960 
     59 C59        20.5508  -35.2585  -43.8858 C.3       10 UNK        -0.0876 
     60 S60        18.9999  -34.3605  -44.2460 S.3       10 UNK        -0.2414 
     61 C61        19.6549  -32.7815  -44.8774 C.3       10 UNK         0.0169 
     62 H62        15.1175  -24.4403  -44.4538 H         1 UNK         0.0903 
     63 H63        15.1451  -24.6708  -46.2043 H         1 UNK         0.0903 
     64 H64        14.7079  -26.0124  -45.1443 H         1 UNK         0.0903 
     65 H65        17.2294  -24.8226  -46.9757 H         1 UNK         0.3096 
     66 H66        19.3446  -25.3254  -47.3208 H         1 UNK         0.1121 
     67 H67        19.0364  -27.6452  -45.3393 H         1 UNK         0.0849 
     68 H68        20.2929  -27.4793  -46.5215 H         1 UNK         0.0849 
     69 H69        16.2498  -28.1100  -46.2811 H         1 UNK         0.0865 
     70 H70        16.3339  -29.5201  -47.2938 H         1 UNK         0.0865 
     71 H71        18.5763  -31.0583  -46.6972 H         1 UNK         0.1346 
     72 H72        18.6165  -31.9372  -42.4984 H         1 UNK         0.1412 
     73 H73        16.3320  -28.6257  -43.9705 H         1 UNK         0.1426 
     74 H74        16.1114  -29.2434  -41.6722 H         1 UNK         0.0716 
     75 H75        16.4548  -30.9084  -41.2943 H         1 UNK         0.0716 
     76 H76        18.4603  -27.1309  -40.0253 H         1 UNK         0.0695 
     77 H77        17.5823  -27.3877  -41.4974 H         1 UNK         0.0695 
     78 H78        19.6963  -28.1854  -42.6126 H         1 UNK         0.0983 
     79 H79        19.0350  -26.1290  -43.2133 H         1 UNK         0.3095 
     80 H80        19.2950  -23.2159  -42.6198 H         1 UNK         0.0454 
     81 H81        21.0674  -22.0910  -43.9885 H         1 UNK         0.0851 
     82 H82        22.1295  -23.4755  -43.7482 H         1 UNK         0.0851 
     83 H83        21.6272  -22.4961  -42.3771 H         1 UNK         0.0851 
     84 H84        18.4715  -24.0736  -44.4755 H         1 UNK         0.2976 
     85 H85        20.3062  -27.0948  -39.3195 H         1 UNK         0.3116 
     86 H86        22.4538  -28.8428  -38.8862 H         1 UNK         0.0646 
     87 H87        21.0119  -27.9660  -37.0746 H         1 UNK         0.0847 
     88 H88        22.6920  -27.5975  -36.7290 H         1 UNK         0.0847 
     89 H89        21.6300  -26.3327  -37.3311 H         1 UNK         0.0847 
     90 H90        22.5658  -25.5882  -40.2585 H         1 UNK         0.3040 
     91 H91        25.3949  -25.1454  -39.7807 H         1 UNK         0.1015 
     92 H92        23.5570  -23.9119  -41.8911 H         1 UNK         0.0786 
     93 H93        25.1126  -23.2875  -41.3704 H         1 UNK         0.0786 
     94 H94        23.7554  -23.2893  -40.2528 H         1 UNK         0.0786 
     95 H95        23.5850  -27.0790  -42.0443 H         1 UNK         0.3172 
     96 H96        25.9706  -27.6022  -43.7559 H         1 UNK         0.0595 
     97 H97        23.0377  -28.4167  -44.1387 H         1 UNK         0.0839 
     98 H98        24.3516  -28.6629  -45.2783 H         1 UNK         0.0839 
     99 H99        23.8036  -27.0348  -44.9171 H         1 UNK         0.0839 
    100 H100       25.1322  -28.4953  -40.8389 H         1 UNK         0.2998 
    101 H101       25.4586  -30.1443  -39.4557 H         1 UNK         0.0822 
    102 H102       26.8947  -32.0541  -39.9659 H         1 UNK         0.0787 
    103 H103       26.7031  -31.8182  -41.6938 H         1 UNK         0.0787 
    104 H104       27.5741  -30.6263  -40.7273 H         1 UNK         0.0787 
    105 H105       23.0604  -30.0824  -41.4452 H         1 UNK         0.3055 
    106 H106       21.1416  -31.0784  -41.8111 H         1 UNK         0.1106 
    107 H107       20.0364  -32.2077  -39.9302 H         1 UNK         0.0828 
    108 H108       21.5846  -32.5887  -39.1785 H         1 UNK         0.0828 
    109 H109       21.0309  -30.9207  -39.2938 H         1 UNK         0.0828 
    110 H110       20.2801  -33.8423  -41.0311 H         1 UNK         0.2931 
    111 H111       21.9208  -35.7394  -42.2907 H         1 UNK         0.0412 
    112 H112       19.4534  -38.1871  -41.3119 H         1 UNK         0.3472 
    113 H113       20.6525  -37.9200  -42.5496 H         1 UNK         0.3472 
    114 H114       20.4610  -36.2662  -44.2942 H         1 UNK         0.0970 
    115 H115       21.3690  -34.8053  -44.4469 H         1 UNK         0.0970 
    116 H116       19.8627  -32.8945  -45.9425 H         1 UNK         0.0612 
    117 H117       20.6067  -32.5437  -44.4062 H         1 UNK         0.0612 
@<TRIPOS>BOND
     1    1    2 1    
     2    1   62 1    
     3    1   63 1    
     4    1   64 1    
     5    2    3 2    
     6    2    4 am   BACKBONE|DICT|INTERRES
     7    4    5 1    
     8    4   65 1    
     9    5    6 1    
    10    5   25 1    
    11    5   66 1    
    12    6    7 1    
    13    6   67 1    
    14    6   68 1    
    15    7    8 1    
    16    8    9 1    
    17    8   69 1    
    18    8   70 1    
    19    9   10 ar   
    20    9   14 ar   
    21   10   11 ar   
    22   10   71 1    
    23   11   12 ar   
    24   11   61 1    
    25   12   13 ar   
    26   12   72 1    
    27   13   14 ar   
    28   13   15 1    
    29   14   73 1    
    30   15   16 1    
    31   15   74 1    
    32   15   75 1    
    33   16   17 1    
    34   17   18 1    
    35   17   76 1    
    36   17   77 1    
    37   18   19 1    
    38   18   27 1    
    39   18   78 1    
    40   19   20 am   BACKBONE|DICT|INTERRES
    41   19   79 1    
    42   20   21 2    
    43   20   22 1    
    44   22   23 1    
    45   22   24 1    
    46   22   80 1    
    47   23   81 1    
    48   23   82 1    
    49   23   83 1    
    50   24   25 am   BACKBONE|DICT|INTERRES
    51   24   84 1    
    52   25   26 2    
    53   27   28 2    
    54   27   29 am   BACKBONE|DICT|INTERRES
    55   29   30 1    
    56   29   85 1    
    57   30   31 1    
    58   30   32 1    
    59   30   86 1    
    60   31   87 1    
    61   31   88 1    
    62   31   89 1    
    63   32   33 2    
    64   32   34 am   BACKBONE|DICT|INTERRES
    65   34   35 1    
    66   34   90 1    
    67   35   36 1    
    68   35   37 1    
    69   35   91 1    
    70   36   92 1    
    71   36   93 1    
    72   36   94 1    
    73   37   38 2    
    74   37   39 am   BACKBONE|DICT|INTERRES
    75   39   40 1    
    76   39   95 1    
    77   40   41 1    
    78   40   42 1    
    79   40   96 1    
    80   41   97 1    
    81   41   98 1    
    82   41   99 1    
    83   42   43 2    
    84   42   44 am   BACKBONE|DICT|INTERRES
    85   44   45 1    
    86   44  100 1    
    87   45   46 1    
    88   45   47 1    
    89   45  101 1    
    90   46  102 1    
    91   46  103 1    
    92   46  104 1    
    93   47   48 2    
    94   47   49 am   BACKBONE|DICT|INTERRES
    95   49   50 1    
    96   49  105 1    
    97   50   51 1    
    98   50   52 1    
    99   50  106 1    
   100   51  107 1    
   101   51  108 1    
   102   51  109 1    
   103   52   53 2    
   104   52   54 am   BACKBONE|DICT|INTERRES
   105   54   55 1    
   106   54  110 1    
   107   55   56 1    
   108   55   59 1    
   109   55  111 1    
   110   56   57 am   BACKBONE|DICT|INTERRES
   111   56   58 2    
   112   57  112 1    
   113   57  113 1    
   114   59   60 1    
   115   59  114 1    
   116   59  115 1    
   117   60   61 1    
   118   61  116 1    
   119   61  117 1    
@<TRIPOS>SUBSTRUCTURE
     1 UNK         1 GROUP             0       ****    0 ROOT    
