@<TRIPOS>MOLECULE
3R8
117   119    1
SMALL
USER_CHARGES


@<TRIPOS>ATOM
      1 CA         21.9653  -27.7597  -48.9909 C.3       0 UNK        -0.2013 
      2 C          20.8546  -27.2509  -48.0840 C.2       0 UNK         0.4866 
      3 O          20.4797  -26.0826  -48.1845 O.2       0 UNK        -0.5176 
      4 N          20.3271  -28.1221  -47.2115 N.am      1 UNK        -0.4884 
      5 CA         19.2173  -27.8655  -46.2809 C.3       1 UNK         0.0853 
      6 C6         17.8626  -27.6068  -46.9942 C.3       10 UNK        -0.0849 
      7 S7         17.2867  -29.1146  -47.8415 S.3       10 UNK        -0.2776 
      8 C8         15.8154  -29.5547  -46.8580 C.3       10 UNK         0.0316 
      9 C9         16.0990  -29.7289  -45.3676 C.ar      10 UNK        -0.0863 
     10 C10        17.0134  -30.6882  -44.9201 C.ar      10 UNK        -0.1009 
     11 C11        17.2121  -30.9044  -43.5523 C.ar      10 UNK        -0.0712 
     12 C12        16.4623  -30.1626  -42.6316 C.ar      10 UNK        -0.0894 
     13 C13        15.5701  -29.1738  -43.0596 C.ar      10 UNK        -0.0745 
     14 C14        15.3971  -28.9634  -44.4308 C.ar      10 UNK        -0.0972 
     15 C15        14.7314  -28.3723  -42.0644 C.3       10 UNK         0.0209 
     16 S16        15.6081  -27.9110  -40.5297 S.3       10 UNK        -0.2568 
     17 C17        16.8755  -26.7519  -41.1449 C.3       10 UNK        -0.0983 
     18 CA         18.2987  -27.3615  -41.1126 C.3       3 UNK         0.0876 
     19 N          19.2059  -26.6361  -42.0036 N.am      3 UNK        -0.4424 
     20 C          20.5030  -26.9035  -42.2006 C.2       2 UNK         0.4918 
     21 O          21.1479  -27.7299  -41.5579 O.2       2 UNK        -0.4875 
     22 CA         21.1472  -26.2115  -43.4099 C.3       2 UNK         0.0481 
     23 CB         22.6828  -26.1676  -43.3183 C.3       2 UNK        -0.1831 
     24 N          20.7444  -26.9549  -44.6038 N.am      2 UNK        -0.4498 
     25 C          19.5727  -26.7921  -45.2334 C.2       1 UNK         0.5027 
     26 O          18.7890  -25.8734  -44.9813 O.2       1 UNK        -0.4969 
     27 C          18.8470  -27.4982  -39.6759 C.2       3 UNK         0.5005 
     28 O          19.0902  -26.4851  -39.0158 O.2       3 UNK        -0.5279 
     29 N          19.0420  -28.7550  -39.2484 N.am      4 UNK        -0.4463 
     30 CA         19.5727  -29.1954  -37.9532 C.3       4 UNK         0.0283 
     31 CB         18.6518  -28.7479  -36.7977 C.3       4 UNK        -0.1875 
     32 C          21.0525  -28.8389  -37.6931 C.2       4 UNK         0.4949 
     33 O          21.5063  -29.0019  -36.5592 O.2       4 UNK        -0.5039 
     34 N          21.7937  -28.4003  -38.7197 N.am      5 UNK        -0.4663 
     35 CA         23.2352  -28.1615  -38.6620 C.3       5 UNK         0.0242 
     36 CB         23.5414  -26.7726  -39.2457 C.3       5 UNK        -0.1982 
     37 C          23.9516  -29.2476  -39.4719 C.2       5 UNK         0.5017 
     38 O          23.4421  -29.6759  -40.5075 O.2       5 UNK        -0.5012 
     39 N          25.1492  -29.6405  -39.0203 N.am      6 UNK        -0.4439 
     40 CA         25.9773  -30.6834  -39.6412 C.3       6 UNK         0.0297 
     41 CB         27.1248  -31.0434  -38.6823 C.3       6 UNK        -0.2006 
     42 C          26.5327  -30.3257  -41.0356 C.2       6 UNK         0.4892 
     43 O          27.0424  -31.2130  -41.7206 O.2       6 UNK        -0.5089 
     44 N          26.4457  -29.0452  -41.4238 N.am      7 UNK        -0.4243 
     45 CA         26.9099  -28.5123  -42.7050 C.3       7 UNK         0.0196 
     46 CB         26.8080  -26.9781  -42.6815 C.3       7 UNK        -0.2007 
     47 C          26.1602  -29.0796  -43.9224 C.2       7 UNK         0.5020 
     48 O          26.7944  -29.3283  -44.9482 O.2       7 UNK        -0.5147 
     49 N          24.8391  -29.2693  -43.7979 N.am      8 UNK        -0.4734 
     50 CA         23.9698  -29.7660  -44.8696 C.3       8 UNK         0.0238 
     51 CB         23.7943  -28.7095  -45.9821 C.3       8 UNK        -0.1912 
     52 C          22.6321  -30.2743  -44.3087 C.2       8 UNK         0.5038 
     53 O          21.5758  -29.9549  -44.8584 O.2       8 UNK        -0.5046 
     54 N          22.7173  -31.0478  -43.2238 N.am      9 UNK        -0.4200 
     55 CA         21.6495  -31.7780  -42.5316 C.3       9 UNK         0.0839 
     56 C          22.3043  -32.7342  -41.4864 C.2       9 UNK         0.5513 
     57 N          21.5302  -33.3524  -40.6074 N.am      9 UNK        -0.7519 
     58 O          23.5151  -32.9561  -41.4858 O.2       9 UNK        -0.4960 
     59 C59        20.5295  -30.8451  -41.9700 C.3       10 UNK        -0.0876 
     60 S60        18.9878  -31.7008  -41.4927 S.3       10 UNK        -0.2414 
     61 C61        18.1745  -32.0017  -43.1019 C.3       10 UNK         0.0169 
     62 H62        22.0607  -28.8445  -48.9501 H         1 UNK         0.0903 
     63 H63        21.7609  -27.4824  -50.0247 H         1 UNK         0.0903 
     64 H64        22.9187  -27.3176  -48.7029 H         1 UNK         0.0903 
     65 H65        20.7019  -29.0602  -47.1624 H         1 UNK         0.3096 
     66 H66        19.1026  -28.7800  -45.6955 H         1 UNK         0.1121 
     67 H67        17.0962  -27.2887  -46.2855 H         1 UNK         0.0849 
     68 H68        17.9466  -26.7973  -47.7204 H         1 UNK         0.0849 
     69 H69        15.0501  -28.7941  -47.0208 H         1 UNK         0.0865 
     70 H70        15.4013  -30.4861  -47.2466 H         1 UNK         0.0865 
     71 H71        17.5543  -31.2838  -45.6431 H         1 UNK         0.1346 
     72 H72        16.5639  -30.3601  -41.5743 H         1 UNK         0.1412 
     73 H73        14.6847  -28.2234  -44.7701 H         1 UNK         0.1426 
     74 H74        13.8590  -28.9691  -41.7956 H         1 UNK         0.0716 
     75 H75        14.3486  -27.4627  -42.5300 H         1 UNK         0.0716 
     76 H76        16.8292  -25.8315  -40.5596 H         1 UNK         0.0695 
     77 H77        16.6118  -26.4674  -42.1650 H         1 UNK         0.0695 
     78 H78        18.2396  -28.3615  -41.5448 H         1 UNK         0.0983 
     79 H79        18.7727  -25.9629  -42.6211 H         1 UNK         0.3095 
     80 H80        20.7840  -25.1832  -43.4662 H         1 UNK         0.0454 
     81 H81        23.1137  -27.1616  -43.2057 H         1 UNK         0.0851 
     82 H82        23.0005  -25.5773  -42.4586 H         1 UNK         0.0851 
     83 H83        23.1211  -25.7081  -44.2040 H         1 UNK         0.0851 
     84 H84        21.2780  -27.7876  -44.8234 H         1 UNK         0.2976 
     85 H85        18.8253  -29.5073  -39.8885 H         1 UNK         0.3116 
     86 H86        19.5409  -30.2854  -37.9861 H         1 UNK         0.0646 
     87 H87        18.6883  -27.6690  -36.6447 H         1 UNK         0.0847 
     88 H88        18.9450  -29.2166  -35.8576 H         1 UNK         0.0847 
     89 H89        17.6146  -29.0258  -36.9850 H         1 UNK         0.0847 
     90 H90        21.3826  -28.3253  -39.6462 H         1 UNK         0.3040 
     91 H91        23.5921  -28.1910  -37.6302 H         1 UNK         0.1015 
     92 H92        22.9943  -25.9922  -38.7164 H         1 UNK         0.0786 
     93 H93        23.2739  -26.7097  -40.3003 H         1 UNK         0.0786 
     94 H94        24.6033  -26.5375  -39.1640 H         1 UNK         0.0786 
     95 H95        25.5119  -29.2232  -38.1745 H         1 UNK         0.3172 
     96 H96        25.3514  -31.5693  -39.7683 H         1 UNK         0.0595 
     97 H97        27.7826  -30.1923  -38.5015 H         1 UNK         0.0839 
     98 H98        27.7390  -31.8472  -39.0912 H         1 UNK         0.0839 
     99 H99        26.7466  -31.3889  -37.7199 H         1 UNK         0.0839 
    100 H100       26.0162  -28.3914  -40.7869 H         1 UNK         0.2998 
    101 H101       27.9624  -28.7836  -42.8127 H         1 UNK         0.0822 
    102 H102       27.4164  -26.5515  -41.8838 H         1 UNK         0.0787 
    103 H103       27.1618  -26.5495  -43.6204 H         1 UNK         0.0787 
    104 H104       25.7803  -26.6419  -42.5374 H         1 UNK         0.0787 
    105 H105       24.3963  -29.0815  -42.9062 H         1 UNK         0.3055 
    106 H106       24.4522  -30.6387  -45.3161 H         1 UNK         0.1106 
    107 H107       23.1803  -29.1072  -46.7886 H         1 UNK         0.0828 
    108 H108       23.3166  -27.8024  -45.6166 H         1 UNK         0.0828 
    109 H109       24.7470  -28.4257  -46.4282 H         1 UNK         0.0828 
    110 H110       23.6302  -31.2459  -42.8326 H         1 UNK         0.2931 
    111 H111       21.2081  -32.4300  -43.2858 H         1 UNK         0.0412 
    112 H112       20.5355  -33.1771  -40.6013 H         1 UNK         0.3472 
    113 H113       21.9419  -33.9837  -39.9387 H         1 UNK         0.3472 
    114 H114       20.9072  -30.3054  -41.1013 H         1 UNK         0.0970 
    115 H115       20.2552  -30.0797  -42.6953 H         1 UNK         0.0970 
    116 H116       17.6084  -32.9305  -43.0244 H         1 UNK         0.0612 
    117 H117       18.9367  -32.1709  -43.8634 H         1 UNK         0.0612 
@<TRIPOS>BOND
     1    1    2 1    
     2    1   62 1    
     3    1   63 1    
     4    1   64 1    
     5    2    3 2    
     6    2    4 am   BACKBONE|DICT|INTERRES
     7    4    5 1    
     8    4   65 1    
     9    5    6 1    
    10    5   25 1    
    11    5   66 1    
    12    6    7 1    
    13    6   67 1    
    14    6   68 1    
    15    7    8 1    
    16    8    9 1    
    17    8   69 1    
    18    8   70 1    
    19    9   10 ar   
    20    9   14 ar   
    21   10   11 ar   
    22   10   71 1    
    23   11   12 ar   
    24   11   61 1    
    25   12   13 ar   
    26   12   72 1    
    27   13   14 ar   
    28   13   15 1    
    29   14   73 1    
    30   15   16 1    
    31   15   74 1    
    32   15   75 1    
    33   16   17 1    
    34   17   18 1    
    35   17   76 1    
    36   17   77 1    
    37   18   19 1    
    38   18   27 1    
    39   18   78 1    
    40   19   20 am   BACKBONE|DICT|INTERRES
    41   19   79 1    
    42   20   21 2    
    43   20   22 1    
    44   22   23 1    
    45   22   24 1    
    46   22   80 1    
    47   23   81 1    
    48   23   82 1    
    49   23   83 1    
    50   24   25 am   BACKBONE|DICT|INTERRES
    51   24   84 1    
    52   25   26 2    
    53   27   28 2    
    54   27   29 am   BACKBONE|DICT|INTERRES
    55   29   30 1    
    56   29   85 1    
    57   30   31 1    
    58   30   32 1    
    59   30   86 1    
    60   31   87 1    
    61   31   88 1    
    62   31   89 1    
    63   32   33 2    
    64   32   34 am   BACKBONE|DICT|INTERRES
    65   34   35 1    
    66   34   90 1    
    67   35   36 1    
    68   35   37 1    
    69   35   91 1    
    70   36   92 1    
    71   36   93 1    
    72   36   94 1    
    73   37   38 2    
    74   37   39 am   BACKBONE|DICT|INTERRES
    75   39   40 1    
    76   39   95 1    
    77   40   41 1    
    78   40   42 1    
    79   40   96 1    
    80   41   97 1    
    81   41   98 1    
    82   41   99 1    
    83   42   43 2    
    84   42   44 am   BACKBONE|DICT|INTERRES
    85   44   45 1    
    86   44  100 1    
    87   45   46 1    
    88   45   47 1    
    89   45  101 1    
    90   46  102 1    
    91   46  103 1    
    92   46  104 1    
    93   47   48 2    
    94   47   49 am   BACKBONE|DICT|INTERRES
    95   49   50 1    
    96   49  105 1    
    97   50   51 1    
    98   50   52 1    
    99   50  106 1    
   100   51  107 1    
   101   51  108 1    
   102   51  109 1    
   103   52   53 2    
   104   52   54 am   BACKBONE|DICT|INTERRES
   105   54   55 1    
   106   54  110 1    
   107   55   56 1    
   108   55   59 1    
   109   55  111 1    
   110   56   57 am   BACKBONE|DICT|INTERRES
   111   56   58 2    
   112   57  112 1    
   113   57  113 1    
   114   59   60 1    
   115   59  114 1    
   116   59  115 1    
   117   60   61 1    
   118   61  116 1    
   119   61  117 1    
@<TRIPOS>SUBSTRUCTURE
     1 UNK         1 GROUP             0       ****    0 ROOT    
