@<TRIPOS>MOLECULE
3R8
117   119    1
SMALL
USER_CHARGES


@<TRIPOS>ATOM
      1 CA         14.3978  -22.5274  -47.0941 C.3       0 UNK        -0.2013 
      2 C          15.8119  -22.8900  -46.6655 C.2       0 UNK         0.4866 
      3 O          16.6654  -22.0082  -46.5615 O.2       0 UNK        -0.5176 
      4 N          16.0699  -24.1815  -46.4233 N.am      1 UNK        -0.4884 
      5 CA         17.3527  -24.6973  -45.9362 C.3       1 UNK         0.0853 
      6 C6         17.4525  -26.2267  -46.1548 C.3       10 UNK        -0.0849 
      7 S7         19.1608  -26.8581  -46.0058 S.3       10 UNK        -0.2776 
      8 C8         18.9599  -28.5607  -46.6338 C.3       10 UNK         0.0316 
      9 C9         18.9015  -29.6172  -45.5327 C.ar      10 UNK        -0.0863 
     10 C10        19.6440  -30.7955  -45.6728 C.ar      10 UNK        -0.1009 
     11 C11        19.5861  -31.7945  -44.6971 C.ar      10 UNK        -0.0712 
     12 C12        18.7970  -31.6024  -43.5612 C.ar      10 UNK        -0.0894 
     13 C13        18.0557  -30.4296  -43.4024 C.ar      10 UNK        -0.0745 
     14 C14        18.0947  -29.4504  -44.3996 C.ar      10 UNK        -0.0972 
     15 C15        17.2161  -30.2319  -42.1498 C.3       10 UNK         0.0209 
     16 S16        18.2367  -29.6641  -40.7520 S.3       10 UNK        -0.2568 
     17 C17        18.3640  -27.8729  -41.0729 C.3       10 UNK        -0.0983 
     18 CA         19.6378  -27.4607  -41.8589 C.3       3 UNK         0.0876 
     19 N          19.5271  -26.1243  -42.4600 N.am      3 UNK        -0.4424 
     20 C          19.3097  -24.9562  -41.8342 C.2       2 UNK         0.4918 
     21 O          19.2068  -24.8407  -40.6125 O.2       2 UNK        -0.4875 
     22 CA         19.2063  -23.6945  -42.7103 C.3       2 UNK         0.0481 
     23 CB         20.5460  -22.9423  -42.7236 C.3       2 UNK        -0.1831 
     24 N          18.7965  -23.9784  -44.0882 N.am      2 UNK        -0.4498 
     25 C          17.5553  -24.3297  -44.4517 C.2       1 UNK         0.5027 
     26 O          16.6055  -24.4086  -43.6677 O.2       1 UNK        -0.4969 
     27 C          20.9409  -27.6422  -41.0540 C.2       3 UNK         0.5005 
     28 O          21.7588  -28.4936  -41.4065 O.2       3 UNK        -0.5279 
     29 N          21.1541  -26.7975  -40.0363 N.am      4 UNK        -0.4463 
     30 CA         22.3480  -26.7627  -39.1839 C.3       4 UNK         0.0283 
     31 CB         22.1142  -25.7723  -38.0325 C.3       4 UNK        -0.1875 
     32 C          23.6461  -26.4147  -39.9366 C.2       4 UNK         0.4949 
     33 O          24.7274  -26.7598  -39.4620 O.2       4 UNK        -0.5039 
     34 N          23.5202  -25.7592  -41.0997 N.am      5 UNK        -0.4663 
     35 CA         24.6221  -25.4902  -42.0266 C.3       5 UNK         0.0242 
     36 CB         24.1734  -24.4417  -43.0568 C.3       5 UNK        -0.1982 
     37 C          25.1314  -26.7576  -42.7387 C.2       5 UNK         0.5017 
     38 O          26.3030  -26.7977  -43.1157 O.2       5 UNK        -0.5012 
     39 N          24.2546  -27.7581  -42.9087 N.am      6 UNK        -0.4439 
     40 CA         24.5969  -29.0790  -43.4330 C.3       6 UNK         0.0297 
     41 CB         23.4156  -29.6488  -44.2408 C.3       6 UNK        -0.2006 
     42 C          24.9932  -30.0044  -42.2739 C.2       6 UNK         0.4892 
     43 O          26.1136  -30.5164  -42.2748 O.2       6 UNK        -0.5089 
     44 N          24.0770  -30.1446  -41.3009 N.am      7 UNK        -0.4243 
     45 CA         24.1394  -30.9512  -40.0750 C.3       7 UNK         0.0196 
     46 CB         25.3073  -30.4990  -39.1752 C.3       7 UNK        -0.2007 
     47 C          24.1844  -32.4728  -40.3171 C.2       7 UNK         0.5020 
     48 O          24.5756  -32.9371  -41.3882 O.2       7 UNK        -0.5147 
     49 N          23.7707  -33.2322  -39.2916 N.am      8 UNK        -0.4734 
     50 CA         23.7732  -34.7023  -39.1592 C.3       8 UNK         0.0238 
     51 CB         25.2123  -35.2534  -39.2043 C.3       8 UNK        -0.1912 
     52 C          22.8644  -35.4851  -40.1305 C.2       8 UNK         0.5038 
     53 O          22.3744  -36.5502  -39.7528 O.2       8 UNK        -0.5046 
     54 N          22.6540  -34.9666  -41.3439 N.am      9 UNK        -0.4200 
     55 CA         21.8303  -35.5525  -42.4107 C.3       9 UNK         0.0839 
     56 C          20.2965  -35.5831  -42.1402 C.2       9 UNK         0.5513 
     57 N          19.7805  -34.8817  -41.1378 N.am      9 UNK        -0.7519 
     58 O          19.5643  -36.2655  -42.8521 O.2       9 UNK        -0.4960 
     59 C59        22.1744  -34.9246  -43.7883 C.3       10 UNK        -0.0876 
     60 S60        21.8628  -33.1245  -43.8709 S.3       10 UNK        -0.2414 
     61 C61        20.3468  -33.0976  -44.8729 C.3       10 UNK         0.0169 
     62 H62        13.9565  -21.8323  -46.3803 H         1 UNK         0.0903 
     63 H63        14.4135  -22.0474  -48.0722 H         1 UNK         0.0903 
     64 H64        13.7527  -23.4036  -47.1570 H         1 UNK         0.0903 
     65 H65        15.3210  -24.8564  -46.4910 H         1 UNK         0.3096 
     66 H66        18.1378  -24.2153  -46.5241 H         1 UNK         0.1121 
     67 H67        17.1049  -26.4671  -47.1611 H         1 UNK         0.0849 
     68 H68        16.7918  -26.7651  -45.4734 H         1 UNK         0.0849 
     69 H69        18.0631  -28.6398  -47.2493 H         1 UNK         0.0865 
     70 H70        19.7992  -28.7629  -47.3011 H         1 UNK         0.0865 
     71 H71        20.2586  -30.9452  -46.5501 H         1 UNK         0.1346 
     72 H72        18.7641  -32.3679  -42.7973 H         1 UNK         0.1412 
     73 H73        17.5110  -28.5503  -44.2773 H         1 UNK         0.1426 
     74 H74        16.7475  -31.1787  -41.8766 H         1 UNK         0.0716 
     75 H75        16.3983  -29.5330  -42.3313 H         1 UNK         0.0716 
     76 H76        17.4746  -27.5578  -41.6208 H         1 UNK         0.0695 
     77 H77        18.3128  -27.3538  -40.1145 H         1 UNK         0.0695 
     78 H78        19.7308  -28.1352  -42.7099 H         1 UNK         0.0983 
     79 H79        19.6133  -26.1028  -43.4669 H         1 UNK         0.3095 
     80 H80        18.4577  -23.0417  -42.2562 H         1 UNK         0.0454 
     81 H81        21.3288  -23.5196  -43.2144 H         1 UNK         0.0851 
     82 H82        20.4586  -21.9882  -43.2437 H         1 UNK         0.0851 
     83 H83        20.8855  -22.7247  -41.7097 H         1 UNK         0.0851 
     84 H84        19.5178  -23.9369  -44.7948 H         1 UNK         0.2976 
     85 H85        20.4457  -26.0859  -39.8735 H         1 UNK         0.3116 
     86 H86        22.4791  -27.7603  -38.7593 H         1 UNK         0.0646 
     87 H87        22.9752  -25.7399  -37.3634 H         1 UNK         0.0847 
     88 H88        21.2506  -26.0579  -37.4318 H         1 UNK         0.0847 
     89 H89        21.9480  -24.7586  -38.3996 H         1 UNK         0.0847 
     90 H90        22.5938  -25.4908  -41.3950 H         1 UNK         0.3040 
     91 H91        25.4564  -25.0769  -41.4549 H         1 UNK         0.1015 
     92 H92        23.8495  -23.5202  -42.5727 H         1 UNK         0.0786 
     93 H93        23.3540  -24.8087  -43.6760 H         1 UNK         0.0786 
     94 H94        24.9937  -24.1813  -43.7273 H         1 UNK         0.0786 
     95 H95        23.3325  -27.6670  -42.4992 H         1 UNK         0.3172 
     96 H96        25.4491  -28.9969  -44.1113 H         1 UNK         0.0595 
     97 H97        23.1639  -29.0041  -45.0829 H         1 UNK         0.0839 
     98 H98        22.5154  -29.7716  -43.6375 H         1 UNK         0.0839 
     99 H99        23.6647  -30.6296  -44.6479 H         1 UNK         0.0839 
    100 H100       23.1965  -29.6478  -41.4259 H         1 UNK         0.2998 
    101 H101       23.2077  -30.7369  -39.5487 H         1 UNK         0.0822 
    102 H102       25.2697  -29.4261  -38.9869 H         1 UNK         0.0787 
    103 H103       25.2745  -30.9977  -38.2060 H         1 UNK         0.0787 
    104 H104       26.2760  -30.7266  -39.6211 H         1 UNK         0.0787 
    105 H105       23.4330  -32.7457  -38.4716 H         1 UNK         0.3055 
    106 H106       23.3810  -34.9050  -38.1609 H         1 UNK         0.1106 
    107 H107       25.2258  -36.3262  -39.0068 H         1 UNK         0.0828 
    108 H108       25.6775  -35.0989  -40.1784 H         1 UNK         0.0828 
    109 H109       25.8429  -34.7789  -38.4525 H         1 UNK         0.0828 
    110 H110       23.1486  -34.1094  -41.5765 H         1 UNK         0.2931 
    111 H111       22.1254  -36.6019  -42.4709 H         1 UNK         0.0412 
    112 H112       18.7883  -34.9190  -40.9661 H         1 UNK         0.3472 
    113 H113       20.3760  -34.3193  -40.5523 H         1 UNK         0.3472 
    114 H114       21.6390  -35.4367  -44.5900 H         1 UNK         0.0970 
    115 H115       23.2319  -35.0854  -44.0036 H         1 UNK         0.0970 
    116 H116       20.6069  -33.2580  -45.9203 H         1 UNK         0.0612 
    117 H117       19.6971  -33.9256  -44.5865 H         1 UNK         0.0612 
@<TRIPOS>BOND
     1    1    2 1    
     2    1   62 1    
     3    1   63 1    
     4    1   64 1    
     5    2    3 2    
     6    2    4 am   BACKBONE|DICT|INTERRES
     7    4    5 1    
     8    4   65 1    
     9    5    6 1    
    10    5   25 1    
    11    5   66 1    
    12    6    7 1    
    13    6   67 1    
    14    6   68 1    
    15    7    8 1    
    16    8    9 1    
    17    8   69 1    
    18    8   70 1    
    19    9   10 ar   
    20    9   14 ar   
    21   10   11 ar   
    22   10   71 1    
    23   11   12 ar   
    24   11   61 1    
    25   12   13 ar   
    26   12   72 1    
    27   13   14 ar   
    28   13   15 1    
    29   14   73 1    
    30   15   16 1    
    31   15   74 1    
    32   15   75 1    
    33   16   17 1    
    34   17   18 1    
    35   17   76 1    
    36   17   77 1    
    37   18   19 1    
    38   18   27 1    
    39   18   78 1    
    40   19   20 am   BACKBONE|DICT|INTERRES
    41   19   79 1    
    42   20   21 2    
    43   20   22 1    
    44   22   23 1    
    45   22   24 1    
    46   22   80 1    
    47   23   81 1    
    48   23   82 1    
    49   23   83 1    
    50   24   25 am   BACKBONE|DICT|INTERRES
    51   24   84 1    
    52   25   26 2    
    53   27   28 2    
    54   27   29 am   BACKBONE|DICT|INTERRES
    55   29   30 1    
    56   29   85 1    
    57   30   31 1    
    58   30   32 1    
    59   30   86 1    
    60   31   87 1    
    61   31   88 1    
    62   31   89 1    
    63   32   33 2    
    64   32   34 am   BACKBONE|DICT|INTERRES
    65   34   35 1    
    66   34   90 1    
    67   35   36 1    
    68   35   37 1    
    69   35   91 1    
    70   36   92 1    
    71   36   93 1    
    72   36   94 1    
    73   37   38 2    
    74   37   39 am   BACKBONE|DICT|INTERRES
    75   39   40 1    
    76   39   95 1    
    77   40   41 1    
    78   40   42 1    
    79   40   96 1    
    80   41   97 1    
    81   41   98 1    
    82   41   99 1    
    83   42   43 2    
    84   42   44 am   BACKBONE|DICT|INTERRES
    85   44   45 1    
    86   44  100 1    
    87   45   46 1    
    88   45   47 1    
    89   45  101 1    
    90   46  102 1    
    91   46  103 1    
    92   46  104 1    
    93   47   48 2    
    94   47   49 am   BACKBONE|DICT|INTERRES
    95   49   50 1    
    96   49  105 1    
    97   50   51 1    
    98   50   52 1    
    99   50  106 1    
   100   51  107 1    
   101   51  108 1    
   102   51  109 1    
   103   52   53 2    
   104   52   54 am   BACKBONE|DICT|INTERRES
   105   54   55 1    
   106   54  110 1    
   107   55   56 1    
   108   55   59 1    
   109   55  111 1    
   110   56   57 am   BACKBONE|DICT|INTERRES
   111   56   58 2    
   112   57  112 1    
   113   57  113 1    
   114   59   60 1    
   115   59  114 1    
   116   59  115 1    
   117   60   61 1    
   118   61  116 1    
   119   61  117 1    
@<TRIPOS>SUBSTRUCTURE
     1 UNK         1 GROUP             0       ****    0 ROOT    
