@<TRIPOS>MOLECULE
3R8
117   119    1
SMALL
USER_CHARGES


@<TRIPOS>ATOM
      1 CA         16.8553  -26.6610  -41.1871 C.3       0 UNK        -0.2013 
      2 C          17.4604  -26.5769  -42.5792 C.2       0 UNK         0.4866 
      3 O          18.5432  -27.1189  -42.8079 O.2       0 UNK        -0.5176 
      4 N          16.7795  -25.8732  -43.4983 N.am      1 UNK        -0.4884 
      5 CA         17.0672  -25.7633  -44.9431 C.3       1 UNK         0.0853 
      6 C6         16.9044  -27.1199  -45.6821 C.3       10 UNK        -0.0849 
      7 S7         15.2745  -27.9114  -45.4401 S.3       10 UNK        -0.2776 
      8 C8         15.4455  -29.4172  -46.4594 C.3       10 UNK         0.0316 
      9 C9         16.6185  -30.2735  -46.0039 C.ar      10 UNK        -0.0863 
     10 C10        16.4796  -31.1548  -44.9275 C.ar      10 UNK        -0.1009 
     11 C11        17.5825  -31.8742  -44.4564 C.ar      10 UNK        -0.0712 
     12 C12        18.8305  -31.7029  -45.0640 C.ar      10 UNK        -0.0894 
     13 C13        18.9770  -30.8284  -46.1447 C.ar      10 UNK        -0.0745 
     14 C14        17.8616  -30.1417  -46.6292 C.ar      10 UNK        -0.0972 
     15 C15        20.3451  -30.5828  -46.7635 C.3       10 UNK         0.0209 
     16 S16        20.9459  -28.8983  -46.4080 S.3       10 UNK        -0.2568 
     17 C17        21.1383  -28.9715  -44.5975 C.3       10 UNK        -0.0983 
     18 CA         21.8397  -27.7138  -44.0350 C.3       3 UNK         0.0876 
     19 N          21.0358  -26.5009  -44.2041 N.am      3 UNK        -0.4424 
     20 C          21.5127  -25.2482  -44.1989 C.2       2 UNK         0.4918 
     21 O          22.7133  -24.9872  -44.1209 O.2       2 UNK        -0.4875 
     22 CA         20.4965  -24.0828  -44.2257 C.3       2 UNK         0.0481 
     23 CB         20.8257  -23.0562  -45.3289 C.3       2 UNK        -0.1831 
     24 N          19.0897  -24.5104  -44.2723 N.am      2 UNK        -0.4498 
     25 C          18.4406  -25.1245  -45.2745 C.2       1 UNK         0.5027 
     26 O          18.9036  -25.2416  -46.4095 O.2       1 UNK        -0.4969 
     27 C          22.1978  -27.9123  -42.5524 C.2       3 UNK         0.5005 
     28 O          23.3076  -28.3514  -42.2575 O.2       3 UNK        -0.5279 
     29 N          21.2875  -27.5239  -41.6433 N.am      4 UNK        -0.4463 
     30 CA         21.4453  -27.5636  -40.1819 C.3       4 UNK         0.0283 
     31 CB         20.1672  -27.0213  -39.5254 C.3       4 UNK        -0.1875 
     32 C          22.6867  -26.8373  -39.6244 C.2       4 UNK         0.4949 
     33 O          23.1120  -27.1451  -38.5113 O.2       4 UNK        -0.5039 
     34 N          23.2564  -25.9085  -40.4031 N.am      5 UNK        -0.4663 
     35 CA         24.5155  -25.2230  -40.1092 C.3       5 UNK         0.0242 
     36 CB         24.5933  -23.9542  -40.9751 C.3       5 UNK        -0.1982 
     37 C          25.7687  -26.0979  -40.3239 C.2       5 UNK         0.5017 
     38 O          26.8419  -25.7066  -39.8626 O.2       5 UNK        -0.5012 
     39 N          25.6369  -27.2338  -41.0234 N.am      6 UNK        -0.4439 
     40 CA         26.7283  -28.1419  -41.3661 C.3       6 UNK         0.0297 
     41 CB         27.3049  -27.7603  -42.7461 C.3       6 UNK        -0.2006 
     42 C          26.2239  -29.5893  -41.2717 C.2       6 UNK         0.4892 
     43 O          26.1486  -30.1269  -40.1652 O.2       6 UNK        -0.5089 
     44 N          25.8926  -30.1990  -42.4183 N.am      7 UNK        -0.4243 
     45 CA         25.3622  -31.5586  -42.5497 C.3       7 UNK         0.0196 
     46 CB         25.5749  -32.0332  -43.9996 C.3       7 UNK        -0.2007 
     47 C          23.8849  -31.6354  -42.1170 C.2       7 UNK         0.5020 
     48 O          22.9979  -31.7857  -42.9593 O.2       7 UNK        -0.5147 
     49 N          23.6545  -31.4947  -40.8067 N.am      8 UNK        -0.4734 
     50 CA         22.3390  -31.4838  -40.1664 C.3       8 UNK         0.0238 
     51 CB         22.5140  -31.0940  -38.6886 C.3       8 UNK        -0.1912 
     52 C          21.5766  -32.8143  -40.2930 C.2       8 UNK         0.5038 
     53 O          22.1858  -33.8697  -40.4858 O.2       8 UNK        -0.5046 
     54 N          20.2489  -32.7223  -40.1587 N.am      9 UNK        -0.4200 
     55 CA         19.2867  -33.8194  -40.3516 C.3       9 UNK         0.0839 
     56 C          19.3292  -34.9472  -39.2793 C.2       9 UNK         0.5513 
     57 N          20.0062  -34.7711  -38.1511 N.am      9 UNK        -0.7519 
     58 O          18.7333  -36.0026  -39.4781 O.2       9 UNK        -0.4960 
     59 C59        17.8374  -33.2856  -40.5254 C.3       10 UNK        -0.0876 
     60 S60        17.7082  -31.9059  -41.7149 S.3       10 UNK        -0.2414 
     61 C61        17.4382  -32.8084  -43.2670 C.3       10 UNK         0.0169 
     62 H62        16.8908  -27.6887  -40.8264 H         1 UNK         0.0903 
     63 H63        17.4139  -26.0334  -40.4939 H         1 UNK         0.0903 
     64 H64        15.8144  -26.3383  -41.1772 H         1 UNK         0.0903 
     65 H65        15.9141  -25.4332  -43.2155 H         1 UNK         0.3096 
     66 H66        16.3244  -25.0753  -45.3501 H         1 UNK         0.1121 
     67 H67        17.6804  -27.8052  -45.3383 H         1 UNK         0.0849 
     68 H68        17.0524  -26.9991  -46.7570 H         1 UNK         0.0849 
     69 H69        14.5216  -29.9946  -46.4010 H         1 UNK         0.0865 
     70 H70        15.5615  -29.1343  -47.5069 H         1 UNK         0.0865 
     71 H71        15.5216  -31.2563  -44.4357 H         1 UNK         0.1346 
     72 H72        19.6917  -32.2314  -44.6779 H         1 UNK         0.1412 
     73 H73        17.9799  -29.4518  -47.4539 H         1 UNK         0.1426 
     74 H74        20.2814  -30.7169  -47.8442 H         1 UNK         0.0716 
     75 H75        21.0749  -31.3102  -46.4041 H         1 UNK         0.0716 
     76 H76        21.7135  -29.8688  -44.3617 H         1 UNK         0.0695 
     77 H77        20.1554  -29.1035  -44.1401 H         1 UNK         0.0695 
     78 H78        22.7809  -27.5817  -44.5738 H         1 UNK         0.0983 
     79 H79        20.0322  -26.6368  -44.1965 H         1 UNK         0.3095 
     80 H80        20.6095  -23.5730  -43.2679 H         1 UNK         0.0454 
     81 H81        21.8105  -22.6162  -45.1677 H         1 UNK         0.0851 
     82 H82        20.1052  -22.2387  -45.3404 H         1 UNK         0.0851 
     83 H83        20.8380  -23.5093  -46.3203 H         1 UNK         0.0851 
     84 H84        18.6038  -24.4791  -43.3862 H         1 UNK         0.2976 
     85 H85        20.3813  -27.2229  -41.9915 H         1 UNK         0.3116 
     86 H86        21.5456  -28.6092  -39.8968 H         1 UNK         0.0646 
     87 H87        19.9653  -25.9924  -39.8254 H         1 UNK         0.0847 
     88 H88        19.3020  -27.6288  -39.7895 H         1 UNK         0.0847 
     89 H89        20.2471  -27.0348  -38.4374 H         1 UNK         0.0847 
     90 H90        22.8447  -25.7292  -41.3076 H         1 UNK         0.3040 
     91 H91        24.5087  -24.9226  -39.0589 H         1 UNK         0.1015 
     92 H92        25.5025  -23.3898  -40.7627 H         1 UNK         0.0786 
     93 H93        23.7503  -23.2900  -40.7841 H         1 UNK         0.0786 
     94 H94        24.5989  -24.1927  -42.0398 H         1 UNK         0.0786 
     95 H95        24.7133  -27.5217  -41.3456 H         1 UNK         0.3172 
     96 H96        27.5294  -28.0533  -40.6292 H         1 UNK         0.0595 
     97 H97        26.5356  -27.7232  -43.5184 H         1 UNK         0.0839 
     98 H98        28.0700  -28.4694  -43.0655 H         1 UNK         0.0839 
     99 H99        27.7769  -26.7783  -42.7104 H         1 UNK         0.0839 
    100 H100       25.9373  -29.6569  -43.2683 H         1 UNK         0.2998 
    101 H101       25.9322  -32.2217  -41.8952 H         1 UNK         0.0822 
    102 H102       25.2022  -33.0494  -44.1350 H         1 UNK         0.0787 
    103 H103       25.0526  -31.3964  -44.7150 H         1 UNK         0.0787 
    104 H104       26.6324  -32.0391  -44.2644 H         1 UNK         0.0787 
    105 H105       24.4563  -31.3081  -40.2145 H         1 UNK         0.3055 
    106 H106       21.7489  -30.7201  -40.6758 H         1 UNK         0.1106 
    107 H107       23.0318  -30.1397  -38.5866 H         1 UNK         0.0828 
    108 H108       21.5502  -30.9909  -38.1884 H         1 UNK         0.0828 
    109 H109       23.0875  -31.8435  -38.1416 H         1 UNK         0.0828 
    110 H110       19.8354  -31.8181  -39.9861 H         1 UNK         0.2931 
    111 H111       19.5634  -34.3006  -41.2917 H         1 UNK         0.0412 
    112 H112       20.0274  -35.5104  -37.4661 H         1 UNK         0.3472 
    113 H113       20.5061  -33.9128  -37.9843 H         1 UNK         0.3472 
    114 H114       17.4515  -32.9291  -39.5684 H         1 UNK         0.0970 
    115 H115       17.1662  -34.0885  -40.8369 H         1 UNK         0.0970 
    116 H116       16.4464  -33.2631  -43.2573 H         1 UNK         0.0612 
    117 H117       18.1570  -33.6256  -43.3455 H         1 UNK         0.0612 
@<TRIPOS>BOND
     1    1    2 1    
     2    1   62 1    
     3    1   63 1    
     4    1   64 1    
     5    2    3 2    
     6    2    4 am   BACKBONE|DICT|INTERRES
     7    4    5 1    
     8    4   65 1    
     9    5    6 1    
    10    5   25 1    
    11    5   66 1    
    12    6    7 1    
    13    6   67 1    
    14    6   68 1    
    15    7    8 1    
    16    8    9 1    
    17    8   69 1    
    18    8   70 1    
    19    9   10 ar   
    20    9   14 ar   
    21   10   11 ar   
    22   10   71 1    
    23   11   12 ar   
    24   11   61 1    
    25   12   13 ar   
    26   12   72 1    
    27   13   14 ar   
    28   13   15 1    
    29   14   73 1    
    30   15   16 1    
    31   15   74 1    
    32   15   75 1    
    33   16   17 1    
    34   17   18 1    
    35   17   76 1    
    36   17   77 1    
    37   18   19 1    
    38   18   27 1    
    39   18   78 1    
    40   19   20 am   BACKBONE|DICT|INTERRES
    41   19   79 1    
    42   20   21 2    
    43   20   22 1    
    44   22   23 1    
    45   22   24 1    
    46   22   80 1    
    47   23   81 1    
    48   23   82 1    
    49   23   83 1    
    50   24   25 am   BACKBONE|DICT|INTERRES
    51   24   84 1    
    52   25   26 2    
    53   27   28 2    
    54   27   29 am   BACKBONE|DICT|INTERRES
    55   29   30 1    
    56   29   85 1    
    57   30   31 1    
    58   30   32 1    
    59   30   86 1    
    60   31   87 1    
    61   31   88 1    
    62   31   89 1    
    63   32   33 2    
    64   32   34 am   BACKBONE|DICT|INTERRES
    65   34   35 1    
    66   34   90 1    
    67   35   36 1    
    68   35   37 1    
    69   35   91 1    
    70   36   92 1    
    71   36   93 1    
    72   36   94 1    
    73   37   38 2    
    74   37   39 am   BACKBONE|DICT|INTERRES
    75   39   40 1    
    76   39   95 1    
    77   40   41 1    
    78   40   42 1    
    79   40   96 1    
    80   41   97 1    
    81   41   98 1    
    82   41   99 1    
    83   42   43 2    
    84   42   44 am   BACKBONE|DICT|INTERRES
    85   44   45 1    
    86   44  100 1    
    87   45   46 1    
    88   45   47 1    
    89   45  101 1    
    90   46  102 1    
    91   46  103 1    
    92   46  104 1    
    93   47   48 2    
    94   47   49 am   BACKBONE|DICT|INTERRES
    95   49   50 1    
    96   49  105 1    
    97   50   51 1    
    98   50   52 1    
    99   50  106 1    
   100   51  107 1    
   101   51  108 1    
   102   51  109 1    
   103   52   53 2    
   104   52   54 am   BACKBONE|DICT|INTERRES
   105   54   55 1    
   106   54  110 1    
   107   55   56 1    
   108   55   59 1    
   109   55  111 1    
   110   56   57 am   BACKBONE|DICT|INTERRES
   111   56   58 2    
   112   57  112 1    
   113   57  113 1    
   114   59   60 1    
   115   59  114 1    
   116   59  115 1    
   117   60   61 1    
   118   61  116 1    
   119   61  117 1    
@<TRIPOS>SUBSTRUCTURE
     1 UNK         1 GROUP             0       ****    0 ROOT    
