@<TRIPOS>MOLECULE
3R8
117   119    1
SMALL
USER_CHARGES


@<TRIPOS>ATOM
      1 CA         16.4334  -28.1932  -41.2806 C.3       0 UNK        -0.2013 
      2 C          16.5584  -27.0153  -42.2346 C.2       0 UNK         0.4866 
      3 O          16.2529  -25.8852  -41.8514 O.2       0 UNK        -0.5176 
      4 N          16.9883  -27.2748  -43.4755 N.am      1 UNK        -0.4884 
      5 CA         17.1733  -26.2680  -44.5304 C.3       1 UNK         0.0853 
      6 C6         16.8990  -26.8414  -45.9497 C.3       10 UNK        -0.0849 
      7 S7         15.3731  -27.8575  -46.0233 S.3       10 UNK        -0.2776 
      8 C8         15.9610  -29.5212  -46.5021 C.3       10 UNK         0.0316 
      9 C9         17.1127  -30.0302  -45.6425 C.ar      10 UNK        -0.0863 
     10 C10        16.8836  -30.6344  -44.4027 C.ar      10 UNK        -0.1009 
     11 C11        17.9562  -31.1054  -43.6349 C.ar      10 UNK        -0.0712 
     12 C12        19.2645  -30.9365  -44.1055 C.ar      10 UNK        -0.0894 
     13 C13        19.5097  -30.3211  -45.3369 C.ar      10 UNK        -0.0745 
     14 C14        18.4209  -29.9115  -46.1131 C.ar      10 UNK        -0.0972 
     15 C15        20.9503  -30.1203  -45.8076 C.3       10 UNK         0.0209 
     16 S16        21.1623  -28.6821  -46.9140 S.3       10 UNK        -0.2568 
     17 C17        22.7849  -28.0146  -46.4137 C.3       10 UNK        -0.0983 
     18 CA         22.7134  -26.8958  -45.3374 C.3       3 UNK         0.0876 
     19 N          21.5944  -25.9736  -45.5591 N.am      3 UNK        -0.4424 
     20 C          21.5054  -24.7286  -45.0780 C.2       2 UNK         0.4918 
     21 O          22.3900  -24.1917  -44.4106 O.2       2 UNK        -0.4875 
     22 CA         20.1944  -23.9632  -45.3614 C.3       2 UNK         0.0481 
     23 CB         20.3117  -23.1840  -46.6809 C.3       2 UNK        -0.1831 
     24 N          18.9658  -24.7781  -45.3838 N.am      2 UNK        -0.4498 
     25 C          18.5662  -25.6026  -44.4022 C.2       1 UNK         0.5027 
     26 O          19.2686  -25.8399  -43.4189 O.2       1 UNK        -0.4969 
     27 C          22.7718  -27.4744  -43.9067 C.2       3 UNK         0.5005 
     28 O          23.8325  -27.9676  -43.5185 O.2       3 UNK        -0.5279 
     29 N          21.6859  -27.3872  -43.1198 N.am      4 UNK        -0.4463 
     30 CA         21.6056  -27.8978  -41.7413 C.3       4 UNK         0.0283 
     31 CB         20.1421  -27.9200  -41.2775 C.3       4 UNK        -0.1875 
     32 C          22.4859  -27.1389  -40.7275 C.2       4 UNK         0.4949 
     33 O          22.5917  -27.5642  -39.5777 O.2       4 UNK        -0.5039 
     34 N          23.1249  -26.0445  -41.1632 N.am      5 UNK        -0.4663 
     35 CA         24.2141  -25.3793  -40.4477 C.3       5 UNK         0.0242 
     36 CB         24.4792  -24.0148  -41.1040 C.3       5 UNK        -0.1982 
     37 C          25.5068  -26.2209  -40.4095 C.2       5 UNK         0.5017 
     38 O          26.3274  -26.0034  -39.5172 O.2       5 UNK        -0.5012 
     39 N          25.6682  -27.1487  -41.3654 N.am      6 UNK        -0.4439 
     40 CA         26.8073  -28.0615  -41.4749 C.3       6 UNK         0.0297 
     41 CB         27.5423  -27.7988  -42.8001 C.3       6 UNK        -0.2006 
     42 C          26.3658  -29.5307  -41.3858 C.2       6 UNK         0.4892 
     43 O          27.0245  -30.3130  -40.6990 O.2       6 UNK        -0.5089 
     44 N          25.2801  -29.8885  -42.0847 N.am      7 UNK        -0.4243 
     45 CA         24.7137  -31.2377  -42.1156 C.3       7 UNK         0.0196 
     46 CB         23.8062  -31.3594  -43.3503 C.3       7 UNK        -0.2007 
     47 C          23.9090  -31.5556  -40.8455 C.2       7 UNK         0.5020 
     48 O          23.4140  -30.6456  -40.1794 O.2       7 UNK        -0.5147 
     49 N          23.7478  -32.8523  -40.5634 N.am      8 UNK        -0.4734 
     50 CA         22.8383  -33.3555  -39.5329 C.3       8 UNK         0.0238 
     51 CB         23.3743  -34.6962  -39.0030 C.3       8 UNK        -0.1912 
     52 C          21.4262  -33.5348  -40.1144 C.2       8 UNK         0.5038 
     53 O          21.2937  -33.8494  -41.3006 O.2       8 UNK        -0.5046 
     54 N          20.4123  -33.3795  -39.2580 N.am      9 UNK        -0.4200 
     55 CA         18.9962  -33.6341  -39.5563 C.3       9 UNK         0.0839 
     56 C          18.4101  -34.6175  -38.5123 C.2       9 UNK         0.5513 
     57 N          17.4260  -35.4174  -38.8983 N.am      9 UNK        -0.7519 
     58 O          18.8151  -34.6413  -37.3510 O.2       9 UNK        -0.4960 
     59 C59        18.1586  -32.3275  -39.6032 C.3       10 UNK        -0.0876 
     60 S60        18.6728  -31.1923  -40.9337 S.3       10 UNK        -0.2414 
     61 C61        17.6950  -31.8429  -42.3260 C.3       10 UNK         0.0169 
     62 H62        16.5489  -29.1443  -41.7972 H         1 UNK         0.0903 
     63 H63        17.1942  -28.1322  -40.5032 H         1 UNK         0.0903 
     64 H64        15.4547  -28.1890  -40.8019 H         1 UNK         0.0903 
     65 H65        17.2320  -28.2203  -43.7373 H         1 UNK         0.3096 
     66 H66        16.4447  -25.4712  -44.3644 H         1 UNK         0.1121 
     67 H67        16.7714  -26.0247  -46.6620 H         1 UNK         0.0849 
     68 H68        17.7536  -27.4063  -46.3153 H         1 UNK         0.0849 
     69 H69        15.1251  -30.2196  -46.4402 H         1 UNK         0.0865 
     70 H70        16.2531  -29.5007  -47.5533 H         1 UNK         0.0865 
     71 H71        15.8688  -30.7539  -44.0477 H         1 UNK         0.1346 
     72 H72        20.0941  -31.2919  -43.5089 H         1 UNK         0.1412 
     73 H73        18.5853  -29.4705  -47.0859 H         1 UNK         0.1426 
     74 H74        21.5910  -29.9884  -44.9377 H         1 UNK         0.0716 
     75 H75        21.2938  -31.0205  -46.3185 H         1 UNK         0.0716 
     76 H76        23.4494  -28.8296  -46.1180 H         1 UNK         0.0695 
     77 H77        23.2349  -27.5975  -47.3158 H         1 UNK         0.0695 
     78 H78        23.6304  -26.3099  -45.4365 H         1 UNK         0.0983 
     79 H79        20.8242  -26.3474  -46.0952 H         1 UNK         0.3095 
     80 H80        20.0733  -23.2373  -44.5549 H         1 UNK         0.0454 
     81 H81        20.3836  -23.8522  -47.5399 H         1 UNK         0.0851 
     82 H82        19.4544  -22.5286  -46.8346 H         1 UNK         0.0851 
     83 H83        21.2015  -22.5526  -46.6847 H         1 UNK         0.0851 
     84 H84        18.3490  -24.6266  -46.1689 H         1 UNK         0.2976 
     85 H85        20.8593  -26.9006  -43.4588 H         1 UNK         0.3116 
     86 H86        21.9603  -28.9299  -41.7584 H         1 UNK         0.0646 
     87 H87        19.7510  -26.9147  -41.1206 H         1 UNK         0.0847 
     88 H88        20.0447  -28.4538  -40.3314 H         1 UNK         0.0847 
     89 H89        19.5030  -28.4247  -42.0019 H         1 UNK         0.0847 
     90 H90        22.9425  -25.7339  -42.1074 H         1 UNK         0.3040 
     91 H91        23.8986  -25.2133  -39.4151 H         1 UNK         0.1015 
     92 H92        23.5911  -23.3829  -41.0785 H         1 UNK         0.0786 
     93 H93        24.7855  -24.1199  -42.1458 H         1 UNK         0.0786 
     94 H94        25.2730  -23.4779  -40.5824 H         1 UNK         0.0786 
     95 H95        24.9259  -27.2740  -42.0471 H         1 UNK         0.3172 
     96 H96        27.5133  -27.8878  -40.6602 H         1 UNK         0.0595 
     97 H97        27.9302  -26.7809  -42.8408 H         1 UNK         0.0839 
     98 H98        26.8889  -27.9421  -43.6619 H         1 UNK         0.0839 
     99 H99        28.3912  -28.4739  -42.9168 H         1 UNK         0.0839 
    100 H100       24.7766  -29.1831  -42.6186 H         1 UNK         0.2998 
    101 H101       25.5315  -31.9560  -42.2055 H         1 UNK         0.0822 
    102 H102       24.3375  -31.1035  -44.2673 H         1 UNK         0.0787 
    103 H103       23.4276  -32.3761  -43.4641 H         1 UNK         0.0787 
    104 H104       22.9429  -30.7003  -43.2649 H         1 UNK         0.0787 
    105 H105       24.1294  -33.5406  -41.1967 H         1 UNK         0.3055 
    106 H106       22.7945  -32.6448  -38.7039 H         1 UNK         0.1106 
    107 H107       22.7325  -35.0896  -38.2135 H         1 UNK         0.0828 
    108 H108       23.4240  -35.4518  -39.7882 H         1 UNK         0.0828 
    109 H109       24.3732  -34.5848  -38.5808 H         1 UNK         0.0828 
    110 H110       20.6088  -33.1862  -38.2859 H         1 UNK         0.2931 
    111 H111       18.9144  -34.1245  -40.5284 H         1 UNK         0.0412 
    112 H112       17.0812  -35.4031  -39.8459 H         1 UNK         0.3472 
    113 H113       17.0230  -36.0560  -38.2297 H         1 UNK         0.3472 
    114 H114       18.2382  -31.7930  -38.6548 H         1 UNK         0.0970 
    115 H115       17.0975  -32.5508  -39.7304 H         1 UNK         0.0970 
    116 H116       17.9361  -32.8969  -42.4691 H         1 UNK         0.0612 
    117 H117       16.6371  -31.7959  -42.0633 H         1 UNK         0.0612 
@<TRIPOS>BOND
     1    1    2 1    
     2    1   62 1    
     3    1   63 1    
     4    1   64 1    
     5    2    3 2    
     6    2    4 am   BACKBONE|DICT|INTERRES
     7    4    5 1    
     8    4   65 1    
     9    5    6 1    
    10    5   25 1    
    11    5   66 1    
    12    6    7 1    
    13    6   67 1    
    14    6   68 1    
    15    7    8 1    
    16    8    9 1    
    17    8   69 1    
    18    8   70 1    
    19    9   10 ar   
    20    9   14 ar   
    21   10   11 ar   
    22   10   71 1    
    23   11   12 ar   
    24   11   61 1    
    25   12   13 ar   
    26   12   72 1    
    27   13   14 ar   
    28   13   15 1    
    29   14   73 1    
    30   15   16 1    
    31   15   74 1    
    32   15   75 1    
    33   16   17 1    
    34   17   18 1    
    35   17   76 1    
    36   17   77 1    
    37   18   19 1    
    38   18   27 1    
    39   18   78 1    
    40   19   20 am   BACKBONE|DICT|INTERRES
    41   19   79 1    
    42   20   21 2    
    43   20   22 1    
    44   22   23 1    
    45   22   24 1    
    46   22   80 1    
    47   23   81 1    
    48   23   82 1    
    49   23   83 1    
    50   24   25 am   BACKBONE|DICT|INTERRES
    51   24   84 1    
    52   25   26 2    
    53   27   28 2    
    54   27   29 am   BACKBONE|DICT|INTERRES
    55   29   30 1    
    56   29   85 1    
    57   30   31 1    
    58   30   32 1    
    59   30   86 1    
    60   31   87 1    
    61   31   88 1    
    62   31   89 1    
    63   32   33 2    
    64   32   34 am   BACKBONE|DICT|INTERRES
    65   34   35 1    
    66   34   90 1    
    67   35   36 1    
    68   35   37 1    
    69   35   91 1    
    70   36   92 1    
    71   36   93 1    
    72   36   94 1    
    73   37   38 2    
    74   37   39 am   BACKBONE|DICT|INTERRES
    75   39   40 1    
    76   39   95 1    
    77   40   41 1    
    78   40   42 1    
    79   40   96 1    
    80   41   97 1    
    81   41   98 1    
    82   41   99 1    
    83   42   43 2    
    84   42   44 am   BACKBONE|DICT|INTERRES
    85   44   45 1    
    86   44  100 1    
    87   45   46 1    
    88   45   47 1    
    89   45  101 1    
    90   46  102 1    
    91   46  103 1    
    92   46  104 1    
    93   47   48 2    
    94   47   49 am   BACKBONE|DICT|INTERRES
    95   49   50 1    
    96   49  105 1    
    97   50   51 1    
    98   50   52 1    
    99   50  106 1    
   100   51  107 1    
   101   51  108 1    
   102   51  109 1    
   103   52   53 2    
   104   52   54 am   BACKBONE|DICT|INTERRES
   105   54   55 1    
   106   54  110 1    
   107   55   56 1    
   108   55   59 1    
   109   55  111 1    
   110   56   57 am   BACKBONE|DICT|INTERRES
   111   56   58 2    
   112   57  112 1    
   113   57  113 1    
   114   59   60 1    
   115   59  114 1    
   116   59  115 1    
   117   60   61 1    
   118   61  116 1    
   119   61  117 1    
@<TRIPOS>SUBSTRUCTURE
     1 UNK         1 GROUP             0       ****    0 ROOT    
