@<TRIPOS>MOLECULE
3R8
117   119    1
SMALL
USER_CHARGES


@<TRIPOS>ATOM
      1 CA         18.2345  -26.8986  -41.4313 C.3       0 UNK        -0.2013 
      2 C          17.5277  -26.0309  -42.4579 C.2       0 UNK         0.4866 
      3 O          17.5096  -24.8061  -42.3244 O.2       0 UNK        -0.5176 
      4 N          16.9611  -26.6491  -43.5019 N.am      1 UNK        -0.4884 
      5 CA         16.2915  -25.9741  -44.6230 C.3       1 UNK         0.0853 
      6 C6         15.1861  -26.8514  -45.2775 C.3       10 UNK        -0.0849 
      7 S7         14.0813  -27.6595  -44.0641 S.3       10 UNK        -0.2776 
      8 C8         14.4026  -29.4320  -44.3678 C.3       10 UNK         0.0316 
      9 C9         15.8689  -29.8101  -44.1882 C.ar      10 UNK        -0.0863 
     10 C10        16.4075  -29.9770  -42.9085 C.ar      10 UNK        -0.1009 
     11 C11        17.7519  -30.3273  -42.7448 C.ar      10 UNK        -0.0712 
     12 C12        18.5602  -30.5036  -43.8725 C.ar      10 UNK        -0.0894 
     13 C13        18.0308  -30.3520  -45.1565 C.ar      10 UNK        -0.0745 
     14 C14        16.6844  -30.0111  -45.3069 C.ar      10 UNK        -0.0972 
     15 C15        18.9004  -30.5819  -46.3851 C.3       10 UNK         0.0209 
     16 S16        19.6082  -29.0312  -47.0246 S.3       10 UNK        -0.2568 
     17 C17        20.9722  -28.7593  -45.8468 C.3       10 UNK        -0.0983 
     18 CA         21.8701  -27.5449  -46.2246 C.3       3 UNK         0.0876 
     19 N          21.1146  -26.2840  -46.3373 N.am      3 UNK        -0.4424 
     20 C          20.4744  -25.6600  -45.3374 C.2       2 UNK         0.4918 
     21 O          20.5268  -26.0240  -44.1614 O.2       2 UNK        -0.4875 
     22 CA         19.6248  -24.4194  -45.6774 C.3       2 UNK         0.0481 
     23 CB         19.6567  -23.9773  -47.1593 C.3       2 UNK        -0.1831 
     24 N          18.2652  -24.6376  -45.1747 N.am      2 UNK        -0.4498 
     25 C          17.3649  -25.5190  -45.6371 C.2       1 UNK         0.5027 
     26 O          17.4066  -26.0214  -46.7610 O.2       1 UNK        -0.4969 
     27 C          23.1006  -27.4276  -45.2908 C.2       3 UNK         0.5005 
     28 O          23.4851  -28.4112  -44.6543 O.2       3 UNK        -0.5279 
     29 N          23.6754  -26.2180  -45.1876 N.am      4 UNK        -0.4463 
     30 CA         24.7804  -25.7837  -44.3150 C.3       4 UNK         0.0283 
     31 CB         26.0789  -26.5586  -44.6154 C.3       4 UNK        -0.1875 
     32 C          24.4693  -25.8027  -42.8037 C.2       4 UNK         0.4949 
     33 O          24.9302  -24.9092  -42.0938 O.2       4 UNK        -0.5039 
     34 N          23.7094  -26.8065  -42.3426 N.am      5 UNK        -0.4663 
     35 CA         23.2754  -27.0603  -40.9611 C.3       5 UNK         0.0242 
     36 CB         22.3342  -25.9419  -40.4660 C.3       5 UNK        -0.1982 
     37 C          24.4418  -27.3433  -39.9911 C.2       5 UNK         0.5017 
     38 O          24.3209  -27.0956  -38.7904 O.2       5 UNK        -0.5012 
     39 N          25.5468  -27.8787  -40.5292 N.am      6 UNK        -0.4439 
     40 CA         26.7530  -28.2645  -39.7893 C.3       6 UNK         0.0297 
     41 CB         27.9415  -28.2900  -40.7653 C.3       6 UNK        -0.2006 
     42 C          26.6207  -29.6186  -39.0639 C.2       6 UNK         0.4892 
     43 O          27.4833  -29.9515  -38.2502 O.2       6 UNK        -0.5089 
     44 N          25.5626  -30.3745  -39.3734 N.am      7 UNK        -0.4243 
     45 CA         25.2131  -31.6647  -38.7913 C.3       7 UNK         0.0196 
     46 CB         25.8560  -32.7910  -39.6226 C.3       7 UNK        -0.2007 
     47 C          23.6838  -31.7831  -38.7677 C.2       7 UNK         0.5020 
     48 O          22.9913  -30.9299  -39.3327 O.2       7 UNK        -0.5147 
     49 N          23.1781  -32.8498  -38.1358 N.am      8 UNK        -0.4734 
     50 CA         21.7520  -33.1727  -38.0016 C.3       8 UNK         0.0238 
     51 CB         21.5778  -34.1813  -36.8502 C.3       8 UNK        -0.1912 
     52 C          21.1274  -33.6703  -39.3225 C.2       8 UNK         0.5038 
     53 O          20.7006  -34.8230  -39.4126 O.2       8 UNK        -0.5046 
     54 N          21.1082  -32.7832  -40.3228 N.am      9 UNK        -0.4200 
     55 CA         20.5641  -32.9708  -41.6777 C.3       9 UNK         0.0839 
     56 C          21.3641  -33.9603  -42.5776 C.2       9 UNK         0.5513 
     57 N          22.5725  -34.3661  -42.2068 N.am      9 UNK        -0.7519 
     58 O          20.8979  -34.3411  -43.6483 O.2       9 UNK        -0.4960 
     59 C59        19.0307  -33.2509  -41.7053 C.3       10 UNK        -0.0876 
     60 S60        18.0152  -32.1493  -40.6556 S.3       10 UNK        -0.2414 
     61 C61        18.3340  -30.4968  -41.3489 C.3       10 UNK         0.0169 
     62 H62        18.9033  -26.2971  -40.8161 H         1 UNK         0.0903 
     63 H63        17.5077  -27.3791  -40.7776 H         1 UNK         0.0903 
     64 H64        18.8348  -27.6632  -41.9234 H         1 UNK         0.0903 
     65 H65        17.0061  -27.6575  -43.5749 H         1 UNK         0.3096 
     66 H66        15.8014  -25.0734  -44.2457 H         1 UNK         0.1121 
     67 H67        14.5700  -26.2332  -45.9327 H         1 UNK         0.0849 
     68 H68        15.6169  -27.6125  -45.9269 H         1 UNK         0.0849 
     69 H69        13.7910  -30.0226  -43.6841 H         1 UNK         0.0865 
     70 H70        14.0612  -29.6884  -45.3721 H         1 UNK         0.0865 
     71 H71        15.7796  -29.8338  -42.0393 H         1 UNK         0.1346 
     72 H72        19.6017  -30.7659  -43.7554 H         1 UNK         0.1412 
     73 H73        16.2745  -29.8975  -46.3015 H         1 UNK         0.1426 
     74 H74        18.3019  -31.0413  -47.1731 H         1 UNK         0.0716 
     75 H75        19.6998  -31.2909  -46.1637 H         1 UNK         0.0716 
     76 H76        21.5624  -29.6771  -45.8169 H         1 UNK         0.0695 
     77 H77        20.5525  -28.6306  -44.8479 H         1 UNK         0.0695 
     78 H78        22.2825  -27.7404  -47.2157 H         1 UNK         0.0983 
     79 H79        21.0043  -25.9232  -47.2740 H         1 UNK         0.3095 
     80 H80        20.0345  -23.5993  -45.0863 H         1 UNK         0.0454 
     81 H81        19.3401  -24.7633  -47.8449 H         1 UNK         0.0851 
     82 H82        20.6617  -23.6722  -47.4528 H         1 UNK         0.0851 
     83 H83        19.0053  -23.1190  -47.3229 H         1 UNK         0.0851 
     84 H84        18.1313  -24.3568  -44.2074 H         1 UNK         0.2976 
     85 H85        23.2537  -25.4774  -45.7309 H         1 UNK         0.3116 
     86 H86        24.9600  -24.7394  -44.5760 H         1 UNK         0.0646 
     87 H87        25.9936  -27.6171  -44.3689 H         1 UNK         0.0847 
     88 H88        26.9119  -26.1597  -44.0348 H         1 UNK         0.0847 
     89 H89        26.3525  -26.4810  -45.6675 H         1 UNK         0.0847 
     90 H90        23.4307  -27.5024  -43.0320 H         1 UNK         0.3040 
     91 H91        22.6923  -27.9824  -40.9944 H         1 UNK         0.1015 
     92 H92        21.5184  -25.7726  -41.1695 H         1 UNK         0.0786 
     93 H93        22.8627  -24.9978  -40.3310 H         1 UNK         0.0786 
     94 H94        21.8851  -26.2032  -39.5070 H         1 UNK         0.0786 
     95 H95        25.5514  -28.0411  -41.5260 H         1 UNK         0.3172 
     96 H96        26.9528  -27.5058  -39.0297 H         1 UNK         0.0595 
     97 H97        27.8065  -29.0370  -41.5487 H         1 UNK         0.0839 
     98 H98        28.8698  -28.5296  -40.2446 H         1 UNK         0.0839 
     99 H99        28.0833  -27.3209  -41.2445 H         1 UNK         0.0839 
    100 H100       24.8531  -29.9934  -39.9857 H         1 UNK         0.2998 
    101 H101       25.5714  -31.7125  -37.7606 H         1 UNK         0.0822 
    102 H102       26.9410  -32.6888  -39.6525 H         1 UNK         0.0787 
    103 H103       25.6393  -33.7727  -39.2003 H         1 UNK         0.0787 
    104 H104       25.4934  -32.7886  -40.6514 H         1 UNK         0.0787 
    105 H105       23.8217  -33.5123  -37.7260 H         1 UNK         0.3055 
    106 H106       21.2172  -32.2611  -37.7239 H         1 UNK         0.1106 
    107 H107       20.5247  -34.4232  -36.6991 H         1 UNK         0.0828 
    108 H108       22.1016  -35.1173  -37.0483 H         1 UNK         0.0828 
    109 H109       21.9523  -33.7789  -35.9089 H         1 UNK         0.0828 
    110 H110       21.5658  -31.8928  -40.1494 H         1 UNK         0.2931 
    111 H111       20.7229  -32.0078  -42.1600 H         1 UNK         0.0412 
    112 H112       22.9653  -34.0633  -41.3308 H         1 UNK         0.3472 
    113 H113       23.0858  -34.9972  -42.8021 H         1 UNK         0.3472 
    114 H114       18.8370  -34.2756  -41.3838 H         1 UNK         0.0970 
    115 H115       18.6505  -33.1877  -42.7263 H         1 UNK         0.0970 
    116 H116       17.8850  -29.7640  -40.6782 H         1 UNK         0.0612 
    117 H117       19.4039  -30.2868  -41.3442 H         1 UNK         0.0612 
@<TRIPOS>BOND
     1    1    2 1    
     2    1   62 1    
     3    1   63 1    
     4    1   64 1    
     5    2    3 2    
     6    2    4 am   BACKBONE|DICT|INTERRES
     7    4    5 1    
     8    4   65 1    
     9    5    6 1    
    10    5   25 1    
    11    5   66 1    
    12    6    7 1    
    13    6   67 1    
    14    6   68 1    
    15    7    8 1    
    16    8    9 1    
    17    8   69 1    
    18    8   70 1    
    19    9   10 ar   
    20    9   14 ar   
    21   10   11 ar   
    22   10   71 1    
    23   11   12 ar   
    24   11   61 1    
    25   12   13 ar   
    26   12   72 1    
    27   13   14 ar   
    28   13   15 1    
    29   14   73 1    
    30   15   16 1    
    31   15   74 1    
    32   15   75 1    
    33   16   17 1    
    34   17   18 1    
    35   17   76 1    
    36   17   77 1    
    37   18   19 1    
    38   18   27 1    
    39   18   78 1    
    40   19   20 am   BACKBONE|DICT|INTERRES
    41   19   79 1    
    42   20   21 2    
    43   20   22 1    
    44   22   23 1    
    45   22   24 1    
    46   22   80 1    
    47   23   81 1    
    48   23   82 1    
    49   23   83 1    
    50   24   25 am   BACKBONE|DICT|INTERRES
    51   24   84 1    
    52   25   26 2    
    53   27   28 2    
    54   27   29 am   BACKBONE|DICT|INTERRES
    55   29   30 1    
    56   29   85 1    
    57   30   31 1    
    58   30   32 1    
    59   30   86 1    
    60   31   87 1    
    61   31   88 1    
    62   31   89 1    
    63   32   33 2    
    64   32   34 am   BACKBONE|DICT|INTERRES
    65   34   35 1    
    66   34   90 1    
    67   35   36 1    
    68   35   37 1    
    69   35   91 1    
    70   36   92 1    
    71   36   93 1    
    72   36   94 1    
    73   37   38 2    
    74   37   39 am   BACKBONE|DICT|INTERRES
    75   39   40 1    
    76   39   95 1    
    77   40   41 1    
    78   40   42 1    
    79   40   96 1    
    80   41   97 1    
    81   41   98 1    
    82   41   99 1    
    83   42   43 2    
    84   42   44 am   BACKBONE|DICT|INTERRES
    85   44   45 1    
    86   44  100 1    
    87   45   46 1    
    88   45   47 1    
    89   45  101 1    
    90   46  102 1    
    91   46  103 1    
    92   46  104 1    
    93   47   48 2    
    94   47   49 am   BACKBONE|DICT|INTERRES
    95   49   50 1    
    96   49  105 1    
    97   50   51 1    
    98   50   52 1    
    99   50  106 1    
   100   51  107 1    
   101   51  108 1    
   102   51  109 1    
   103   52   53 2    
   104   52   54 am   BACKBONE|DICT|INTERRES
   105   54   55 1    
   106   54  110 1    
   107   55   56 1    
   108   55   59 1    
   109   55  111 1    
   110   56   57 am   BACKBONE|DICT|INTERRES
   111   56   58 2    
   112   57  112 1    
   113   57  113 1    
   114   59   60 1    
   115   59  114 1    
   116   59  115 1    
   117   60   61 1    
   118   61  116 1    
   119   61  117 1    
@<TRIPOS>SUBSTRUCTURE
     1 UNK         1 GROUP             0       ****    0 ROOT    
