@<TRIPOS>MOLECULE
3R8
117   119    1
SMALL
USER_CHARGES


@<TRIPOS>ATOM
      1 CA         17.7450  -24.9518  -46.1365 C.3       0 UNK        -0.2013 
      2 C          17.7898  -26.4118  -46.5827 C.2       0 UNK         0.4866 
      3 O          17.7204  -26.6642  -47.7838 O.2       0 UNK        -0.5176 
      4 N          17.8941  -27.4122  -45.6938 N.am      1 UNK        -0.4884 
      5 CA         18.0189  -27.3626  -44.2277 C.3       1 UNK         0.0853 
      6 C6         16.8070  -26.7412  -43.4825 C.3       10 UNK        -0.0849 
      7 S7         15.2435  -27.5929  -43.8723 S.3       10 UNK        -0.2776 
      8 C8         15.0157  -28.6375  -42.3960 C.3       10 UNK         0.0316 
      9 C9         15.9604  -29.8340  -42.3673 C.ar      10 UNK        -0.0863 
     10 C10        15.7972  -30.8707  -43.2916 C.ar      10 UNK        -0.1009 
     11 C11        16.5947  -32.0175  -43.2285 C.ar      10 UNK        -0.0712 
     12 C12        17.5732  -32.1158  -42.2349 C.ar      10 UNK        -0.0894 
     13 C13        17.7488  -31.0875  -41.3032 C.ar      10 UNK        -0.0745 
     14 C14        16.9460  -29.9436  -41.3792 C.ar      10 UNK        -0.0972 
     15 C15        18.7582  -31.2573  -40.1760 C.3       10 UNK         0.0209 
     16 S16        20.4187  -30.6891  -40.6468 S.3       10 UNK        -0.2568 
     17 C17        20.4238  -29.0010  -39.9709 C.3       10 UNK        -0.0983 
     18 CA         21.6102  -28.1596  -40.4996 C.3       3 UNK         0.0876 
     19 N          21.5193  -27.9593  -41.9528 N.am      3 UNK        -0.4424 
     20 C          22.3381  -27.2265  -42.7226 C.2       2 UNK         0.4918 
     21 O          23.4100  -26.7749  -42.3255 O.2       2 UNK        -0.4875 
     22 CA         21.8462  -26.8337  -44.1326 C.3       2 UNK         0.0481 
     23 CB         22.7919  -27.3577  -45.2257 C.3       2 UNK        -0.1831 
     24 N          20.4573  -27.2094  -44.4373 N.am      2 UNK        -0.4498 
     25 C          19.3712  -26.7748  -43.7783 C.2       1 UNK         0.5027 
     26 O          19.4243  -25.9715  -42.8440 O.2       1 UNK        -0.4969 
     27 C          21.7041  -26.8404  -39.6995 C.2       3 UNK         0.5005 
     28 O          22.2723  -26.8396  -38.6073 O.2       3 UNK        -0.5279 
     29 N          21.1776  -25.7388  -40.2579 N.am      4 UNK        -0.4463 
     30 CA         21.3296  -24.3806  -39.7311 C.3       4 UNK         0.0283 
     31 CB         20.4186  -23.4345  -40.5297 C.3       4 UNK        -0.1875 
     32 C          22.7836  -23.8621  -39.7455 C.2       4 UNK         0.4949 
     33 O          23.1027  -22.9757  -38.9527 O.2       4 UNK        -0.5039 
     34 N          23.6274  -24.4034  -40.6362 N.am      5 UNK        -0.4663 
     35 CA         25.0377  -24.0387  -40.7890 C.3       5 UNK         0.0242 
     36 CB         25.2967  -23.6412  -42.2523 C.3       5 UNK        -0.1982 
     37 C          25.9784  -25.1813  -40.3738 C.2       5 UNK         0.5017 
     38 O          26.9930  -24.9141  -39.7289 O.2       5 UNK        -0.5012 
     39 N          25.6444  -26.4205  -40.7553 N.am      6 UNK        -0.4439 
     40 CA         26.4444  -27.6203  -40.5272 C.3       6 UNK         0.0297 
     41 CB         27.4822  -27.7854  -41.6577 C.3       6 UNK        -0.2006 
     42 C          25.5143  -28.8303  -40.3603 C.2       6 UNK         0.4892 
     43 O          25.0730  -29.0949  -39.2421 O.2       6 UNK        -0.5089 
     44 N          25.2335  -29.5438  -41.4568 N.am      7 UNK        -0.4243 
     45 CA         24.3990  -30.7428  -41.5061 C.3       7 UNK         0.0196 
     46 CB         25.2557  -31.9844  -41.1994 C.3       7 UNK        -0.2007 
     47 C          23.7561  -30.8470  -42.8936 C.2       7 UNK         0.5020 
     48 O          24.2625  -30.2514  -43.8475 O.2       7 UNK        -0.5147 
     49 N          22.6667  -31.6136  -42.9840 N.am      8 UNK        -0.4734 
     50 CA         21.9070  -31.8775  -44.2026 C.3       8 UNK         0.0238 
     51 CB         20.8368  -30.7879  -44.3954 C.3       8 UNK        -0.1912 
     52 C          21.2331  -33.2473  -44.0871 C.2       8 UNK         0.5038 
     53 O          21.0713  -33.7582  -42.9752 O.2       8 UNK        -0.5046 
     54 N          20.8114  -33.7815  -45.2396 N.am      9 UNK        -0.4200 
     55 CA         19.9794  -34.9898  -45.3799 C.3       9 UNK         0.0839 
     56 C          20.6684  -36.3220  -44.9519 C.2       9 UNK         0.5513 
     57 N          21.9908  -36.3759  -44.8467 N.am      9 UNK        -0.7519 
     58 O          20.0015  -37.3328  -44.7447 O.2       9 UNK        -0.4960 
     59 C59        18.5637  -34.8141  -44.7566 C.3       10 UNK        -0.0876 
     60 S60        17.6734  -33.3609  -45.4188 S.3       10 UNK        -0.2414 
     61 C61        16.3448  -33.1727  -44.1902 C.3       10 UNK         0.0169 
     62 H62        16.7272  -24.6752  -45.8639 H         1 UNK         0.0903 
     63 H63        18.4025  -24.7387  -45.2972 H         1 UNK         0.0903 
     64 H64        18.0538  -24.3021  -46.9551 H         1 UNK         0.0903 
     65 H65        17.8812  -28.3508  -46.0686 H         1 UNK         0.3096 
     66 H66        18.0629  -28.4074  -43.9135 H         1 UNK         0.1121 
     67 H67        16.6936  -25.6833  -43.7168 H         1 UNK         0.0849 
     68 H68        16.9633  -26.7819  -42.4028 H         1 UNK         0.0849 
     69 H69        15.1207  -28.0301  -41.4956 H         1 UNK         0.0865 
     70 H70        13.9884  -29.0046  -42.3880 H         1 UNK         0.0865 
     71 H71        15.0248  -30.7931  -44.0449 H         1 UNK         0.1346 
     72 H72        18.1855  -33.0044  -42.1694 H         1 UNK         0.1412 
     73 H73        17.0645  -29.1573  -40.6462 H         1 UNK         0.1426 
     74 H74        18.8222  -32.3113  -39.9012 H         1 UNK         0.0716 
     75 H75        18.4223  -30.7364  -39.2780 H         1 UNK         0.0716 
     76 H76        20.4646  -29.0894  -38.8831 H         1 UNK         0.0695 
     77 H77        19.4746  -28.5162  -40.2074 H         1 UNK         0.0695 
     78 H78        22.5352  -28.6991  -40.3020 H         1 UNK         0.0983 
     79 H79        20.6744  -28.3095  -42.3755 H         1 UNK         0.3095 
     80 H80        21.8884  -25.7431  -44.1682 H         1 UNK         0.0454 
     81 H81        22.5110  -26.9792  -46.2084 H         1 UNK         0.0851 
     82 H82        22.8082  -28.4451  -45.2776 H         1 UNK         0.0851 
     83 H83        23.8172  -27.0340  -45.0406 H         1 UNK         0.0851 
     84 H84        20.3205  -27.8359  -45.2180 H         1 UNK         0.2976 
     85 H85        20.6802  -25.8298  -41.1380 H         1 UNK         0.3116 
     86 H86        20.9934  -24.3850  -38.6922 H         1 UNK         0.0646 
     87 H87        20.6930  -23.4058  -41.5851 H         1 UNK         0.0847 
     88 H88        20.4821  -22.4147  -40.1476 H         1 UNK         0.0847 
     89 H89        19.3739  -23.7394  -40.4647 H         1 UNK         0.0847 
     90 H90        23.2917  -25.1518  -41.2320 H         1 UNK         0.3040 
     91 H91        25.2788  -23.1782  -40.1607 H         1 UNK         0.1015 
     92 H92        25.0694  -24.4559  -42.9413 H         1 UNK         0.0786 
     93 H93        26.3416  -23.3666  -42.4037 H         1 UNK         0.0786 
     94 H94        24.6913  -22.7816  -42.5403 H         1 UNK         0.0786 
     95 H95        24.7883  -26.5586  -41.2925 H         1 UNK         0.3172 
     96 H96        26.9863  -27.5185  -39.5843 H         1 UNK         0.0595 
     97 H97        27.0217  -27.7675  -42.6461 H         1 UNK         0.0839 
     98 H98        28.0261  -28.7260  -41.5591 H         1 UNK         0.0839 
     99 H99        28.2215  -26.9847  -41.6277 H         1 UNK         0.0839 
    100 H100       25.5647  -29.2320  -42.3614 H         1 UNK         0.2998 
    101 H101       23.6012  -30.6684  -40.7653 H         1 UNK         0.0822 
    102 H102       24.6561  -32.8949  -41.2339 H         1 UNK         0.0787 
    103 H103       26.0680  -32.0992  -41.9182 H         1 UNK         0.0787 
    104 H104       25.6958  -31.9263  -40.2037 H         1 UNK         0.0787 
    105 H105       22.3222  -32.1110  -42.1708 H         1 UNK         0.3055 
    106 H106       22.5873  -31.8894  -45.0575 H         1 UNK         0.1106 
    107 H107       20.3389  -30.8893  -45.3604 H         1 UNK         0.0828 
    108 H108       20.0646  -30.8387  -43.6265 H         1 UNK         0.0828 
    109 H109       21.2772  -29.7975  -44.3562 H         1 UNK         0.0828 
    110 H110       21.0008  -33.2906  -46.1011 H         1 UNK         0.2931 
    111 H111       19.8341  -35.1031  -46.4549 H         1 UNK         0.0412 
    112 H112       22.5509  -35.5570  -45.0213 H         1 UNK         0.3472 
    113 H113       22.4309  -37.2428  -44.5802 H         1 UNK         0.3472 
    114 H114       17.9471  -35.6923  -44.9564 H         1 UNK         0.0970 
    115 H115       18.6362  -34.7375  -43.6713 H         1 UNK         0.0970 
    116 H116       16.2167  -34.0974  -43.6257 H         1 UNK         0.0612 
    117 H117       15.4076  -33.0205  -44.7276 H         1 UNK         0.0612 
@<TRIPOS>BOND
     1    1    2 1    
     2    1   62 1    
     3    1   63 1    
     4    1   64 1    
     5    2    3 2    
     6    2    4 am   BACKBONE|DICT|INTERRES
     7    4    5 1    
     8    4   65 1    
     9    5    6 1    
    10    5   25 1    
    11    5   66 1    
    12    6    7 1    
    13    6   67 1    
    14    6   68 1    
    15    7    8 1    
    16    8    9 1    
    17    8   69 1    
    18    8   70 1    
    19    9   10 ar   
    20    9   14 ar   
    21   10   11 ar   
    22   10   71 1    
    23   11   12 ar   
    24   11   61 1    
    25   12   13 ar   
    26   12   72 1    
    27   13   14 ar   
    28   13   15 1    
    29   14   73 1    
    30   15   16 1    
    31   15   74 1    
    32   15   75 1    
    33   16   17 1    
    34   17   18 1    
    35   17   76 1    
    36   17   77 1    
    37   18   19 1    
    38   18   27 1    
    39   18   78 1    
    40   19   20 am   BACKBONE|DICT|INTERRES
    41   19   79 1    
    42   20   21 2    
    43   20   22 1    
    44   22   23 1    
    45   22   24 1    
    46   22   80 1    
    47   23   81 1    
    48   23   82 1    
    49   23   83 1    
    50   24   25 am   BACKBONE|DICT|INTERRES
    51   24   84 1    
    52   25   26 2    
    53   27   28 2    
    54   27   29 am   BACKBONE|DICT|INTERRES
    55   29   30 1    
    56   29   85 1    
    57   30   31 1    
    58   30   32 1    
    59   30   86 1    
    60   31   87 1    
    61   31   88 1    
    62   31   89 1    
    63   32   33 2    
    64   32   34 am   BACKBONE|DICT|INTERRES
    65   34   35 1    
    66   34   90 1    
    67   35   36 1    
    68   35   37 1    
    69   35   91 1    
    70   36   92 1    
    71   36   93 1    
    72   36   94 1    
    73   37   38 2    
    74   37   39 am   BACKBONE|DICT|INTERRES
    75   39   40 1    
    76   39   95 1    
    77   40   41 1    
    78   40   42 1    
    79   40   96 1    
    80   41   97 1    
    81   41   98 1    
    82   41   99 1    
    83   42   43 2    
    84   42   44 am   BACKBONE|DICT|INTERRES
    85   44   45 1    
    86   44  100 1    
    87   45   46 1    
    88   45   47 1    
    89   45  101 1    
    90   46  102 1    
    91   46  103 1    
    92   46  104 1    
    93   47   48 2    
    94   47   49 am   BACKBONE|DICT|INTERRES
    95   49   50 1    
    96   49  105 1    
    97   50   51 1    
    98   50   52 1    
    99   50  106 1    
   100   51  107 1    
   101   51  108 1    
   102   51  109 1    
   103   52   53 2    
   104   52   54 am   BACKBONE|DICT|INTERRES
   105   54   55 1    
   106   54  110 1    
   107   55   56 1    
   108   55   59 1    
   109   55  111 1    
   110   56   57 am   BACKBONE|DICT|INTERRES
   111   56   58 2    
   112   57  112 1    
   113   57  113 1    
   114   59   60 1    
   115   59  114 1    
   116   59  115 1    
   117   60   61 1    
   118   61  116 1    
   119   61  117 1    
@<TRIPOS>SUBSTRUCTURE
     1 UNK         1 GROUP             0       ****    0 ROOT    
