@<TRIPOS>MOLECULE
3R8
117   119    1
SMALL
USER_CHARGES


@<TRIPOS>ATOM
      1 CA         19.4016  -24.1868  -49.1691 C.3       0 UNK        -0.2013 
      2 C          18.5940  -24.5987  -47.9473 C.2       0 UNK         0.4866 
      3 O          17.8794  -23.7696  -47.3839 O.2       0 UNK        -0.5176 
      4 N          18.7086  -25.8711  -47.5401 N.am      1 UNK        -0.4884 
      5 CA         18.0228  -26.4914  -46.3949 C.3       1 UNK         0.0853 
      6 C6         16.4902  -26.6494  -46.5996 C.3       10 UNK        -0.0849 
      7 S7         16.1396  -27.8669  -47.9155 S.3       10 UNK        -0.2776 
      8 C8         15.4692  -29.2888  -46.9809 C.3       10 UNK         0.0316 
      9 C9         16.3334  -29.7063  -45.7934 C.ar      10 UNK        -0.0863 
     10 C10        17.6787  -30.0475  -45.9715 C.ar      10 UNK        -0.1009 
     11 C11        18.4715  -30.3911  -44.8732 C.ar      10 UNK        -0.0712 
     12 C12        17.8979  -30.4481  -43.6019 C.ar      10 UNK        -0.0894 
     13 C13        16.5522  -30.1259  -43.4052 C.ar      10 UNK        -0.0745 
     14 C14        15.7789  -29.7507  -44.5087 C.ar      10 UNK        -0.0972 
     15 C15        15.9052  -30.2015  -42.0215 C.3       10 UNK         0.0209 
     16 S16        17.0078  -29.7644  -40.6290 S.3       10 UNK        -0.2568 
     17 C17        17.4195  -28.0293  -41.0081 C.3       10 UNK        -0.0983 
     18 CA         18.9407  -27.8278  -41.2310 C.3       3 UNK         0.0876 
     19 N          19.1940  -26.7003  -42.1285 N.am      3 UNK        -0.4424 
     20 C          20.3860  -26.2715  -42.5587 C.2       2 UNK         0.4918 
     21 O          21.4612  -26.7439  -42.1860 O.2       2 UNK        -0.4875 
     22 CA         20.3526  -25.1599  -43.6283 C.3       2 UNK         0.0481 
     23 CB         21.7546  -24.6235  -43.9723 C.3       2 UNK        -0.1831 
     24 N          19.7236  -25.6385  -44.8618 N.am      2 UNK        -0.4498 
     25 C          18.4107  -25.8351  -45.0535 C.2       1 UNK         0.5027 
     26 O          17.5515  -25.5486  -44.2159 O.2       1 UNK        -0.4969 
     27 C          19.7006  -27.6870  -39.8966 C.2       3 UNK         0.5005 
     28 O          19.5057  -26.6934  -39.1931 O.2       3 UNK        -0.5279 
     29 N          20.5744  -28.6606  -39.6031 N.am      4 UNK        -0.4463 
     30 CA         21.4531  -28.7824  -38.4307 C.3       4 UNK         0.0283 
     31 CB         20.6517  -28.7660  -37.1130 C.3       4 UNK        -0.1875 
     32 C          22.6347  -27.7924  -38.3909 C.2       4 UNK         0.4949 
     33 O          23.5514  -28.0022  -37.5956 O.2       4 UNK        -0.5039 
     34 N          22.6294  -26.7603  -39.2452 N.am      5 UNK        -0.4663 
     35 CA         23.7833  -25.8959  -39.5020 C.3       5 UNK         0.0242 
     36 CB         23.3036  -24.5296  -40.0136 C.3       5 UNK        -0.1982 
     37 C          24.7457  -26.5644  -40.4975 C.2       5 UNK         0.5017 
     38 O          25.9616  -26.4685  -40.3255 O.2       5 UNK        -0.5012 
     39 N          24.1811  -27.2651  -41.4914 N.am      6 UNK        -0.4439 
     40 CA         24.8754  -28.2137  -42.3602 C.3       6 UNK         0.0297 
     41 CB         23.9278  -28.6205  -43.5013 C.3       6 UNK        -0.2006 
     42 C          25.3256  -29.4581  -41.5740 C.2       6 UNK         0.4892 
     43 O          24.6921  -29.8229  -40.5803 O.2       6 UNK        -0.5089 
     44 N          26.4014  -30.1001  -42.0471 N.am      7 UNK        -0.4243 
     45 CA         26.9492  -31.3291  -41.4701 C.3       7 UNK         0.0196 
     46 CB         28.2982  -31.6505  -42.1343 C.3       7 UNK        -0.2007 
     47 C          25.9667  -32.5003  -41.6290 C.2       7 UNK         0.5020 
     48 O          25.5903  -32.8209  -42.7584 O.2       7 UNK        -0.5147 
     49 N          25.5584  -33.0932  -40.4986 N.am      8 UNK        -0.4734 
     50 CA         24.6270  -34.2214  -40.3211 C.3       8 UNK         0.0238 
     51 CB         25.1693  -35.5004  -40.9894 C.3       8 UNK        -0.1912 
     52 C          23.1677  -33.9599  -40.7476 C.2       8 UNK         0.5038 
     53 O          22.2569  -34.4278  -40.0636 O.2       8 UNK        -0.5046 
     54 N          22.9693  -33.2492  -41.8617 N.am      9 UNK        -0.4200 
     55 CA         21.6743  -32.8914  -42.4452 C.3       9 UNK         0.0839 
     56 C          20.8991  -31.8792  -41.5566 C.2       9 UNK         0.5513 
     57 N          19.8277  -32.3112  -40.9057 N.am      9 UNK        -0.7519 
     58 O          21.2372  -30.7003  -41.4822 O.2       9 UNK        -0.4960 
     59 C59        21.8672  -32.3989  -43.9034 C.3       10 UNK        -0.0876 
     60 S60        20.3209  -32.4423  -44.8714 S.3       10 UNK        -0.2414 
     61 C61        19.9560  -30.6680  -45.0358 C.3       10 UNK         0.0169 
     62 H62        19.9859  -25.0139  -49.5718 H         1 UNK         0.0903 
     63 H63        18.7363  -23.8289  -49.9544 H         1 UNK         0.0903 
     64 H64        20.0881  -23.3810  -48.9107 H         1 UNK         0.0903 
     65 H65        19.3065  -26.4941  -48.0659 H         1 UNK         0.3096 
     66 H66        18.4413  -27.4941  -46.3169 H         1 UNK         0.1121 
     67 H67        16.0308  -25.6954  -46.8619 H         1 UNK         0.0849 
     68 H68        15.9957  -26.9731  -45.6823 H         1 UNK         0.0849 
     69 H69        14.4591  -29.0380  -46.6530 H         1 UNK         0.0865 
     70 H70        15.3657  -30.1378  -47.6578 H         1 UNK         0.0865 
     71 H71        18.1135  -30.0125  -46.9613 H         1 UNK         0.1346 
     72 H72        18.5098  -30.7434  -42.7634 H         1 UNK         0.1412 
     73 H73        14.7366  -29.4983  -44.3664 H         1 UNK         0.1426 
     74 H74        15.5431  -31.2187  -41.8679 H         1 UNK         0.0716 
     75 H75        15.0289  -29.5527  -41.9784 H         1 UNK         0.0716 
     76 H76        17.0379  -27.3871  -40.2118 H         1 UNK         0.0695 
     77 H77        16.8669  -27.7370  -41.9027 H         1 UNK         0.0695 
     78 H78        19.3330  -28.7001  -41.7570 H         1 UNK         0.0983 
     79 H79        18.3762  -26.2546  -42.5302 H         1 UNK         0.3095 
     80 H80        19.7636  -24.3310  -43.2304 H         1 UNK         0.0454 
     81 H81        22.4133  -25.4109  -44.3406 H         1 UNK         0.0851 
     82 H82        22.2315  -24.1817  -43.0987 H         1 UNK         0.0851 
     83 H83        21.7052  -23.8451  -44.7337 H         1 UNK         0.0851 
     84 H84        20.3524  -25.9063  -45.6052 H         1 UNK         0.2976 
     85 H85        20.7246  -29.3879  -40.3029 H         1 UNK         0.3116 
     86 H86        21.9046  -29.7717  -38.5227 H         1 UNK         0.0646 
     87 H87        20.2165  -27.7871  -36.9110 H         1 UNK         0.0847 
     88 H88        21.2934  -29.0116  -36.2660 H         1 UNK         0.0847 
     89 H89        19.8440  -29.4976  -37.1294 H         1 UNK         0.0847 
     90 H90        21.8321  -26.6561  -39.8591 H         1 UNK         0.3040 
     91 H91        24.3290  -25.7353  -38.5693 H         1 UNK         0.1015 
     92 H92        22.7002  -24.6261  -40.9141 H         1 UNK         0.0786 
     93 H93        24.1483  -23.8812  -40.2503 H         1 UNK         0.0786 
     94 H94        22.7011  -24.0177  -39.2630 H         1 UNK         0.0786 
     95 H95        23.1683  -27.2429  -41.5772 H         1 UNK         0.3172 
     96 H96        25.7531  -27.7193  -42.7814 H         1 UNK         0.0595 
     97 H97        24.4071  -29.3257  -44.1815 H         1 UNK         0.0839 
     98 H98        23.6225  -27.7561  -44.0910 H         1 UNK         0.0839 
     99 H99        23.0240  -29.0974  -43.1186 H         1 UNK         0.0839 
    100 H100       26.8436  -29.7591  -42.8884 H         1 UNK         0.2998 
    101 H101       27.1275  -31.1510  -40.4072 H         1 UNK         0.0822 
    102 H102       28.7340  -32.5566  -41.7111 H         1 UNK         0.0787 
    103 H103       28.1926  -31.8115  -43.2082 H         1 UNK         0.0787 
    104 H104       29.0175  -30.8452  -41.9841 H         1 UNK         0.0787 
    105 H105       25.8990  -32.6991  -39.6315 H         1 UNK         0.3055 
    106 H106       24.5958  -34.4070  -39.2458 H         1 UNK         0.1106 
    107 H107       24.5257  -36.3545  -40.7740 H         1 UNK         0.0828 
    108 H108       25.2240  -35.4039  -42.0742 H         1 UNK         0.0828 
    109 H109       26.1661  -35.7470  -40.6240 H         1 UNK         0.0828 
    110 H110       23.7994  -32.9240  -42.3498 H         1 UNK         0.2931 
    111 H111       21.0970  -33.8176  -42.4908 H         1 UNK         0.0412 
    112 H112       19.5606  -33.2823  -40.9497 H         1 UNK         0.3472 
    113 H113       19.2977  -31.6743  -40.3333 H         1 UNK         0.3472 
    114 H114       22.5705  -33.0537  -44.4207 H         1 UNK         0.0970 
    115 H115       22.3240  -31.4082  -43.9299 H         1 UNK         0.0970 
    116 H116       20.3164  -30.3180  -46.0042 H         1 UNK         0.0612 
    117 H117       20.4954  -30.0930  -44.2814 H         1 UNK         0.0612 
@<TRIPOS>BOND
     1    1    2 1    
     2    1   62 1    
     3    1   63 1    
     4    1   64 1    
     5    2    3 2    
     6    2    4 am   BACKBONE|DICT|INTERRES
     7    4    5 1    
     8    4   65 1    
     9    5    6 1    
    10    5   25 1    
    11    5   66 1    
    12    6    7 1    
    13    6   67 1    
    14    6   68 1    
    15    7    8 1    
    16    8    9 1    
    17    8   69 1    
    18    8   70 1    
    19    9   10 ar   
    20    9   14 ar   
    21   10   11 ar   
    22   10   71 1    
    23   11   12 ar   
    24   11   61 1    
    25   12   13 ar   
    26   12   72 1    
    27   13   14 ar   
    28   13   15 1    
    29   14   73 1    
    30   15   16 1    
    31   15   74 1    
    32   15   75 1    
    33   16   17 1    
    34   17   18 1    
    35   17   76 1    
    36   17   77 1    
    37   18   19 1    
    38   18   27 1    
    39   18   78 1    
    40   19   20 am   BACKBONE|DICT|INTERRES
    41   19   79 1    
    42   20   21 2    
    43   20   22 1    
    44   22   23 1    
    45   22   24 1    
    46   22   80 1    
    47   23   81 1    
    48   23   82 1    
    49   23   83 1    
    50   24   25 am   BACKBONE|DICT|INTERRES
    51   24   84 1    
    52   25   26 2    
    53   27   28 2    
    54   27   29 am   BACKBONE|DICT|INTERRES
    55   29   30 1    
    56   29   85 1    
    57   30   31 1    
    58   30   32 1    
    59   30   86 1    
    60   31   87 1    
    61   31   88 1    
    62   31   89 1    
    63   32   33 2    
    64   32   34 am   BACKBONE|DICT|INTERRES
    65   34   35 1    
    66   34   90 1    
    67   35   36 1    
    68   35   37 1    
    69   35   91 1    
    70   36   92 1    
    71   36   93 1    
    72   36   94 1    
    73   37   38 2    
    74   37   39 am   BACKBONE|DICT|INTERRES
    75   39   40 1    
    76   39   95 1    
    77   40   41 1    
    78   40   42 1    
    79   40   96 1    
    80   41   97 1    
    81   41   98 1    
    82   41   99 1    
    83   42   43 2    
    84   42   44 am   BACKBONE|DICT|INTERRES
    85   44   45 1    
    86   44  100 1    
    87   45   46 1    
    88   45   47 1    
    89   45  101 1    
    90   46  102 1    
    91   46  103 1    
    92   46  104 1    
    93   47   48 2    
    94   47   49 am   BACKBONE|DICT|INTERRES
    95   49   50 1    
    96   49  105 1    
    97   50   51 1    
    98   50   52 1    
    99   50  106 1    
   100   51  107 1    
   101   51  108 1    
   102   51  109 1    
   103   52   53 2    
   104   52   54 am   BACKBONE|DICT|INTERRES
   105   54   55 1    
   106   54  110 1    
   107   55   56 1    
   108   55   59 1    
   109   55  111 1    
   110   56   57 am   BACKBONE|DICT|INTERRES
   111   56   58 2    
   112   57  112 1    
   113   57  113 1    
   114   59   60 1    
   115   59  114 1    
   116   59  115 1    
   117   60   61 1    
   118   61  116 1    
   119   61  117 1    
@<TRIPOS>SUBSTRUCTURE
     1 UNK         1 GROUP             0       ****    0 ROOT    
