@<TRIPOS>MOLECULE
3R8
117   119    1
SMALL
USER_CHARGES


@<TRIPOS>ATOM
      1 CA         13.0137  -23.4325  -46.2024 C.3       0 UNK        -0.2013 
      2 C          14.2516  -24.3081  -46.3296 C.2       0 UNK         0.4866 
      3 O          14.7343  -24.5285  -47.4412 O.2       0 UNK        -0.5176 
      4 N          14.7624  -24.8169  -45.2019 N.am      1 UNK        -0.4884 
      5 CA         15.9737  -25.6419  -45.1306 C.3       1 UNK         0.0853 
      6 C6         16.0820  -26.4021  -43.7862 C.3       10 UNK        -0.0849 
      7 S7         14.6228  -27.4230  -43.3711 S.3       10 UNK        -0.2776 
      8 C8         15.1895  -29.1219  -43.7541 C.3       10 UNK         0.0316 
      9 C9         16.3072  -29.6984  -42.8757 C.ar      10 UNK        -0.0863 
     10 C10        16.7024  -31.0225  -43.0948 C.ar      10 UNK        -0.1009 
     11 C11        17.7521  -31.6007  -42.3717 C.ar      10 UNK        -0.0712 
     12 C12        18.4299  -30.8233  -41.4231 C.ar      10 UNK        -0.0894 
     13 C13        18.0585  -29.4936  -41.2007 C.ar      10 UNK        -0.0745 
     14 C14        16.9738  -28.9556  -41.8938 C.ar      10 UNK        -0.0972 
     15 C15        18.8672  -28.6037  -40.2661 C.3       10 UNK         0.0209 
     16 S16        19.7077  -27.2581  -41.1767 S.3       10 UNK        -0.2568 
     17 C17        20.6926  -28.2182  -42.3800 C.3       10 UNK        -0.0983 
     18 CA         21.4152  -27.4080  -43.4866 C.3       3 UNK         0.0876 
     19 N          20.5566  -26.4035  -44.1171 N.am      3 UNK        -0.4424 
     20 C          20.7260  -25.9140  -45.3527 C.2       2 UNK         0.4918 
     21 O          21.6278  -26.2772  -46.1104 O.2       2 UNK        -0.4875 
     22 CA         19.6859  -24.8869  -45.8239 C.3       2 UNK         0.0481 
     23 CB         19.9125  -24.4075  -47.2710 C.3       2 UNK        -0.1831 
     24 N          18.3500  -25.4673  -45.6928 N.am      2 UNK        -0.4498 
     25 C          17.2486  -24.7942  -45.3393 C.2       1 UNK         0.5027 
     26 O          17.2299  -23.5790  -45.1225 O.2       1 UNK        -0.4969 
     27 C          22.7605  -26.8096  -43.0310 C.2       3 UNK         0.5005 
     28 O          22.9590  -26.5398  -41.8451 O.2       3 UNK        -0.5279 
     29 N          23.6770  -26.6289  -43.9911 N.am      4 UNK        -0.4463 
     30 CA         25.0373  -26.1215  -43.7882 C.3       4 UNK         0.0283 
     31 CB         25.7261  -25.9700  -45.1538 C.3       4 UNK        -0.1875 
     32 C          25.9033  -26.9774  -42.8435 C.2       4 UNK         0.4949 
     33 O          26.8231  -26.4360  -42.2299 O.2       4 UNK        -0.5039 
     34 N          25.5938  -28.2767  -42.7267 N.am      5 UNK        -0.4663 
     35 CA         26.2508  -29.2141  -41.8139 C.3       5 UNK         0.0242 
     36 CB         26.6473  -30.4763  -42.5984 C.3       5 UNK        -0.1982 
     37 C          25.3745  -29.5417  -40.5877 C.2       5 UNK         0.5017 
     38 O          25.6819  -30.5010  -39.8774 O.2       5 UNK        -0.5012 
     39 N          24.3197  -28.7442  -40.3436 N.am      6 UNK        -0.4439 
     40 CA         23.4105  -28.7852  -39.1922 C.3       6 UNK         0.0297 
     41 CB         24.1241  -28.2457  -37.9324 C.3       6 UNK        -0.2006 
     42 C          22.7663  -30.1699  -38.9982 C.2       6 UNK         0.4892 
     43 O          21.8972  -30.5419  -39.7851 O.2       6 UNK        -0.5089 
     44 N          23.2144  -30.9209  -37.9823 N.am      7 UNK        -0.4243 
     45 CA         22.7613  -32.2797  -37.6672 C.3       7 UNK         0.0196 
     46 CB         23.4087  -32.7322  -36.3485 C.3       7 UNK        -0.2007 
     47 C          23.0309  -33.3102  -38.7806 C.2       7 UNK         0.5020 
     48 O          22.3194  -34.3121  -38.8502 O.2       7 UNK        -0.5147 
     49 N          24.0271  -33.0461  -39.6379 N.am      8 UNK        -0.4734 
     50 CA         24.3229  -33.8377  -40.8358 C.3       8 UNK         0.0238 
     51 CB         25.8462  -33.8903  -41.0379 C.3       8 UNK        -0.1912 
     52 C          23.5858  -33.3245  -42.0911 C.2       8 UNK         0.5038 
     53 O          23.8313  -33.8477  -43.1790 O.2       8 UNK        -0.5046 
     54 N          22.6892  -32.3416  -41.9274 N.am      9 UNK        -0.4200 
     55 CA         21.8166  -31.7653  -42.9586 C.3       9 UNK         0.0839 
     56 C          22.6176  -30.9486  -44.0131 C.2       9 UNK         0.5513 
     57 N          22.3599  -31.1053  -45.3049 N.am      9 UNK        -0.7519 
     58 O          23.4316  -30.0995  -43.6561 O.2       9 UNK        -0.4960 
     59 C59        20.7830  -32.7787  -43.5345 C.3       10 UNK        -0.0876 
     60 S60        19.7958  -33.5859  -42.2244 S.3       10 UNK        -0.2414 
     61 C61        18.0914  -33.0707  -42.6314 C.3       10 UNK         0.0169 
     62 H62        12.1925  -23.8573  -46.7791 H         1 UNK         0.0903 
     63 H63        12.6867  -23.3364  -45.1672 H         1 UNK         0.0903 
     64 H64        13.2200  -22.4339  -46.5869 H         1 UNK         0.0903 
     65 H65        14.3314  -24.6001  -44.3145 H         1 UNK         0.3096 
     66 H66        15.9246  -26.3760  -45.9384 H         1 UNK         0.1121 
     67 H67        16.9685  -27.0375  -43.7991 H         1 UNK         0.0849 
     68 H68        16.2305  -25.6995  -42.9632 H         1 UNK         0.0849 
     69 H69        14.3233  -29.7817  -43.6853 H         1 UNK         0.0865 
     70 H70        15.5114  -29.1508  -44.7961 H         1 UNK         0.0865 
     71 H71        16.1849  -31.6119  -43.8401 H         1 UNK         0.1346 
     72 H72        19.2590  -31.2389  -40.8670 H         1 UNK         0.1412 
     73 H73        16.6980  -27.9332  -41.6857 H         1 UNK         0.1426 
     74 H74        19.6109  -29.1851  -39.7204 H         1 UNK         0.0716 
     75 H75        18.2048  -28.1684  -39.5169 H         1 UNK         0.0716 
     76 H76        20.0234  -28.9208  -42.8761 H         1 UNK         0.0695 
     77 H77        21.4049  -28.8288  -41.8237 H         1 UNK         0.0695 
     78 H78        21.6658  -28.1360  -44.2614 H         1 UNK         0.0983 
     79 H79        19.8120  -26.0422  -43.5382 H         1 UNK         0.3095 
     80 H80        19.7828  -24.0259  -45.1592 H         1 UNK         0.0454 
     81 H81        19.8321  -25.2283  -47.9845 H         1 UNK         0.0851 
     82 H82        20.9039  -23.9680  -47.3871 H         1 UNK         0.0851 
     83 H83        19.1865  -23.6454  -47.5542 H         1 UNK         0.0851 
     84 H84        18.2954  -26.4675  -45.8336 H         1 UNK         0.2976 
     85 H85        23.3987  -26.8197  -44.9468 H         1 UNK         0.3116 
     86 H86        24.9502  -25.1307  -43.3376 H         1 UNK         0.0646 
     87 H87        25.8197  -26.9282  -45.6666 H         1 UNK         0.0847 
     88 H88        26.7315  -25.5616  -45.0411 H         1 UNK         0.0847 
     89 H89        25.1746  -25.2917  -45.8052 H         1 UNK         0.0847 
     90 H90        24.8102  -28.6551  -43.2519 H         1 UNK         0.3040 
     91 H91        27.1695  -28.7718  -41.4227 H         1 UNK         0.1015 
     92 H92        25.7810  -31.0862  -42.8558 H         1 UNK         0.0786 
     93 H93        27.3289  -31.0935  -42.0134 H         1 UNK         0.0786 
     94 H94        27.1657  -30.2238  -43.5235 H         1 UNK         0.0786 
     95 H95        24.1206  -28.0033  -41.0088 H         1 UNK         0.3172 
     96 H96        22.5920  -28.1017  -39.4243 H         1 UNK         0.0595 
     97 H97        25.0138  -28.8227  -37.6777 H         1 UNK         0.0839 
     98 H98        23.4597  -28.2540  -37.0672 H         1 UNK         0.0839 
     99 H99        24.4386  -27.2123  -38.0794 H         1 UNK         0.0839 
    100 H100       23.9567  -30.5468  -37.4091 H         1 UNK         0.2998 
    101 H101       21.6795  -32.2385  -37.5230 H         1 UNK         0.0822 
    102 H102       23.1499  -32.0629  -35.5277 H         1 UNK         0.0787 
    103 H103       23.0688  -33.7306  -36.0690 H         1 UNK         0.0787 
    104 H104       24.4963  -32.7679  -36.4250 H         1 UNK         0.0787 
    105 H105       24.5601  -32.1884  -39.5216 H         1 UNK         0.3055 
    106 H106       23.9802  -34.8642  -40.6870 H         1 UNK         0.1106 
    107 H107       26.1117  -34.4456  -41.9385 H         1 UNK         0.0828 
    108 H108       26.2735  -32.8946  -41.1267 H         1 UNK         0.0828 
    109 H109       26.3358  -34.3858  -40.1995 H         1 UNK         0.0828 
    110 H110       22.5648  -31.9394  -41.0046 H         1 UNK         0.2931 
    111 H111       21.2306  -31.0185  -42.4281 H         1 UNK         0.0412 
    112 H112       21.6929  -31.7862  -45.6299 H         1 UNK         0.3472 
    113 H113       22.8747  -30.5541  -45.9732 H         1 UNK         0.3472 
    114 H114       21.2852  -33.5559  -44.1128 H         1 UNK         0.0970 
    115 H115       20.1028  -32.2738  -44.2223 H         1 UNK         0.0970 
    116 H116       17.8993  -33.3213  -43.6760 H         1 UNK         0.0612 
    117 H117       17.4071  -33.6807  -42.0408 H         1 UNK         0.0612 
@<TRIPOS>BOND
     1    1    2 1    
     2    1   62 1    
     3    1   63 1    
     4    1   64 1    
     5    2    3 2    
     6    2    4 am   BACKBONE|DICT|INTERRES
     7    4    5 1    
     8    4   65 1    
     9    5    6 1    
    10    5   25 1    
    11    5   66 1    
    12    6    7 1    
    13    6   67 1    
    14    6   68 1    
    15    7    8 1    
    16    8    9 1    
    17    8   69 1    
    18    8   70 1    
    19    9   10 ar   
    20    9   14 ar   
    21   10   11 ar   
    22   10   71 1    
    23   11   12 ar   
    24   11   61 1    
    25   12   13 ar   
    26   12   72 1    
    27   13   14 ar   
    28   13   15 1    
    29   14   73 1    
    30   15   16 1    
    31   15   74 1    
    32   15   75 1    
    33   16   17 1    
    34   17   18 1    
    35   17   76 1    
    36   17   77 1    
    37   18   19 1    
    38   18   27 1    
    39   18   78 1    
    40   19   20 am   BACKBONE|DICT|INTERRES
    41   19   79 1    
    42   20   21 2    
    43   20   22 1    
    44   22   23 1    
    45   22   24 1    
    46   22   80 1    
    47   23   81 1    
    48   23   82 1    
    49   23   83 1    
    50   24   25 am   BACKBONE|DICT|INTERRES
    51   24   84 1    
    52   25   26 2    
    53   27   28 2    
    54   27   29 am   BACKBONE|DICT|INTERRES
    55   29   30 1    
    56   29   85 1    
    57   30   31 1    
    58   30   32 1    
    59   30   86 1    
    60   31   87 1    
    61   31   88 1    
    62   31   89 1    
    63   32   33 2    
    64   32   34 am   BACKBONE|DICT|INTERRES
    65   34   35 1    
    66   34   90 1    
    67   35   36 1    
    68   35   37 1    
    69   35   91 1    
    70   36   92 1    
    71   36   93 1    
    72   36   94 1    
    73   37   38 2    
    74   37   39 am   BACKBONE|DICT|INTERRES
    75   39   40 1    
    76   39   95 1    
    77   40   41 1    
    78   40   42 1    
    79   40   96 1    
    80   41   97 1    
    81   41   98 1    
    82   41   99 1    
    83   42   43 2    
    84   42   44 am   BACKBONE|DICT|INTERRES
    85   44   45 1    
    86   44  100 1    
    87   45   46 1    
    88   45   47 1    
    89   45  101 1    
    90   46  102 1    
    91   46  103 1    
    92   46  104 1    
    93   47   48 2    
    94   47   49 am   BACKBONE|DICT|INTERRES
    95   49   50 1    
    96   49  105 1    
    97   50   51 1    
    98   50   52 1    
    99   50  106 1    
   100   51  107 1    
   101   51  108 1    
   102   51  109 1    
   103   52   53 2    
   104   52   54 am   BACKBONE|DICT|INTERRES
   105   54   55 1    
   106   54  110 1    
   107   55   56 1    
   108   55   59 1    
   109   55  111 1    
   110   56   57 am   BACKBONE|DICT|INTERRES
   111   56   58 2    
   112   57  112 1    
   113   57  113 1    
   114   59   60 1    
   115   59  114 1    
   116   59  115 1    
   117   60   61 1    
   118   61  116 1    
   119   61  117 1    
@<TRIPOS>SUBSTRUCTURE
     1 UNK         1 GROUP             0       ****    0 ROOT    
