@<TRIPOS>MOLECULE
3R8
117   119    1
SMALL
USER_CHARGES


@<TRIPOS>ATOM
      1 CA         18.4108  -24.5267  -48.7103 C.3       0 UNK        -0.2013 
      2 C          17.7913  -25.6891  -47.9491 C.2       0 UNK         0.4866 
      3 O          17.5272  -26.7373  -48.5386 O.2       0 UNK        -0.5176 
      4 N          17.5593  -25.5145  -46.6447 N.am      1 UNK        -0.4884 
      5 CA         17.0278  -26.5270  -45.7347 C.3       1 UNK         0.0853 
      6 C6         15.4902  -26.6970  -45.8853 C.3       10 UNK        -0.0849 
      7 S7         14.7399  -28.1755  -45.1074 S.3       10 UNK        -0.2776 
      8 C8         15.6539  -29.5903  -45.8174 C.3       10 UNK         0.0316 
      9 C9         16.8396  -29.9888  -44.9460 C.ar      10 UNK        -0.0863 
     10 C10        16.6302  -30.4255  -43.6341 C.ar      10 UNK        -0.1009 
     11 C11        17.7120  -30.7255  -42.8011 C.ar      10 UNK        -0.0712 
     12 C12        19.0148  -30.5960  -43.2916 C.ar      10 UNK        -0.0894 
     13 C13        19.2363  -30.1859  -44.6092 C.ar      10 UNK        -0.0745 
     14 C14        18.1458  -29.9058  -45.4370 C.ar      10 UNK        -0.0972 
     15 C15        20.6495  -30.0253  -45.1457 C.3       10 UNK         0.0209 
     16 S16        21.1860  -28.2849  -45.0887 S.3       10 UNK        -0.2568 
     17 C17        21.8479  -28.1665  -43.3933 C.3       10 UNK        -0.0983 
     18 CA         21.4663  -26.8438  -42.6723 C.3       3 UNK         0.0876 
     19 N          20.0133  -26.6683  -42.5412 N.am      3 UNK        -0.4424 
     20 C          19.1764  -27.3695  -41.7628 C.2       2 UNK         0.4918 
     21 O          19.5365  -28.2087  -40.9376 O.2       2 UNK        -0.4875 
     22 CA         17.6706  -27.1112  -41.9492 C.3       2 UNK         0.0481 
     23 CB         17.2118  -25.8578  -41.1794 C.3       2 UNK        -0.1831 
     24 N          17.2453  -27.0912  -43.3565 N.am      2 UNK        -0.4498 
     25 C          17.5012  -26.1843  -44.3081 C.2       1 UNK         0.5027 
     26 O          18.1267  -25.1385  -44.1041 O.2       1 UNK        -0.4969 
     27 C          22.2107  -26.6880  -41.3260 C.2       3 UNK         0.5005 
     28 O          23.1641  -27.4223  -41.0669 O.2       3 UNK        -0.5279 
     29 N          21.7728  -25.7406  -40.4825 N.am      4 UNK        -0.4463 
     30 CA         22.2033  -25.5732  -39.0852 C.3       4 UNK         0.0283 
     31 CB         21.4671  -24.3708  -38.4727 C.3       4 UNK        -0.1875 
     32 C          23.7229  -25.4432  -38.8541 C.2       4 UNK         0.4949 
     33 O          24.2023  -25.8235  -37.7859 O.2       4 UNK        -0.5039 
     34 N          24.4502  -24.9243  -39.8511 N.am      5 UNK        -0.4663 
     35 CA         25.9065  -24.7737  -39.8264 C.3       5 UNK         0.0242 
     36 CB         26.2830  -23.5545  -40.6861 C.3       5 UNK        -0.1982 
     37 C          26.6747  -26.0216  -40.3074 C.2       5 UNK         0.5017 
     38 O          27.8931  -26.0568  -40.1274 O.2       5 UNK        -0.5012 
     39 N          25.9913  -26.9916  -40.9340 N.am      6 UNK        -0.4439 
     40 CA         26.6104  -28.1405  -41.6092 C.3       6 UNK         0.0297 
     41 CB         26.4069  -27.9922  -43.1268 C.3       6 UNK        -0.2006 
     42 C          26.0778  -29.5040  -41.1378 C.2       6 UNK         0.4892 
     43 O          26.8126  -30.4872  -41.2429 O.2       6 UNK        -0.5089 
     44 N          24.8311  -29.5511  -40.6464 N.am      7 UNK        -0.4243 
     45 CA         24.0591  -30.7472  -40.2958 C.3       7 UNK         0.0196 
     46 CB         24.6994  -31.5113  -39.1131 C.3       7 UNK        -0.2007 
     47 C          23.7703  -31.6040  -41.5454 C.2       7 UNK         0.5020 
     48 O          23.3517  -31.0484  -42.5611 O.2       7 UNK        -0.5147 
     49 N          23.9656  -32.9284  -41.4504 N.am      8 UNK        -0.4734 
     50 CA         23.7285  -33.9323  -42.5020 C.3       8 UNK         0.0238 
     51 CB         24.7012  -33.7304  -43.6849 C.3       8 UNK        -0.1912 
     52 C          22.2523  -34.0191  -42.9475 C.2       8 UNK         0.5038 
     53 O          21.9735  -34.2625  -44.1231 O.2       8 UNK        -0.5046 
     54 N          21.3380  -33.8193  -41.9898 N.am      9 UNK        -0.4200 
     55 CA         19.8842  -33.9409  -42.1535 C.3       9 UNK         0.0839 
     56 C          19.4513  -35.4020  -42.4591 C.2       9 UNK         0.5513 
     57 N          18.5137  -35.5981  -43.3757 N.am      9 UNK        -0.7519 
     58 O          19.9381  -36.3518  -41.8483 O.2       9 UNK        -0.4960 
     59 C59        19.1665  -33.3698  -40.9028 C.3       10 UNK        -0.0876 
     60 S60        17.4107  -32.9575  -41.1873 S.3       10 UNK        -0.2414 
     61 C61        17.4640  -31.1466  -41.3610 C.3       10 UNK         0.0169 
     62 H62        18.5838  -23.6640  -48.0671 H         1 UNK         0.0903 
     63 H63        19.3662  -24.8265  -49.1401 H         1 UNK         0.0903 
     64 H64        17.7534  -24.2174  -49.5225 H         1 UNK         0.0903 
     65 H65        17.8481  -24.6637  -46.1749 H         1 UNK         0.3096 
     66 H66        17.5188  -27.4571  -46.0048 H         1 UNK         0.1121 
     67 H67        15.2286  -26.7434  -46.9435 H         1 UNK         0.0849 
     68 H68        14.9779  -25.8129  -45.5014 H         1 UNK         0.0849 
     69 H69        14.9765  -30.4421  -45.8937 H         1 UNK         0.0865 
     70 H70        15.9653  -29.3567  -46.8372 H         1 UNK         0.0865 
     71 H71        15.6210  -30.5061  -43.2524 H         1 UNK         0.1346 
     72 H72        19.8556  -30.8048  -42.6442 H         1 UNK         0.1412 
     73 H73        18.3225  -29.5881  -46.4561 H         1 UNK         0.1426 
     74 H74        21.3511  -30.6543  -44.5945 H         1 UNK         0.0716 
     75 H75        20.6856  -30.3690  -46.1805 H         1 UNK         0.0716 
     76 H76        22.9310  -28.2674  -43.4770 H         1 UNK         0.0695 
     77 H77        21.5135  -29.0215  -42.8042 H         1 UNK         0.0695 
     78 H78        21.8175  -26.0190  -43.2941 H         1 UNK         0.0983 
     79 H79        19.5884  -25.9967  -43.1738 H         1 UNK         0.3095 
     80 H80        17.1521  -27.9644  -41.5091 H         1 UNK         0.0454 
     81 H81        16.1366  -25.7070  -41.2742 H         1 UNK         0.0851 
     82 H82        17.7092  -24.9522  -41.5267 H         1 UNK         0.0851 
     83 H83        17.4322  -25.9566  -40.1158 H         1 UNK         0.0851 
     84 H84        16.7472  -27.9230  -43.6510 H         1 UNK         0.2976 
     85 H85        20.9940  -25.1718  -40.7823 H         1 UNK         0.3116 
     86 H86        21.8827  -26.4706  -38.5519 H         1 UNK         0.0646 
     87 H87        20.3859  -24.5067  -38.5037 H         1 UNK         0.0847 
     88 H88        21.7425  -24.2351  -37.4257 H         1 UNK         0.0847 
     89 H89        21.7062  -23.4433  -38.9943 H         1 UNK         0.0847 
     90 H90        23.9722  -24.6380  -40.6933 H         1 UNK         0.3040 
     91 H91        26.2294  -24.5754  -38.8017 H         1 UNK         0.1015 
     92 H92        25.9986  -23.6924  -41.7301 H         1 UNK         0.0786 
     93 H93        27.3590  -23.3754  -40.6630 H         1 UNK         0.0786 
     94 H94        25.7995  -22.6477  -40.3222 H         1 UNK         0.0786 
     95 H95        24.9778  -26.9232  -40.9854 H         1 UNK         0.3172 
     96 H96        27.6858  -28.1544  -41.4208 H         1 UNK         0.0595 
     97 H97        25.3492  -27.9689  -43.3905 H         1 UNK         0.0839 
     98 H98        26.8591  -28.8256  -43.6664 H         1 UNK         0.0839 
     99 H99        26.8665  -27.0773  -43.5008 H         1 UNK         0.0839 
    100 H100       24.2703  -28.7012  -40.6983 H         1 UNK         0.2998 
    101 H101       23.0880  -30.3803  -39.9597 H         1 UNK         0.0822 
    102 H102       24.0394  -32.2981  -38.7461 H         1 UNK         0.0787 
    103 H103       25.6504  -31.9721  -39.3826 H         1 UNK         0.0787 
    104 H104       24.8868  -30.8412  -38.2739 H         1 UNK         0.0787 
    105 H105       24.3172  -33.2865  -40.5726 H         1 UNK         0.3055 
    106 H106       23.9576  -34.9022  -42.0571 H         1 UNK         0.1106 
    107 H107       24.6318  -34.5559  -44.3943 H         1 UNK         0.0828 
    108 H108       24.4870  -32.8131  -44.2342 H         1 UNK         0.0828 
    109 H109       25.7356  -33.6832  -43.3448 H         1 UNK         0.0828 
    110 H110       21.6689  -33.6535  -41.0518 H         1 UNK         0.2931 
    111 H111       19.6199  -33.3229  -43.0134 H         1 UNK         0.0412 
    112 H112       18.2110  -36.5379  -43.5790 H         1 UNK         0.3472 
    113 H113       18.0938  -34.8187  -43.8586 H         1 UNK         0.3472 
    114 H114       19.6773  -32.4704  -40.5566 H         1 UNK         0.0970 
    115 H115       19.2262  -34.0726  -40.0693 H         1 UNK         0.0970 
    116 H116       18.2194  -30.7169  -40.7018 H         1 UNK         0.0612 
    117 H117       16.5103  -30.7416  -41.0194 H         1 UNK         0.0612 
@<TRIPOS>BOND
     1    1    2 1    
     2    1   62 1    
     3    1   63 1    
     4    1   64 1    
     5    2    3 2    
     6    2    4 am   BACKBONE|DICT|INTERRES
     7    4    5 1    
     8    4   65 1    
     9    5    6 1    
    10    5   25 1    
    11    5   66 1    
    12    6    7 1    
    13    6   67 1    
    14    6   68 1    
    15    7    8 1    
    16    8    9 1    
    17    8   69 1    
    18    8   70 1    
    19    9   10 ar   
    20    9   14 ar   
    21   10   11 ar   
    22   10   71 1    
    23   11   12 ar   
    24   11   61 1    
    25   12   13 ar   
    26   12   72 1    
    27   13   14 ar   
    28   13   15 1    
    29   14   73 1    
    30   15   16 1    
    31   15   74 1    
    32   15   75 1    
    33   16   17 1    
    34   17   18 1    
    35   17   76 1    
    36   17   77 1    
    37   18   19 1    
    38   18   27 1    
    39   18   78 1    
    40   19   20 am   BACKBONE|DICT|INTERRES
    41   19   79 1    
    42   20   21 2    
    43   20   22 1    
    44   22   23 1    
    45   22   24 1    
    46   22   80 1    
    47   23   81 1    
    48   23   82 1    
    49   23   83 1    
    50   24   25 am   BACKBONE|DICT|INTERRES
    51   24   84 1    
    52   25   26 2    
    53   27   28 2    
    54   27   29 am   BACKBONE|DICT|INTERRES
    55   29   30 1    
    56   29   85 1    
    57   30   31 1    
    58   30   32 1    
    59   30   86 1    
    60   31   87 1    
    61   31   88 1    
    62   31   89 1    
    63   32   33 2    
    64   32   34 am   BACKBONE|DICT|INTERRES
    65   34   35 1    
    66   34   90 1    
    67   35   36 1    
    68   35   37 1    
    69   35   91 1    
    70   36   92 1    
    71   36   93 1    
    72   36   94 1    
    73   37   38 2    
    74   37   39 am   BACKBONE|DICT|INTERRES
    75   39   40 1    
    76   39   95 1    
    77   40   41 1    
    78   40   42 1    
    79   40   96 1    
    80   41   97 1    
    81   41   98 1    
    82   41   99 1    
    83   42   43 2    
    84   42   44 am   BACKBONE|DICT|INTERRES
    85   44   45 1    
    86   44  100 1    
    87   45   46 1    
    88   45   47 1    
    89   45  101 1    
    90   46  102 1    
    91   46  103 1    
    92   46  104 1    
    93   47   48 2    
    94   47   49 am   BACKBONE|DICT|INTERRES
    95   49   50 1    
    96   49  105 1    
    97   50   51 1    
    98   50   52 1    
    99   50  106 1    
   100   51  107 1    
   101   51  108 1    
   102   51  109 1    
   103   52   53 2    
   104   52   54 am   BACKBONE|DICT|INTERRES
   105   54   55 1    
   106   54  110 1    
   107   55   56 1    
   108   55   59 1    
   109   55  111 1    
   110   56   57 am   BACKBONE|DICT|INTERRES
   111   56   58 2    
   112   57  112 1    
   113   57  113 1    
   114   59   60 1    
   115   59  114 1    
   116   59  115 1    
   117   60   61 1    
   118   61  116 1    
   119   61  117 1    
@<TRIPOS>SUBSTRUCTURE
     1 UNK         1 GROUP             0       ****    0 ROOT    
