@<TRIPOS>MOLECULE
3R8
117   119    1
SMALL
USER_CHARGES


@<TRIPOS>ATOM
      1 CA         19.7134  -28.6314  -41.2051 C.3       0 UNK        -0.2013 
      2 C          18.9934  -27.9069  -42.3311 C.2       0 UNK         0.4866 
      3 O          19.6435  -27.4657  -43.2776 O.2       0 UNK        -0.5176 
      4 N          17.6646  -27.7600  -42.2268 N.am      1 UNK        -0.4884 
      5 CA         16.7795  -27.1011  -43.2025 C.3       1 UNK         0.0853 
      6 C6         16.5922  -27.9307  -44.5070 C.3       10 UNK        -0.0849 
      7 S7         15.9807  -29.6224  -44.2107 S.3       10 UNK        -0.2776 
      8 C8         16.5992  -30.4801  -45.6958 C.3       10 UNK         0.0316 
      9 C9         18.1107  -30.6612  -45.6622 C.ar      10 UNK        -0.0863 
     10 C10        18.6751  -31.6234  -44.8220 C.ar      10 UNK        -0.1009 
     11 C11        20.0597  -31.8027  -44.7761 C.ar      10 UNK        -0.0712 
     12 C12        20.8825  -31.0108  -45.5842 C.ar      10 UNK        -0.0894 
     13 C13        20.3320  -30.0562  -46.4465 C.ar      10 UNK        -0.0745 
     14 C14        18.9425  -29.8899  -46.4816 C.ar      10 UNK        -0.0972 
     15 C15        21.2393  -29.2695  -47.3899 C.3       10 UNK         0.0209 
     16 S16        20.9207  -27.4739  -47.4007 S.3       10 UNK        -0.2568 
     17 C17        21.7373  -26.9482  -45.8592 C.3       10 UNK        -0.0983 
     18 CA         21.3989  -25.4798  -45.4937 C.3       3 UNK         0.0876 
     19 N          19.9570  -25.2408  -45.3663 N.am      3 UNK        -0.4424 
     20 C          19.3761  -24.0306  -45.3706 C.2       2 UNK         0.4918 
     21 O          19.9983  -22.9787  -45.5212 O.2       2 UNK        -0.4875 
     22 CA         17.8451  -23.9651  -45.1993 C.3       2 UNK         0.0481 
     23 CB         17.1765  -23.5666  -46.5255 C.3       2 UNK        -0.1831 
     24 N          17.2704  -25.2312  -44.7419 N.am      2 UNK        -0.4498 
     25 C          17.2273  -25.6402  -43.4655 C.2       1 UNK         0.5027 
     26 O          17.5468  -24.9238  -42.5135 O.2       1 UNK        -0.4969 
     27 C          22.1350  -25.0396  -44.2150 C.2       3 UNK         0.5005 
     28 O          23.1715  -24.3799  -44.3069 O.2       3 UNK        -0.5279 
     29 N          21.5617  -25.3896  -43.0527 N.am      4 UNK        -0.4463 
     30 CA         21.8976  -24.9911  -41.6767 C.3       4 UNK         0.0283 
     31 CB         21.7453  -23.4695  -41.4928 C.3       4 UNK        -0.1875 
     32 C          23.2638  -25.4716  -41.1535 C.2       4 UNK         0.4949 
     33 O          23.3527  -25.8746  -39.9944 O.2       4 UNK        -0.5039 
     34 N          24.2979  -25.4291  -42.0002 N.am      5 UNK        -0.4663 
     35 CA         25.6592  -25.8848  -41.7061 C.3       5 UNK         0.0242 
     36 CB         26.6234  -25.2492  -42.7211 C.3       5 UNK        -0.1982 
     37 C          25.8029  -27.4175  -41.7130 C.2       5 UNK         0.5017 
     38 O          26.7909  -27.9290  -41.1842 O.2       5 UNK        -0.5012 
     39 N          24.8347  -28.1188  -42.3186 N.am      6 UNK        -0.4439 
     40 CA         24.7483  -29.5774  -42.3568 C.3       6 UNK         0.0297 
     41 CB         23.6724  -29.9885  -43.3745 C.3       6 UNK        -0.2006 
     42 C          24.4432  -30.1461  -40.9595 C.2       6 UNK         0.4892 
     43 O          23.5194  -29.6685  -40.2970 O.2       6 UNK        -0.5089 
     44 N          25.2352  -31.1385  -40.5364 N.am      7 UNK        -0.4243 
     45 CA         25.1056  -31.8048  -39.2398 C.3       7 UNK         0.0196 
     46 CB         26.4296  -32.5110  -38.9038 C.3       7 UNK        -0.2007 
     47 C          23.9452  -32.8117  -39.2377 C.2       7 UNK         0.5020 
     48 O          23.7037  -33.4617  -40.2564 O.2       7 UNK        -0.5147 
     49 N          23.2949  -32.9543  -38.0740 N.am      8 UNK        -0.4734 
     50 CA         22.1226  -33.7972  -37.8086 C.3       8 UNK         0.0238 
     51 CB         22.4518  -35.2998  -37.9745 C.3       8 UNK        -0.1912 
     52 C          20.8986  -33.3189  -38.6117 C.2       8 UNK         0.5038 
     53 O          20.3137  -32.3007  -38.2389 O.2       8 UNK        -0.5046 
     54 N          20.5338  -34.0510  -39.6730 N.am      9 UNK        -0.4200 
     55 CA         19.4000  -33.7772  -40.5771 C.3       9 UNK         0.0839 
     56 C          17.9932  -33.9742  -39.9336 C.2       9 UNK         0.5513 
     57 N          17.8738  -34.6540  -38.7992 N.am      9 UNK        -0.7519 
     58 O          16.9869  -33.5357  -40.4847 O.2       9 UNK        -0.4960 
     59 C59        19.5238  -32.4215  -41.3346 C.3       10 UNK        -0.0876 
     60 S60        21.0987  -32.2540  -42.2410 S.3       10 UNK        -0.2414 
     61 C61        20.6655  -32.8818  -43.8906 C.3       10 UNK         0.0169 
     62 H62        20.3314  -27.9328  -40.6419 H         1 UNK         0.0903 
     63 H63        19.0178  -29.1081  -40.5152 H         1 UNK         0.0903 
     64 H64        20.3669  -29.3997  -41.6167 H         1 UNK         0.0903 
     65 H65        17.1965  -28.1202  -41.4073 H         1 UNK         0.3096 
     66 H66        15.8034  -27.0205  -42.7215 H         1 UNK         0.1121 
     67 H67        15.8715  -27.4534  -45.1735 H         1 UNK         0.0849 
     68 H68        17.5368  -27.9853  -45.0492 H         1 UNK         0.0849 
     69 H69        16.1218  -31.4589  -45.7619 H         1 UNK         0.0865 
     70 H70        16.2912  -29.9326  -46.5880 H         1 UNK         0.0865 
     71 H71        18.0293  -32.2364  -44.2091 H         1 UNK         0.1346 
     72 H72        21.9529  -31.1604  -45.5603 H         1 UNK         0.1412 
     73 H73        18.5098  -29.1618  -47.1539 H         1 UNK         0.1426 
     74 H74        21.0894  -29.6504  -48.4008 H         1 UNK         0.0716 
     75 H75        22.2909  -29.4387  -47.1531 H         1 UNK         0.0716 
     76 H76        21.4505  -27.6340  -45.0612 H         1 UNK         0.0695 
     77 H77        22.8144  -27.0675  -45.9912 H         1 UNK         0.0695 
     78 H78        21.7653  -24.8456  -46.3044 H         1 UNK         0.0983 
     79 H79        19.3928  -26.0597  -45.1898 H         1 UNK         0.3095 
     80 H80        17.6285  -23.1870  -44.4643 H         1 UNK         0.0454 
     81 H81        17.5520  -22.6052  -46.8787 H         1 UNK         0.0851 
     82 H82        17.3670  -24.2982  -47.3118 H         1 UNK         0.0851 
     83 H83        16.0969  -23.4671  -46.4122 H         1 UNK         0.0851 
     84 H84        16.9711  -25.8697  -45.4644 H         1 UNK         0.2976 
     85 H85        20.7621  -26.0189  -43.1265 H         1 UNK         0.3116 
     86 H86        21.1432  -25.4693  -41.0500 H         1 UNK         0.0646 
     87 H87        21.9030  -23.1849  -40.4517 H         1 UNK         0.0847 
     88 H88        20.7458  -23.1360  -41.7722 H         1 UNK         0.0847 
     89 H89        22.4648  -22.9121  -42.0935 H         1 UNK         0.0847 
     90 H90        24.1200  -25.0426  -42.9266 H         1 UNK         0.3040 
     91 H91        25.9320  -25.5384  -40.7067 H         1 UNK         0.1015 
     92 H92        26.5844  -24.1606  -42.6768 H         1 UNK         0.0786 
     93 H93        26.3900  -25.5519  -43.7429 H         1 UNK         0.0786 
     94 H94        27.6544  -25.5438  -42.5200 H         1 UNK         0.0786 
     95 H95        24.0459  -27.6050  -42.6805 H         1 UNK         0.3172 
     96 H96        25.7103  -29.9637  -42.7007 H         1 UNK         0.0595 
     97 H97        22.6814  -29.6371  -43.0820 H         1 UNK         0.0839 
     98 H98        23.6196  -31.0744  -43.4615 H         1 UNK         0.0839 
     99 H99        23.8885  -29.5951  -44.3679 H         1 UNK         0.0839 
    100 H100       25.9443  -31.4978  -41.1587 H         1 UNK         0.2998 
    101 H101       24.9162  -31.0438  -38.4791 H         1 UNK         0.0822 
    102 H102       27.2595  -31.8047  -38.8705 H         1 UNK         0.0787 
    103 H103       26.3778  -32.9948  -37.9274 H         1 UNK         0.0787 
    104 H104       26.6729  -33.2822  -39.6361 H         1 UNK         0.0787 
    105 H105       23.5758  -32.3626  -37.3037 H         1 UNK         0.3055 
    106 H106       21.8655  -33.6424  -36.7591 H         1 UNK         0.1106 
    107 H107       22.7674  -35.5563  -38.9858 H         1 UNK         0.0828 
    108 H108       23.2535  -35.5980  -37.2988 H         1 UNK         0.0828 
    109 H109       21.5868  -35.9189  -37.7329 H         1 UNK         0.0828 
    110 H110       21.0976  -34.8533  -39.9114 H         1 UNK         0.2931 
    111 H111       19.4556  -34.5612  -41.3329 H         1 UNK         0.0412 
    112 H112       16.9588  -34.7864  -38.3970 H         1 UNK         0.3472 
    113 H113       18.6865  -35.0348  -38.3421 H         1 UNK         0.3472 
    114 H114       19.4466  -31.5910  -40.6329 H         1 UNK         0.0970 
    115 H115       18.6981  -32.2894  -42.0329 H         1 UNK         0.0970 
    116 H116       19.9853  -33.7298  -43.7972 H         1 UNK         0.0612 
    117 H117       21.5706  -33.2722  -44.3581 H         1 UNK         0.0612 
@<TRIPOS>BOND
     1    1    2 1    
     2    1   62 1    
     3    1   63 1    
     4    1   64 1    
     5    2    3 2    
     6    2    4 am   BACKBONE|DICT|INTERRES
     7    4    5 1    
     8    4   65 1    
     9    5    6 1    
    10    5   25 1    
    11    5   66 1    
    12    6    7 1    
    13    6   67 1    
    14    6   68 1    
    15    7    8 1    
    16    8    9 1    
    17    8   69 1    
    18    8   70 1    
    19    9   10 ar   
    20    9   14 ar   
    21   10   11 ar   
    22   10   71 1    
    23   11   12 ar   
    24   11   61 1    
    25   12   13 ar   
    26   12   72 1    
    27   13   14 ar   
    28   13   15 1    
    29   14   73 1    
    30   15   16 1    
    31   15   74 1    
    32   15   75 1    
    33   16   17 1    
    34   17   18 1    
    35   17   76 1    
    36   17   77 1    
    37   18   19 1    
    38   18   27 1    
    39   18   78 1    
    40   19   20 am   BACKBONE|DICT|INTERRES
    41   19   79 1    
    42   20   21 2    
    43   20   22 1    
    44   22   23 1    
    45   22   24 1    
    46   22   80 1    
    47   23   81 1    
    48   23   82 1    
    49   23   83 1    
    50   24   25 am   BACKBONE|DICT|INTERRES
    51   24   84 1    
    52   25   26 2    
    53   27   28 2    
    54   27   29 am   BACKBONE|DICT|INTERRES
    55   29   30 1    
    56   29   85 1    
    57   30   31 1    
    58   30   32 1    
    59   30   86 1    
    60   31   87 1    
    61   31   88 1    
    62   31   89 1    
    63   32   33 2    
    64   32   34 am   BACKBONE|DICT|INTERRES
    65   34   35 1    
    66   34   90 1    
    67   35   36 1    
    68   35   37 1    
    69   35   91 1    
    70   36   92 1    
    71   36   93 1    
    72   36   94 1    
    73   37   38 2    
    74   37   39 am   BACKBONE|DICT|INTERRES
    75   39   40 1    
    76   39   95 1    
    77   40   41 1    
    78   40   42 1    
    79   40   96 1    
    80   41   97 1    
    81   41   98 1    
    82   41   99 1    
    83   42   43 2    
    84   42   44 am   BACKBONE|DICT|INTERRES
    85   44   45 1    
    86   44  100 1    
    87   45   46 1    
    88   45   47 1    
    89   45  101 1    
    90   46  102 1    
    91   46  103 1    
    92   46  104 1    
    93   47   48 2    
    94   47   49 am   BACKBONE|DICT|INTERRES
    95   49   50 1    
    96   49  105 1    
    97   50   51 1    
    98   50   52 1    
    99   50  106 1    
   100   51  107 1    
   101   51  108 1    
   102   51  109 1    
   103   52   53 2    
   104   52   54 am   BACKBONE|DICT|INTERRES
   105   54   55 1    
   106   54  110 1    
   107   55   56 1    
   108   55   59 1    
   109   55  111 1    
   110   56   57 am   BACKBONE|DICT|INTERRES
   111   56   58 2    
   112   57  112 1    
   113   57  113 1    
   114   59   60 1    
   115   59  114 1    
   116   59  115 1    
   117   60   61 1    
   118   61  116 1    
   119   61  117 1    
@<TRIPOS>SUBSTRUCTURE
     1 UNK         1 GROUP             0       ****    0 ROOT    
