@<TRIPOS>MOLECULE
3R8
117   119    1
SMALL
USER_CHARGES


@<TRIPOS>ATOM
      1 CA         16.5298  -23.8674  -42.3689 C.3       0 UNK        -0.2013 
      2 C          16.9034  -24.8389  -43.4777 C.2       0 UNK         0.4866 
      3 O          17.9519  -25.4792  -43.4015 O.2       0 UNK        -0.5176 
      4 N          16.0668  -24.9363  -44.5237 N.am      1 UNK        -0.4884 
      5 CA         16.2096  -25.8568  -45.6678 C.3       1 UNK         0.0853 
      6 C6         16.1254  -27.3410  -45.2093 C.3       10 UNK        -0.0849 
      7 S7         15.4525  -28.4752  -46.4745 S.3       10 UNK        -0.2776 
      8 C8         15.5540  -30.0933  -45.6268 C.3       10 UNK         0.0316 
      9 C9         16.9096  -30.3358  -44.9720 C.ar      10 UNK        -0.0863 
     10 C10        16.9943  -30.5644  -43.5938 C.ar      10 UNK        -0.1009 
     11 C11        18.2397  -30.7061  -42.9747 C.ar      10 UNK        -0.0712 
     12 C12        19.4037  -30.6142  -43.7405 C.ar      10 UNK        -0.0894 
     13 C13        19.3321  -30.3903  -45.1177 C.ar      10 UNK        -0.0745 
     14 C14        18.0826  -30.2754  -45.7321 C.ar      10 UNK        -0.0972 
     15 C15        20.6054  -30.2092  -45.9301 C.3       10 UNK         0.0209 
     16 S16        20.9092  -28.4520  -46.3093 S.3       10 UNK        -0.2568 
     17 C17        20.9851  -27.7359  -44.6338 C.3       10 UNK        -0.0983 
     18 CA         21.4237  -26.2464  -44.6241 C.3       3 UNK         0.0876 
     19 N          20.4190  -25.3908  -45.2570 N.am      3 UNK        -0.4424 
     20 C          20.5463  -24.7653  -46.4336 C.2       2 UNK         0.4918 
     21 O          21.5622  -24.8206  -47.1292 O.2       2 UNK        -0.4875 
     22 CA         19.3434  -23.9183  -46.9099 C.3       2 UNK         0.0481 
     23 CB         19.2803  -23.7805  -48.4460 C.3       2 UNK        -0.1831 
     24 N          18.0564  -24.3702  -46.3635 N.am      2 UNK        -0.4498 
     25 C          17.4583  -25.5607  -46.5444 C.2       1 UNK         0.5027 
     26 O          17.8604  -26.4020  -47.3483 O.2       1 UNK        -0.4969 
     27 C          21.6812  -25.7364  -43.1902 C.2       3 UNK         0.5005 
     28 O          21.1817  -24.6772  -42.7983 O.2       3 UNK        -0.5279 
     29 N          22.4685  -26.5017  -42.4289 N.am      4 UNK        -0.4463 
     30 CA         22.7522  -26.3142  -41.0117 C.3       4 UNK         0.0283 
     31 CB         24.0206  -25.4581  -40.8470 C.3       4 UNK        -0.1875 
     32 C          22.9378  -27.7032  -40.3909 C.2       4 UNK         0.4949 
     33 O          23.1729  -28.6690  -41.1227 O.2       4 UNK        -0.5039 
     34 N          22.8835  -27.7756  -39.0542 N.am      5 UNK        -0.4663 
     35 CA         23.0256  -29.0105  -38.2666 C.3       5 UNK         0.0242 
     36 CB         22.7964  -28.6889  -36.7808 C.3       5 UNK        -0.1982 
     37 C          24.3676  -29.7465  -38.4562 C.2       5 UNK         0.5017 
     38 O          24.4388  -30.9516  -38.2170 O.2       5 UNK        -0.5012 
     39 N          25.4019  -29.0131  -38.8894 N.am      6 UNK        -0.4439 
     40 CA         26.7105  -29.5493  -39.2625 C.3       6 UNK         0.0297 
     41 CB         27.7300  -28.3990  -39.3012 C.3       6 UNK        -0.2006 
     42 C          26.7041  -30.3035  -40.6067 C.2       6 UNK         0.4892 
     43 O          27.5882  -31.1344  -40.8186 O.2       6 UNK        -0.5089 
     44 N          25.7429  -30.0003  -41.4934 N.am      7 UNK        -0.4243 
     45 CA         25.6125  -30.6336  -42.8068 C.3       7 UNK         0.0196 
     46 CB         24.9378  -29.6662  -43.7958 C.3       7 UNK        -0.2007 
     47 C          24.8330  -31.9518  -42.7156 C.2       7 UNK         0.5020 
     48 O          25.2833  -32.9575  -43.2651 O.2       7 UNK        -0.5147 
     49 N          23.6889  -31.9289  -42.0221 N.am      8 UNK        -0.4734 
     50 CA         22.7997  -33.0705  -41.8095 C.3       8 UNK         0.0238 
     51 CB         22.0759  -33.4467  -43.1213 C.3       8 UNK        -0.1912 
     52 C          21.8025  -32.7370  -40.6912 C.2       8 UNK         0.5038 
     53 O          21.7351  -31.5854  -40.2570 O.2       8 UNK        -0.5046 
     54 N          21.0366  -33.7505  -40.2697 N.am      9 UNK        -0.4200 
     55 CA         20.0563  -33.7112  -39.1698 C.3       9 UNK         0.0839 
     56 C          20.7370  -33.6531  -37.7677 C.2       9 UNK         0.5513 
     57 N          20.0086  -33.3068  -36.7138 N.am      9 UNK        -0.7519 
     58 O          21.9136  -33.9737  -37.6099 O.2       9 UNK        -0.4960 
     59 C59        18.9199  -32.6567  -39.3570 C.3       10 UNK        -0.0876 
     60 S60        18.1683  -32.6650  -41.0234 S.3       10 UNK        -0.2414 
     61 C61        18.3411  -30.9106  -41.4729 C.3       10 UNK         0.0169 
     62 H62        17.3166  -23.1244  -42.2410 H         1 UNK         0.0903 
     63 H63        15.5980  -23.3433  -42.5805 H         1 UNK         0.0903 
     64 H64        16.4118  -24.4032  -41.4275 H         1 UNK         0.0903 
     65 H65        15.2322  -24.3643  -44.5376 H         1 UNK         0.3096 
     66 H66        15.3506  -25.6539  -46.3097 H         1 UNK         0.1121 
     67 H67        15.4746  -27.4288  -44.3377 H         1 UNK         0.0849 
     68 H68        17.1073  -27.6841  -44.8784 H         1 UNK         0.0849 
     69 H69        14.7535  -30.1481  -44.8874 H         1 UNK         0.0865 
     70 H70        15.3587  -30.8869  -46.3492 H         1 UNK         0.0865 
     71 H71        16.0947  -30.6100  -42.9952 H         1 UNK         0.1346 
     72 H72        20.3668  -30.6813  -43.2541 H         1 UNK         0.1412 
     73 H73        18.0248  -30.0746  -46.7935 H         1 UNK         0.1426 
     74 H74        20.5268  -30.7674  -46.8640 H         1 UNK         0.0716 
     75 H75        21.4666  -30.6176  -45.3986 H         1 UNK         0.0716 
     76 H76        21.6672  -28.3629  -44.0585 H         1 UNK         0.0695 
     77 H77        20.0039  -27.8346  -44.1648 H         1 UNK         0.0695 
     78 H78        22.3764  -26.1588  -45.1509 H         1 UNK         0.0983 
     79 H79        19.5750  -25.2566  -44.7092 H         1 UNK         0.3095 
     80 H80        19.5040  -22.9200  -46.5008 H         1 UNK         0.0454 
     81 H81        18.4247  -23.1815  -48.7572 H         1 UNK         0.0851 
     82 H82        19.2088  -24.7507  -48.9381 H         1 UNK         0.0851 
     83 H83        20.1744  -23.2891  -48.8314 H         1 UNK         0.0851 
     84 H84        17.6346  -23.7548  -45.6818 H         1 UNK         0.2976 
     85 H85        22.8006  -27.3899  -42.7843 H         1 UNK         0.3116 
     86 H86        21.9050  -25.8270  -40.5241 H         1 UNK         0.0646 
     87 H87        24.8901  -25.9325  -41.3039 H         1 UNK         0.0847 
     88 H88        24.2523  -25.2915  -39.7945 H         1 UNK         0.0847 
     89 H89        23.8967  -24.4775  -41.3068 H         1 UNK         0.0847 
     90 H90        22.6981  -26.9306  -38.5320 H         1 UNK         0.3040 
     91 H91        22.2394  -29.6949  -38.5896 H         1 UNK         0.1015 
     92 H92        23.5364  -27.9832  -36.4013 H         1 UNK         0.0786 
     93 H93        22.8639  -29.5917  -36.1717 H         1 UNK         0.0786 
     94 H94        21.8067  -28.2634  -36.6140 H         1 UNK         0.0786 
     95 H95        25.2498  -28.0263  -39.0365 H         1 UNK         0.3172 
     96 H96        27.0242  -30.2553  -38.4905 H         1 UNK         0.0595 
     97 H97        27.4690  -27.6510  -40.0512 H         1 UNK         0.0839 
     98 H98        28.7266  -28.7697  -39.5456 H         1 UNK         0.0839 
     99 H99        27.8019  -27.8979  -38.3357 H         1 UNK         0.0839 
    100 H100       25.0015  -29.3608  -41.2257 H         1 UNK         0.2998 
    101 H101       26.6095  -30.8573  -43.1935 H         1 UNK         0.0822 
    102 H102       25.4749  -28.7195  -43.8555 H         1 UNK         0.0787 
    103 H103       24.9187  -30.0924  -44.7996 H         1 UNK         0.0787 
    104 H104       23.9059  -29.4516  -43.5198 H         1 UNK         0.0787 
    105 H105       23.3919  -31.0764  -41.5561 H         1 UNK         0.3055 
    106 H106       23.4013  -33.9170  -41.4709 H         1 UNK         0.1106 
    107 H107       21.3596  -34.2547  -42.9693 H         1 UNK         0.0828 
    108 H108       21.5285  -32.6029  -43.5365 H         1 UNK         0.0828 
    109 H109       22.7774  -33.7894  -43.8816 H         1 UNK         0.0828 
    110 H110       21.1773  -34.6618  -40.6798 H         1 UNK         0.2931 
    111 H111       19.5811  -34.6922  -39.2015 H         1 UNK         0.0412 
    112 H112       19.0332  -33.0704  -36.8016 H         1 UNK         0.3472 
    113 H113       20.4456  -33.2909  -35.8052 H         1 UNK         0.3472 
    114 H114       19.2946  -31.6593  -39.1219 H         1 UNK         0.0970 
    115 H115       18.1133  -32.8432  -38.6468 H         1 UNK         0.0970 
    116 H116       19.3012  -30.5302  -41.1204 H         1 UNK         0.0612 
    117 H117       17.5732  -30.3297  -40.9600 H         1 UNK         0.0612 
@<TRIPOS>BOND
     1    1    2 1    
     2    1   62 1    
     3    1   63 1    
     4    1   64 1    
     5    2    3 2    
     6    2    4 am   BACKBONE|DICT|INTERRES
     7    4    5 1    
     8    4   65 1    
     9    5    6 1    
    10    5   25 1    
    11    5   66 1    
    12    6    7 1    
    13    6   67 1    
    14    6   68 1    
    15    7    8 1    
    16    8    9 1    
    17    8   69 1    
    18    8   70 1    
    19    9   10 ar   
    20    9   14 ar   
    21   10   11 ar   
    22   10   71 1    
    23   11   12 ar   
    24   11   61 1    
    25   12   13 ar   
    26   12   72 1    
    27   13   14 ar   
    28   13   15 1    
    29   14   73 1    
    30   15   16 1    
    31   15   74 1    
    32   15   75 1    
    33   16   17 1    
    34   17   18 1    
    35   17   76 1    
    36   17   77 1    
    37   18   19 1    
    38   18   27 1    
    39   18   78 1    
    40   19   20 am   BACKBONE|DICT|INTERRES
    41   19   79 1    
    42   20   21 2    
    43   20   22 1    
    44   22   23 1    
    45   22   24 1    
    46   22   80 1    
    47   23   81 1    
    48   23   82 1    
    49   23   83 1    
    50   24   25 am   BACKBONE|DICT|INTERRES
    51   24   84 1    
    52   25   26 2    
    53   27   28 2    
    54   27   29 am   BACKBONE|DICT|INTERRES
    55   29   30 1    
    56   29   85 1    
    57   30   31 1    
    58   30   32 1    
    59   30   86 1    
    60   31   87 1    
    61   31   88 1    
    62   31   89 1    
    63   32   33 2    
    64   32   34 am   BACKBONE|DICT|INTERRES
    65   34   35 1    
    66   34   90 1    
    67   35   36 1    
    68   35   37 1    
    69   35   91 1    
    70   36   92 1    
    71   36   93 1    
    72   36   94 1    
    73   37   38 2    
    74   37   39 am   BACKBONE|DICT|INTERRES
    75   39   40 1    
    76   39   95 1    
    77   40   41 1    
    78   40   42 1    
    79   40   96 1    
    80   41   97 1    
    81   41   98 1    
    82   41   99 1    
    83   42   43 2    
    84   42   44 am   BACKBONE|DICT|INTERRES
    85   44   45 1    
    86   44  100 1    
    87   45   46 1    
    88   45   47 1    
    89   45  101 1    
    90   46  102 1    
    91   46  103 1    
    92   46  104 1    
    93   47   48 2    
    94   47   49 am   BACKBONE|DICT|INTERRES
    95   49   50 1    
    96   49  105 1    
    97   50   51 1    
    98   50   52 1    
    99   50  106 1    
   100   51  107 1    
   101   51  108 1    
   102   51  109 1    
   103   52   53 2    
   104   52   54 am   BACKBONE|DICT|INTERRES
   105   54   55 1    
   106   54  110 1    
   107   55   56 1    
   108   55   59 1    
   109   55  111 1    
   110   56   57 am   BACKBONE|DICT|INTERRES
   111   56   58 2    
   112   57  112 1    
   113   57  113 1    
   114   59   60 1    
   115   59  114 1    
   116   59  115 1    
   117   60   61 1    
   118   61  116 1    
   119   61  117 1    
@<TRIPOS>SUBSTRUCTURE
     1 UNK         1 GROUP             0       ****    0 ROOT    
