@<TRIPOS>MOLECULE
3R8
117   119    1
SMALL
USER_CHARGES


@<TRIPOS>ATOM
      1 CA         14.5440  -25.4848  -48.0686 C.3       0 UNK        -0.2013 
      2 C          15.6574  -25.7602  -47.0699 C.2       0 UNK         0.4866 
      3 O          16.7551  -26.1515  -47.4654 O.2       0 UNK        -0.5176 
      4 N          15.3987  -25.5375  -45.7748 N.am      1 UNK        -0.4884 
      5 CA         16.3190  -25.7716  -44.6516 C.3       1 UNK         0.0853 
      6 C6         15.5163  -26.0363  -43.3486 C.3       10 UNK        -0.0849 
      7 S7         16.4409  -26.9161  -42.0420 S.3       10 UNK        -0.2776 
      8 C8         16.3574  -28.6578  -42.5707 C.3       10 UNK         0.0316 
      9 C9         17.7326  -29.1555  -42.9895 C.ar      10 UNK        -0.0863 
     10 C10        18.6746  -29.5063  -42.0162 C.ar      10 UNK        -0.1009 
     11 C11        19.9577  -29.9208  -42.3858 C.ar      10 UNK        -0.0712 
     12 C12        20.2915  -29.9913  -43.7410 C.ar      10 UNK        -0.0894 
     13 C13        19.3550  -29.6598  -44.7218 C.ar      10 UNK        -0.0745 
     14 C14        18.0737  -29.2501  -44.3418 C.ar      10 UNK        -0.0972 
     15 C15        19.7250  -29.7449  -46.1927 C.3       10 UNK         0.0209 
     16 S16        19.9192  -28.0956  -46.9320 S.3       10 UNK        -0.2568 
     17 C17        21.5729  -27.5646  -46.3470 C.3       10 UNK        -0.0983 
     18 CA         21.5837  -26.3537  -45.3630 C.3       3 UNK         0.0876 
     19 N          20.4925  -25.4155  -45.6412 N.am      3 UNK        -0.4424 
     20 C          20.4662  -24.0984  -45.4070 C.2       2 UNK         0.4918 
     21 O          21.4033  -23.4700  -44.9170 O.2       2 UNK        -0.4875 
     22 CA         19.1509  -23.3758  -45.7495 C.3       2 UNK         0.0481 
     23 CB         19.2208  -22.7744  -47.1615 C.3       2 UNK        -0.1831 
     24 N          17.9971  -24.2775  -45.6647 N.am      2 UNK        -0.4498 
     25 C          17.4027  -24.6676  -44.5285 C.2       1 UNK         0.5027 
     26 O          17.6931  -24.1918  -43.4308 O.2       1 UNK        -0.4969 
     27 C          21.6860  -26.7648  -43.8738 C.2       3 UNK         0.5005 
     28 O          22.4974  -27.6322  -43.5478 O.2       3 UNK        -0.5279 
     29 N          20.9245  -26.1066  -42.9836 N.am      4 UNK        -0.4463 
     30 CA         20.8601  -26.3208  -41.5298 C.3       4 UNK         0.0283 
     31 CB         19.8720  -25.3108  -40.9255 C.3       4 UNK        -0.1875 
     32 C          22.2007  -26.2560  -40.7694 C.2       4 UNK         0.4949 
     33 O          22.2659  -26.7276  -39.6347 O.2       4 UNK        -0.5039 
     34 N          23.2393  -25.6808  -41.3902 N.am      5 UNK        -0.4663 
     35 CA         24.6156  -25.6632  -40.8906 C.3       5 UNK         0.0242 
     36 CB         25.4228  -24.6346  -41.6999 C.3       5 UNK        -0.1982 
     37 C          25.3101  -27.0408  -40.9235 C.2       5 UNK         0.5017 
     38 O          26.3166  -27.2089  -40.2326 O.2       5 UNK        -0.5012 
     39 N          24.7927  -27.9895  -41.7202 N.am      6 UNK        -0.4439 
     40 CA         25.2792  -29.3706  -41.7943 C.3       6 UNK         0.0297 
     41 CB         24.6748  -30.0494  -43.0350 C.3       6 UNK        -0.2006 
     42 C          24.9671  -30.1762  -40.5171 C.2       6 UNK         0.4892 
     43 O          24.0837  -29.8011  -39.7427 O.2       6 UNK        -0.5089 
     44 N          25.6991  -31.2801  -40.3331 N.am      7 UNK        -0.4243 
     45 CA         25.5422  -32.2187  -39.2213 C.3       7 UNK         0.0196 
     46 CB         26.9161  -32.4342  -38.5630 C.3       7 UNK        -0.2007 
     47 C          24.9801  -33.5546  -39.7284 C.2       7 UNK         0.5020 
     48 O          25.1120  -33.8665  -40.9143 O.2       7 UNK        -0.5147 
     49 N          24.4012  -34.3310  -38.7994 N.am      8 UNK        -0.4734 
     50 CA         23.8219  -35.6711  -38.9924 C.3       8 UNK         0.0238 
     51 CB         24.9174  -36.6945  -39.3643 C.3       8 UNK        -0.1912 
     52 C          22.6245  -35.6932  -39.9658 C.2       8 UNK         0.5038 
     53 O          22.4570  -36.6560  -40.7173 O.2       8 UNK        -0.5046 
     54 N          21.8129  -34.6292  -39.9280 N.am      9 UNK        -0.4200 
     55 CA         20.6364  -34.4284  -40.7916 C.3       9 UNK         0.0839 
     56 C          19.3903  -35.2771  -40.4051 C.2       9 UNK         0.5513 
     57 N          19.3676  -35.9483  -39.2597 N.am      9 UNK        -0.7519 
     58 O          18.4265  -35.3315  -41.1645 O.2       9 UNK        -0.4960 
     59 C59        20.2682  -32.9265  -40.9151 C.3       10 UNK        -0.0876 
     60 S60        21.6741  -31.9212  -41.4934 S.3       10 UNK        -0.2414 
     61 C61        21.0026  -30.2383  -41.3252 C.3       10 UNK         0.0169 
     62 H62        14.8580  -24.7204  -48.7788 H         1 UNK         0.0903 
     63 H63        14.3087  -26.3913  -48.6256 H         1 UNK         0.0903 
     64 H64        13.6326  -25.1409  -47.5799 H         1 UNK         0.0903 
     65 H65        14.4923  -25.1707  -45.5185 H         1 UNK         0.3096 
     66 H66        16.8695  -26.6855  -44.8792 H         1 UNK         0.1121 
     67 H67        14.6259  -26.6281  -43.5678 H         1 UNK         0.0849 
     68 H68        15.1426  -25.0979  -42.9344 H         1 UNK         0.0849 
     69 H69        15.9882  -29.2625  -41.7410 H         1 UNK         0.0865 
     70 H70        15.6368  -28.7832  -43.3802 H         1 UNK         0.0865 
     71 H71        18.4147  -29.4272  -40.9694 H         1 UNK         0.1346 
     72 H72        21.2896  -30.2919  -44.0282 H         1 UNK         0.1412 
     73 H73        17.3511  -28.9914  -45.1037 H         1 UNK         0.1426 
     74 H74        18.9363  -30.2764  -46.7270 H         1 UNK         0.0716 
     75 H75        20.6368  -30.3259  -46.3399 H         1 UNK         0.0716 
     76 H76        22.1204  -28.4225  -45.9526 H         1 UNK         0.0695 
     77 H77        22.1241  -27.2776  -47.2437 H         1 UNK         0.0695 
     78 H78        22.5164  -25.8160  -45.5481 H         1 UNK         0.0983 
     79 H79        19.6765  -25.8437  -46.0563 H         1 UNK         0.3095 
     80 H80        19.0176  -22.5600  -45.0360 H         1 UNK         0.0454 
     81 H81        20.0610  -22.0843  -47.2503 H         1 UNK         0.0851 
     82 H82        19.3480  -23.5435  -47.9245 H         1 UNK         0.0851 
     83 H83        18.3165  -22.2136  -47.3983 H         1 UNK         0.0851 
     84 H84        17.6923  -24.7311  -46.5218 H         1 UNK         0.2976 
     85 H85        20.3070  -25.3949  -43.3462 H         1 UNK         0.3116 
     86 H86        20.4574  -27.3209  -41.3719 H         1 UNK         0.0646 
     87 H87        19.7732  -25.4519  -39.8482 H         1 UNK         0.0847 
     88 H88        18.8769  -25.4245  -41.3522 H         1 UNK         0.0847 
     89 H89        20.1929  -24.2820  -41.0928 H         1 UNK         0.0847 
     90 H90        23.0875  -25.3153  -42.3189 H         1 UNK         0.3040 
     91 H91        24.5935  -25.3400  -39.8473 H         1 UNK         0.1015 
     92 H92        24.9873  -23.6380  -41.6233 H         1 UNK         0.0786 
     93 H93        25.4716  -24.9012  -42.7565 H         1 UNK         0.0786 
     94 H94        26.4481  -24.5668  -41.3334 H         1 UNK         0.0786 
     95 H95        23.9500  -27.7791  -42.2498 H         1 UNK         0.3172 
     96 H96        26.3640  -29.3383  -41.9161 H         1 UNK         0.0595 
     97 H97        25.0290  -31.0757  -43.1401 H         1 UNK         0.0839 
     98 H98        24.9435  -29.5182  -43.9482 H         1 UNK         0.0839 
     99 H99        23.5872  -30.0868  -42.9832 H         1 UNK         0.0839 
    100 H100       26.3413  -31.5670  -41.0586 H         1 UNK         0.2998 
    101 H101       24.8546  -31.8168  -38.4738 H         1 UNK         0.0822 
    102 H102       27.3284  -31.4949  -38.1934 H         1 UNK         0.0787 
    103 H103       26.8440  -33.1117  -37.7112 H         1 UNK         0.0787 
    104 H104       27.6361  -32.8639  -39.2610 H         1 UNK         0.0787 
    105 H105       24.3551  -33.9760  -37.8532 H         1 UNK         0.3055 
    106 H106       23.4166  -35.9712  -38.0246 H         1 UNK         0.1106 
    107 H107       25.3293  -36.5059  -40.3561 H         1 UNK         0.0828 
    108 H108       25.7401  -36.6735  -38.6497 H         1 UNK         0.0828 
    109 H109       24.5200  -37.7103  -39.3672 H         1 UNK         0.0828 
    110 H110       22.0316  -33.8766  -39.2930 H         1 UNK         0.2931 
    111 H111       20.9176  -34.7665  -41.7912 H         1 UNK         0.0412 
    112 H112       20.1525  -35.9124  -38.6295 H         1 UNK         0.3472 
    113 H113       18.5553  -36.4972  -39.0244 H         1 UNK         0.3472 
    114 H114       19.4441  -32.7884  -41.6183 H         1 UNK         0.0970 
    115 H115       19.9240  -32.5365  -39.9555 H         1 UNK         0.0970 
    116 H116       21.8205  -29.5230  -41.4191 H         1 UNK         0.0612 
    117 H117       20.5999  -30.1092  -40.3196 H         1 UNK         0.0612 
@<TRIPOS>BOND
     1    1    2 1    
     2    1   62 1    
     3    1   63 1    
     4    1   64 1    
     5    2    3 2    
     6    2    4 am   BACKBONE|DICT|INTERRES
     7    4    5 1    
     8    4   65 1    
     9    5    6 1    
    10    5   25 1    
    11    5   66 1    
    12    6    7 1    
    13    6   67 1    
    14    6   68 1    
    15    7    8 1    
    16    8    9 1    
    17    8   69 1    
    18    8   70 1    
    19    9   10 ar   
    20    9   14 ar   
    21   10   11 ar   
    22   10   71 1    
    23   11   12 ar   
    24   11   61 1    
    25   12   13 ar   
    26   12   72 1    
    27   13   14 ar   
    28   13   15 1    
    29   14   73 1    
    30   15   16 1    
    31   15   74 1    
    32   15   75 1    
    33   16   17 1    
    34   17   18 1    
    35   17   76 1    
    36   17   77 1    
    37   18   19 1    
    38   18   27 1    
    39   18   78 1    
    40   19   20 am   BACKBONE|DICT|INTERRES
    41   19   79 1    
    42   20   21 2    
    43   20   22 1    
    44   22   23 1    
    45   22   24 1    
    46   22   80 1    
    47   23   81 1    
    48   23   82 1    
    49   23   83 1    
    50   24   25 am   BACKBONE|DICT|INTERRES
    51   24   84 1    
    52   25   26 2    
    53   27   28 2    
    54   27   29 am   BACKBONE|DICT|INTERRES
    55   29   30 1    
    56   29   85 1    
    57   30   31 1    
    58   30   32 1    
    59   30   86 1    
    60   31   87 1    
    61   31   88 1    
    62   31   89 1    
    63   32   33 2    
    64   32   34 am   BACKBONE|DICT|INTERRES
    65   34   35 1    
    66   34   90 1    
    67   35   36 1    
    68   35   37 1    
    69   35   91 1    
    70   36   92 1    
    71   36   93 1    
    72   36   94 1    
    73   37   38 2    
    74   37   39 am   BACKBONE|DICT|INTERRES
    75   39   40 1    
    76   39   95 1    
    77   40   41 1    
    78   40   42 1    
    79   40   96 1    
    80   41   97 1    
    81   41   98 1    
    82   41   99 1    
    83   42   43 2    
    84   42   44 am   BACKBONE|DICT|INTERRES
    85   44   45 1    
    86   44  100 1    
    87   45   46 1    
    88   45   47 1    
    89   45  101 1    
    90   46  102 1    
    91   46  103 1    
    92   46  104 1    
    93   47   48 2    
    94   47   49 am   BACKBONE|DICT|INTERRES
    95   49   50 1    
    96   49  105 1    
    97   50   51 1    
    98   50   52 1    
    99   50  106 1    
   100   51  107 1    
   101   51  108 1    
   102   51  109 1    
   103   52   53 2    
   104   52   54 am   BACKBONE|DICT|INTERRES
   105   54   55 1    
   106   54  110 1    
   107   55   56 1    
   108   55   59 1    
   109   55  111 1    
   110   56   57 am   BACKBONE|DICT|INTERRES
   111   56   58 2    
   112   57  112 1    
   113   57  113 1    
   114   59   60 1    
   115   59  114 1    
   116   59  115 1    
   117   60   61 1    
   118   61  116 1    
   119   61  117 1    
@<TRIPOS>SUBSTRUCTURE
     1 UNK         1 GROUP             0       ****    0 ROOT    
