@<TRIPOS>MOLECULE
3R8
117   119    1
SMALL
USER_CHARGES


@<TRIPOS>ATOM
      1 CA         15.1322  -22.3521  -42.1148 C.3       0 UNK        -0.2013 
      2 C          15.9677  -23.4952  -42.6717 C.2       0 UNK         0.4866 
      3 O          16.2180  -23.5401  -43.8766 O.2       0 UNK        -0.5176 
      4 N          16.3940  -24.4244  -41.8067 N.am      1 UNK        -0.4884 
      5 CA         17.2666  -25.5489  -42.1560 C.3       1 UNK         0.0853 
      6 C6         17.2025  -26.6503  -41.0684 C.3       10 UNK        -0.0849 
      7 S7         18.0182  -28.1982  -41.5748 S.3       10 UNK        -0.2776 
      8 C8         16.7088  -29.0229  -42.5303 C.3       10 UNK         0.0316 
      9 C9         17.3279  -29.8307  -43.6583 C.ar      10 UNK        -0.0863 
     10 C10        17.8875  -31.0841  -43.3959 C.ar      10 UNK        -0.1009 
     11 C11        18.5155  -31.8067  -44.4140 C.ar      10 UNK        -0.0712 
     12 C12        18.5637  -31.2755  -45.7064 C.ar      10 UNK        -0.0894 
     13 C13        17.9949  -30.0289  -45.9845 C.ar      10 UNK        -0.0745 
     14 C14        17.3743  -29.3124  -44.9563 C.ar      10 UNK        -0.0972 
     15 C15        18.0476  -29.4603  -47.3966 C.3       10 UNK         0.0209 
     16 S16        19.0235  -27.9257  -47.4967 S.3       10 UNK        -0.2568 
     17 C17        20.6997  -28.5245  -47.0908 C.3       10 UNK        -0.0983 
     18 CA         21.7273  -27.3611  -46.9952 C.3       3 UNK         0.0876 
     19 N          21.3232  -26.3174  -46.0364 N.am      3 UNK        -0.4424 
     20 C          21.2325  -26.4604  -44.7070 C.2       2 UNK         0.4918 
     21 O          21.5686  -27.4826  -44.1097 O.2       2 UNK        -0.4875 
     22 CA         20.6944  -25.2722  -43.8992 C.3       2 UNK         0.0481 
     23 CB         20.6946  -23.9279  -44.6609 C.3       2 UNK        -0.1831 
     24 N          19.3471  -25.6088  -43.4540 N.am      2 UNK        -0.4498 
     25 C          18.7065  -25.0527  -42.4193 C.2       1 UNK         0.5027 
     26 O          19.1990  -24.1911  -41.6856 O.2       1 UNK        -0.4969 
     27 C          23.1763  -27.8596  -46.7646 C.2       3 UNK         0.5005 
     28 O          23.4903  -29.0110  -47.0716 O.2       3 UNK        -0.5279 
     29 N          24.0287  -26.9736  -46.2214 N.am      4 UNK        -0.4463 
     30 CA         25.4335  -27.1849  -45.8487 C.3       4 UNK         0.0283 
     31 CB         26.3013  -27.4410  -47.1001 C.3       4 UNK        -0.1875 
     32 C          25.6448  -28.2492  -44.7496 C.2       4 UNK         0.4949 
     33 O          26.7158  -28.8566  -44.6984 O.2       4 UNK        -0.5039 
     34 N          24.6458  -28.4474  -43.8774 N.am      5 UNK        -0.4663 
     35 CA         24.7071  -29.4031  -42.7668 C.3       5 UNK         0.0242 
     36 CB         24.2545  -30.7942  -43.2417 C.3       5 UNK        -0.1982 
     37 C          23.9132  -28.9366  -41.5391 C.2       5 UNK         0.5017 
     38 O          24.3931  -29.1153  -40.4190 O.2       5 UNK        -0.5012 
     39 N          22.7328  -28.3361  -41.7535 N.am      6 UNK        -0.4439 
     40 CA         21.8191  -27.8017  -40.7382 C.3       6 UNK         0.0297 
     41 CB         22.3854  -26.4906  -40.1468 C.3       6 UNK        -0.2006 
     42 C          21.4439  -28.8674  -39.6888 C.2       6 UNK         0.4892 
     43 O          20.9434  -29.9286  -40.0623 O.2       6 UNK        -0.5089 
     44 N          21.7288  -28.5968  -38.4079 N.am      7 UNK        -0.4243 
     45 CA         21.4836  -29.4944  -37.2751 C.3       7 UNK         0.0196 
     46 CB         21.8028  -28.7478  -35.9694 C.3       7 UNK        -0.2007 
     47 C          22.2507  -30.8306  -37.3315 C.2       7 UNK         0.5020 
     48 O          21.8365  -31.7784  -36.6638 O.2       7 UNK        -0.5147 
     49 N          23.3380  -30.9006  -38.1142 N.am      8 UNK        -0.4734 
     50 CA         24.1033  -32.1304  -38.3384 C.3       8 UNK         0.0238 
     51 CB         25.5564  -31.7705  -38.6925 C.3       8 UNK        -0.1912 
     52 C          23.4900  -33.0349  -39.4239 C.2       8 UNK         0.5038 
     53 O          23.9292  -34.1791  -39.5502 O.2       8 UNK        -0.5046 
     54 N          22.5194  -32.5256  -40.1973 N.am      9 UNK        -0.4200 
     55 CA         21.8157  -33.2772  -41.2447 C.3       9 UNK         0.0839 
     56 C          20.8802  -34.3730  -40.6632 C.2       9 UNK         0.5513 
     57 N          20.7467  -35.5019  -41.3457 N.am      9 UNK        -0.7519 
     58 O          20.2493  -34.1951  -39.6234 O.2       9 UNK        -0.4960 
     59 C59        21.0568  -32.3226  -42.2025 C.3       10 UNK        -0.0876 
     60 S60        20.9523  -32.9972  -43.8954 S.3       10 UNK        -0.2414 
     61 C61        19.1546  -33.1555  -44.1218 C.3       10 UNK         0.0169 
     62 H62        14.9767  -22.4455  -41.0401 H         1 UNK         0.0903 
     63 H63        15.6268  -21.3997  -42.3041 H         1 UNK         0.0903 
     64 H64        14.1557  -22.3309  -42.5978 H         1 UNK         0.0903 
     65 H65        16.1880  -24.3166  -40.8235 H         1 UNK         0.3096 
     66 H66        16.8814  -25.9715  -43.0869 H         1 UNK         0.1121 
     67 H67        16.1646  -26.8769  -40.8182 H         1 UNK         0.0849 
     68 H68        17.6645  -26.3033  -40.1420 H         1 UNK         0.0849 
     69 H69        16.1300  -29.6718  -41.8711 H         1 UNK         0.0865 
     70 H70        16.0086  -28.2898  -42.9332 H         1 UNK         0.0865 
     71 H71        17.8545  -31.4824  -42.3912 H         1 UNK         0.1346 
     72 H72        19.0544  -31.8327  -46.4929 H         1 UNK         0.1412 
     73 H73        16.9447  -28.3427  -45.1679 H         1 UNK         0.1426 
     74 H74        17.0308  -29.2521  -47.7321 H         1 UNK         0.0716 
     75 H75        18.4583  -30.1886  -48.0977 H         1 UNK         0.0716 
     76 H76        20.9927  -29.2385  -47.8626 H         1 UNK         0.0695 
     77 H77        20.6642  -29.0807  -46.1523 H         1 UNK         0.0695 
     78 H78        21.7523  -26.8747  -47.9718 H         1 UNK         0.0983 
     79 H79        21.0229  -25.4442  -46.4455 H         1 UNK         0.3095 
     80 H80        21.3402  -25.1726  -43.0247 H         1 UNK         0.0454 
     81 H81        20.4198  -23.1051  -44.0006 H         1 UNK         0.0851 
     82 H82        19.9881  -23.9251  -45.4917 H         1 UNK         0.0851 
     83 H83        21.6842  -23.6943  -45.0557 H         1 UNK         0.0851 
     84 H84        18.9025  -26.3626  -43.9611 H         1 UNK         0.2976 
     85 H85        23.6614  -26.0551  -46.0146 H         1 UNK         0.3116 
     86 H86        25.7690  -26.2435  -45.4111 H         1 UNK         0.0646 
     87 H87        26.0792  -28.4061  -47.5562 H         1 UNK         0.0847 
     88 H88        26.1493  -26.6696  -47.8549 H         1 UNK         0.0847 
     89 H89        27.3627  -27.4390  -46.8491 H         1 UNK         0.0847 
     90 H90        23.7939  -27.9117  -43.9816 H         1 UNK         0.3040 
     91 H91        25.7430  -29.4866  -42.4289 H         1 UNK         0.1015 
     92 H92        24.1893  -31.4969  -42.4101 H         1 UNK         0.0786 
     93 H93        24.9596  -31.2114  -43.9607 H         1 UNK         0.0786 
     94 H94        23.2789  -30.7535  -43.7264 H         1 UNK         0.0786 
     95 H95        22.3761  -28.2599  -42.7040 H         1 UNK         0.3172 
     96 H96        20.8967  -27.5513  -41.2627 H         1 UNK         0.0595 
     97 H97        23.3227  -26.6480  -39.6117 H         1 UNK         0.0839 
     98 H98        21.6761  -26.0265  -39.4601 H         1 UNK         0.0839 
     99 H99        22.5797  -25.7626  -40.9341 H         1 UNK         0.0839 
    100 H100       22.1695  -27.7135  -38.1965 H         1 UNK         0.2998 
    101 H101       20.4192  -29.7390  -37.2786 H         1 UNK         0.0822 
    102 H102       21.5987  -29.3751  -35.1003 H         1 UNK         0.0787 
    103 H103       21.1950  -27.8486  -35.8659 H         1 UNK         0.0787 
    104 H104       22.8521  -28.4540  -35.9195 H         1 UNK         0.0787 
    105 H105       23.6111  -30.0900  -38.6605 H         1 UNK         0.3055 
    106 H106       24.1205  -32.7095  -37.4121 H         1 UNK         0.1106 
    107 H107       26.0003  -31.1158  -37.9424 H         1 UNK         0.0828 
    108 H108       26.1757  -32.6669  -38.7455 H         1 UNK         0.0828 
    109 H109       25.6290  -31.2736  -39.6597 H         1 UNK         0.0828 
    110 H110       22.1609  -31.5985  -39.9967 H         1 UNK         0.2931 
    111 H111       22.5973  -33.7786  -41.8202 H         1 UNK         0.0412 
    112 H112       21.2414  -35.6421  -42.2132 H         1 UNK         0.3472 
    113 H113       20.1356  -36.2220  -40.9934 H         1 UNK         0.3472 
    114 H114       21.5728  -31.3659  -42.2798 H         1 UNK         0.0970 
    115 H115       20.0694  -32.0745  -41.8110 H         1 UNK         0.0970 
    116 H116       18.9641  -33.8360  -44.9529 H         1 UNK         0.0612 
    117 H117       18.7095  -33.6185  -43.2396 H         1 UNK         0.0612 
@<TRIPOS>BOND
     1    1    2 1    
     2    1   62 1    
     3    1   63 1    
     4    1   64 1    
     5    2    3 2    
     6    2    4 am   BACKBONE|DICT|INTERRES
     7    4    5 1    
     8    4   65 1    
     9    5    6 1    
    10    5   25 1    
    11    5   66 1    
    12    6    7 1    
    13    6   67 1    
    14    6   68 1    
    15    7    8 1    
    16    8    9 1    
    17    8   69 1    
    18    8   70 1    
    19    9   10 ar   
    20    9   14 ar   
    21   10   11 ar   
    22   10   71 1    
    23   11   12 ar   
    24   11   61 1    
    25   12   13 ar   
    26   12   72 1    
    27   13   14 ar   
    28   13   15 1    
    29   14   73 1    
    30   15   16 1    
    31   15   74 1    
    32   15   75 1    
    33   16   17 1    
    34   17   18 1    
    35   17   76 1    
    36   17   77 1    
    37   18   19 1    
    38   18   27 1    
    39   18   78 1    
    40   19   20 am   BACKBONE|DICT|INTERRES
    41   19   79 1    
    42   20   21 2    
    43   20   22 1    
    44   22   23 1    
    45   22   24 1    
    46   22   80 1    
    47   23   81 1    
    48   23   82 1    
    49   23   83 1    
    50   24   25 am   BACKBONE|DICT|INTERRES
    51   24   84 1    
    52   25   26 2    
    53   27   28 2    
    54   27   29 am   BACKBONE|DICT|INTERRES
    55   29   30 1    
    56   29   85 1    
    57   30   31 1    
    58   30   32 1    
    59   30   86 1    
    60   31   87 1    
    61   31   88 1    
    62   31   89 1    
    63   32   33 2    
    64   32   34 am   BACKBONE|DICT|INTERRES
    65   34   35 1    
    66   34   90 1    
    67   35   36 1    
    68   35   37 1    
    69   35   91 1    
    70   36   92 1    
    71   36   93 1    
    72   36   94 1    
    73   37   38 2    
    74   37   39 am   BACKBONE|DICT|INTERRES
    75   39   40 1    
    76   39   95 1    
    77   40   41 1    
    78   40   42 1    
    79   40   96 1    
    80   41   97 1    
    81   41   98 1    
    82   41   99 1    
    83   42   43 2    
    84   42   44 am   BACKBONE|DICT|INTERRES
    85   44   45 1    
    86   44  100 1    
    87   45   46 1    
    88   45   47 1    
    89   45  101 1    
    90   46  102 1    
    91   46  103 1    
    92   46  104 1    
    93   47   48 2    
    94   47   49 am   BACKBONE|DICT|INTERRES
    95   49   50 1    
    96   49  105 1    
    97   50   51 1    
    98   50   52 1    
    99   50  106 1    
   100   51  107 1    
   101   51  108 1    
   102   51  109 1    
   103   52   53 2    
   104   52   54 am   BACKBONE|DICT|INTERRES
   105   54   55 1    
   106   54  110 1    
   107   55   56 1    
   108   55   59 1    
   109   55  111 1    
   110   56   57 am   BACKBONE|DICT|INTERRES
   111   56   58 2    
   112   57  112 1    
   113   57  113 1    
   114   59   60 1    
   115   59  114 1    
   116   59  115 1    
   117   60   61 1    
   118   61  116 1    
   119   61  117 1    
@<TRIPOS>SUBSTRUCTURE
     1 UNK         1 GROUP             0       ****    0 ROOT    
