@<TRIPOS>MOLECULE
3R8
117   119    1
SMALL
USER_CHARGES


@<TRIPOS>ATOM
      1 CA         15.8210  -30.8490  -41.3874 C.3       0 UNK        -0.2013 
      2 C          15.8384  -29.3300  -41.4595 C.2       0 UNK         0.4866 
      3 O          15.4008  -28.6686  -40.5184 O.2       0 UNK        -0.5176 
      4 N          16.3466  -28.7688  -42.5643 N.am      1 UNK        -0.4884 
      5 CA         16.3777  -27.3214  -42.8348 C.3       1 UNK         0.0853 
      6 C6         16.1604  -26.9921  -44.3390 C.3       10 UNK        -0.0849 
      7 S7         14.7357  -27.8825  -45.0718 S.3       10 UNK        -0.2776 
      8 C8         15.3863  -28.5232  -46.6575 C.3       10 UNK         0.0316 
      9 C9         16.7519  -29.1886  -46.5302 C.ar      10 UNK        -0.0863 
     10 C10        16.9363  -30.2850  -45.6813 C.ar      10 UNK        -0.1009 
     11 C11        18.2094  -30.8362  -45.5066 C.ar      10 UNK        -0.0712 
     12 C12        19.2936  -30.3094  -46.2118 C.ar      10 UNK        -0.0894 
     13 C13        19.1191  -29.2211  -47.0702 C.ar      10 UNK        -0.0745 
     14 C14        17.8450  -28.6713  -47.2337 C.ar      10 UNK        -0.0972 
     15 C15        20.3212  -28.6000  -47.7676 C.3       10 UNK         0.0209 
     16 S16        20.7954  -27.0077  -47.0147 S.3       10 UNK        -0.2568 
     17 C17        20.9410  -27.4726  -45.2574 C.3       10 UNK        -0.0983 
     18 CA         21.4213  -26.2992  -44.3599 C.3       3 UNK         0.0876 
     19 N          20.7095  -26.2801  -43.0772 N.am      3 UNK        -0.4424 
     20 C          20.8605  -27.1365  -42.0586 C.2       2 UNK         0.4918 
     21 O          21.7559  -27.9724  -41.9814 O.2       2 UNK        -0.4875 
     22 CA         19.7857  -27.0945  -40.9620 C.3       2 UNK         0.0481 
     23 CB         19.8305  -25.7868  -40.1475 C.3       2 UNK        -0.1831 
     24 N          18.4464  -27.3927  -41.4865 N.am      2 UNK        -0.4498 
     25 C          17.6714  -26.6604  -42.3028 C.2       1 UNK         0.5027 
     26 O          17.9651  -25.5214  -42.6720 O.2       1 UNK        -0.4969 
     27 C          22.9582  -26.2027  -44.2150 C.2       3 UNK         0.5005 
     28 O          23.6967  -26.9690  -44.8398 O.2       3 UNK        -0.5279 
     29 N          23.4046  -25.2484  -43.3819 N.am      4 UNK        -0.4463 
     30 CA         24.7987  -24.8717  -43.1198 C.3       4 UNK         0.0283 
     31 CB         25.3812  -24.1062  -44.3298 C.3       4 UNK        -0.1875 
     32 C          25.6607  -26.0675  -42.6724 C.2       4 UNK         0.4949 
     33 O          25.5634  -26.4787  -41.5165 O.2       4 UNK        -0.5039 
     34 N          26.4695  -26.6124  -43.5920 N.am      5 UNK        -0.4663 
     35 CA         27.3824  -27.7396  -43.3804 C.3       5 UNK         0.0242 
     36 CB         28.2249  -27.9446  -44.6499 C.3       5 UNK        -0.1982 
     37 C          26.6986  -29.0572  -42.9709 C.2       5 UNK         0.5017 
     38 O          27.3597  -29.9011  -42.3647 O.2       5 UNK        -0.5012 
     39 N          25.4014  -29.2128  -43.2788 N.am      6 UNK        -0.4439 
     40 CA         24.5871  -30.3474  -42.8275 C.3       6 UNK         0.0297 
     41 CB         23.3437  -30.4810  -43.7201 C.3       6 UNK        -0.2006 
     42 C          24.1993  -30.2733  -41.3352 C.2       6 UNK         0.4892 
     43 O          23.7387  -31.2833  -40.7983 O.2       6 UNK        -0.5089 
     44 N          24.3983  -29.1081  -40.6955 N.am      7 UNK        -0.4243 
     45 CA         24.1911  -28.7666  -39.2820 C.3       7 UNK         0.0196 
     46 CB         25.1450  -29.5658  -38.3718 C.3       7 UNK        -0.2007 
     47 C          22.7338  -28.8693  -38.8009 C.2       7 UNK         0.5020 
     48 O          22.1602  -27.8661  -38.3770 O.2       7 UNK        -0.5147 
     49 N          22.1759  -30.0802  -38.8533 N.am      8 UNK        -0.4734 
     50 CA         20.8152  -30.4224  -38.4398 C.3       8 UNK         0.0238 
     51 CB         20.8132  -30.7824  -36.9415 C.3       8 UNK        -0.1912 
     52 C          20.2097  -31.5473  -39.2993 C.2       8 UNK         0.5038 
     53 O          19.1398  -32.0451  -38.9469 O.2       8 UNK        -0.5046 
     54 N          20.8922  -31.9432  -40.3862 N.am      9 UNK        -0.4200 
     55 CA         20.5332  -33.0590  -41.2821 C.3       9 UNK         0.0839 
     56 C          20.7071  -34.4718  -40.6440 C.2       9 UNK         0.5513 
     57 N          21.4437  -34.6175  -39.5487 N.am      9 UNK        -0.7519 
     58 O          20.1946  -35.4603  -41.1631 O.2       9 UNK        -0.4960 
     59 C59        19.1504  -32.8826  -41.9759 C.3       10 UNK        -0.0876 
     60 S60        19.0297  -31.3339  -42.9331 S.3       10 UNK        -0.2414 
     61 C61        18.4313  -31.9736  -44.5269 C.3       10 UNK         0.0169 
     62 H62        16.5641  -31.1985  -40.6708 H         1 UNK         0.0903 
     63 H63        14.8420  -31.1990  -41.0616 H         1 UNK         0.0903 
     64 H64        16.0339  -31.3042  -42.3542 H         1 UNK         0.0903 
     65 H65        16.7136  -29.3530  -43.3034 H         1 UNK         0.3096 
     66 H66        15.5576  -26.8501  -42.2882 H         1 UNK         0.1121 
     67 H67        15.9787  -25.9231  -44.4649 H         1 UNK         0.0849 
     68 H68        17.0697  -27.1986  -44.9035 H         1 UNK         0.0849 
     69 H69        14.6762  -29.2436  -47.0658 H         1 UNK         0.0865 
     70 H70        15.4251  -27.6984  -47.3707 H         1 UNK         0.0865 
     71 H71        16.0939  -30.6839  -45.1325 H         1 UNK         0.1346 
     72 H72        20.2809  -30.7240  -46.0599 H         1 UNK         0.1412 
     73 H73        17.7177  -27.8133  -47.8800 H         1 UNK         0.1426 
     74 H74        21.1775  -29.2757  -47.7366 H         1 UNK         0.0716 
     75 H75        20.0916  -28.4426  -48.8223 H         1 UNK         0.0716 
     76 H76        19.9469  -27.7885  -44.9367 H         1 UNK         0.0695 
     77 H77        21.5696  -28.3576  -45.1619 H         1 UNK         0.0695 
     78 H78        21.1231  -25.3674  -44.8434 H         1 UNK         0.0983 
     79 H79        19.8985  -25.6699  -43.0340 H         1 UNK         0.3095 
     80 H80        20.0112  -27.9079  -40.2724 H         1 UNK         0.0454 
     81 H81        19.6383  -24.9043  -40.7573 H         1 UNK         0.0851 
     82 H82        19.0989  -25.8011  -39.3399 H         1 UNK         0.0851 
     83 H83        20.8119  -25.6548  -39.6900 H         1 UNK         0.0851 
     84 H84        18.1069  -28.3222  -41.2820 H         1 UNK         0.2976 
     85 H85        22.7106  -24.7191  -42.8724 H         1 UNK         0.3116 
     86 H86        24.7798  -24.1806  -42.2757 H         1 UNK         0.0646 
     87 H87        26.4199  -23.8220  -44.1543 H         1 UNK         0.0847 
     88 H88        24.8271  -23.1849  -44.5098 H         1 UNK         0.0847 
     89 H89        25.3467  -24.6907  -45.2497 H         1 UNK         0.0847 
     90 H90        26.4337  -26.2340  -44.5278 H         1 UNK         0.3040 
     91 H91        28.0537  -27.4654  -42.5635 H         1 UNK         0.1015 
     92 H92        28.7985  -27.0506  -44.8957 H         1 UNK         0.0786 
     93 H93        27.6026  -28.1936  -45.5105 H         1 UNK         0.0786 
     94 H94        28.9396  -28.7585  -44.5182 H         1 UNK         0.0786 
     95 H95        24.9269  -28.4698  -43.7826 H         1 UNK         0.3172 
     96 H96        25.1758  -31.2586  -42.9528 H         1 UNK         0.0595 
     97 H97        23.6166  -30.6246  -44.7655 H         1 UNK         0.0839 
     98 H98        22.7343  -31.3353  -43.4227 H         1 UNK         0.0839 
     99 H99        22.7123  -29.5982  -43.6584 H         1 UNK         0.0839 
    100 H100       24.7413  -28.3317  -41.2518 H         1 UNK         0.2998 
    101 H101       24.4690  -27.7148  -39.1964 H         1 UNK         0.0822 
    102 H102       26.1860  -29.3862  -38.6407 H         1 UNK         0.0787 
    103 H103       25.0245  -29.2720  -37.3282 H         1 UNK         0.0787 
    104 H104       24.9678  -30.6401  -38.4292 H         1 UNK         0.0787 
    105 H105       22.7399  -30.8182  -39.2660 H         1 UNK         0.3055 
    106 H106       20.1692  -29.5543  -38.5837 H         1 UNK         0.1106 
    107 H107       19.8052  -31.0050  -36.5891 H         1 UNK         0.0828 
    108 H108       21.4320  -31.6571  -36.7386 H         1 UNK         0.0828 
    109 H109       21.1886  -29.9582  -36.3348 H         1 UNK         0.0828 
    110 H110       21.7734  -31.4942  -40.6067 H         1 UNK         0.2931 
    111 H111       21.2849  -33.0312  -42.0717 H         1 UNK         0.0412 
    112 H112       21.5591  -35.5362  -39.1500 H         1 UNK         0.3472 
    113 H113       21.8920  -33.8221  -39.1240 H         1 UNK         0.3472 
    114 H114       18.3403  -32.9094  -41.2469 H         1 UNK         0.0970 
    115 H115       18.9625  -33.7209  -42.6488 H         1 UNK         0.0970 
    116 H116       19.1577  -32.6791  -44.9334 H         1 UNK         0.0612 
    117 H117       17.5049  -32.5292  -44.3726 H         1 UNK         0.0612 
@<TRIPOS>BOND
     1    1    2 1    
     2    1   62 1    
     3    1   63 1    
     4    1   64 1    
     5    2    3 2    
     6    2    4 am   BACKBONE|DICT|INTERRES
     7    4    5 1    
     8    4   65 1    
     9    5    6 1    
    10    5   25 1    
    11    5   66 1    
    12    6    7 1    
    13    6   67 1    
    14    6   68 1    
    15    7    8 1    
    16    8    9 1    
    17    8   69 1    
    18    8   70 1    
    19    9   10 ar   
    20    9   14 ar   
    21   10   11 ar   
    22   10   71 1    
    23   11   12 ar   
    24   11   61 1    
    25   12   13 ar   
    26   12   72 1    
    27   13   14 ar   
    28   13   15 1    
    29   14   73 1    
    30   15   16 1    
    31   15   74 1    
    32   15   75 1    
    33   16   17 1    
    34   17   18 1    
    35   17   76 1    
    36   17   77 1    
    37   18   19 1    
    38   18   27 1    
    39   18   78 1    
    40   19   20 am   BACKBONE|DICT|INTERRES
    41   19   79 1    
    42   20   21 2    
    43   20   22 1    
    44   22   23 1    
    45   22   24 1    
    46   22   80 1    
    47   23   81 1    
    48   23   82 1    
    49   23   83 1    
    50   24   25 am   BACKBONE|DICT|INTERRES
    51   24   84 1    
    52   25   26 2    
    53   27   28 2    
    54   27   29 am   BACKBONE|DICT|INTERRES
    55   29   30 1    
    56   29   85 1    
    57   30   31 1    
    58   30   32 1    
    59   30   86 1    
    60   31   87 1    
    61   31   88 1    
    62   31   89 1    
    63   32   33 2    
    64   32   34 am   BACKBONE|DICT|INTERRES
    65   34   35 1    
    66   34   90 1    
    67   35   36 1    
    68   35   37 1    
    69   35   91 1    
    70   36   92 1    
    71   36   93 1    
    72   36   94 1    
    73   37   38 2    
    74   37   39 am   BACKBONE|DICT|INTERRES
    75   39   40 1    
    76   39   95 1    
    77   40   41 1    
    78   40   42 1    
    79   40   96 1    
    80   41   97 1    
    81   41   98 1    
    82   41   99 1    
    83   42   43 2    
    84   42   44 am   BACKBONE|DICT|INTERRES
    85   44   45 1    
    86   44  100 1    
    87   45   46 1    
    88   45   47 1    
    89   45  101 1    
    90   46  102 1    
    91   46  103 1    
    92   46  104 1    
    93   47   48 2    
    94   47   49 am   BACKBONE|DICT|INTERRES
    95   49   50 1    
    96   49  105 1    
    97   50   51 1    
    98   50   52 1    
    99   50  106 1    
   100   51  107 1    
   101   51  108 1    
   102   51  109 1    
   103   52   53 2    
   104   52   54 am   BACKBONE|DICT|INTERRES
   105   54   55 1    
   106   54  110 1    
   107   55   56 1    
   108   55   59 1    
   109   55  111 1    
   110   56   57 am   BACKBONE|DICT|INTERRES
   111   56   58 2    
   112   57  112 1    
   113   57  113 1    
   114   59   60 1    
   115   59  114 1    
   116   59  115 1    
   117   60   61 1    
   118   61  116 1    
   119   61  117 1    
@<TRIPOS>SUBSTRUCTURE
     1 UNK         1 GROUP             0       ****    0 ROOT    
