@<TRIPOS>MOLECULE
3R8
117   119    1
SMALL
USER_CHARGES


@<TRIPOS>ATOM
      1 CA         15.0048  -23.0964  -43.8944 C.3       0 UNK        -0.2013 
      2 C          15.8850  -24.3373  -43.9265 C.2       0 UNK         0.4866 
      3 O          16.3555  -24.7235  -44.9959 O.2       0 UNK        -0.5176 
      4 N          16.1009  -24.9653  -42.7642 N.am      1 UNK        -0.4884 
      5 CA         16.9605  -26.1423  -42.5888 C.3       1 UNK         0.0853 
      6 C6         16.5552  -26.9503  -41.3258 C.3       10 UNK        -0.0849 
      7 S7         15.1157  -28.0074  -41.6864 S.3       10 UNK        -0.2776 
      8 C8         15.8923  -29.6546  -41.8386 C.3       10 UNK         0.0316 
      9 C9         17.0234  -29.7031  -42.8636 C.ar      10 UNK        -0.0863 
     10 C10        18.3051  -30.1073  -42.4755 C.ar      10 UNK        -0.1009 
     11 C11        19.3402  -30.1919  -43.4115 C.ar      10 UNK        -0.0712 
     12 C12        19.0888  -29.8629  -44.7458 C.ar      10 UNK        -0.0894 
     13 C13        17.8201  -29.4316  -45.1438 C.ar      10 UNK        -0.0745 
     14 C14        16.7881  -29.3708  -44.2017 C.ar      10 UNK        -0.0972 
     15 C15        17.5535  -29.0473  -46.5921 C.3       10 UNK         0.0209 
     16 S16        18.0889  -27.3416  -46.9524 S.3       10 UNK        -0.2568 
     17 C17        19.8481  -27.5717  -47.3864 C.3       10 UNK        -0.0983 
     18 CA         20.8300  -26.7664  -46.4958 C.3       3 UNK         0.0876 
     19 N          20.5900  -26.9828  -45.0614 N.am      3 UNK        -0.4424 
     20 C          21.2465  -26.4019  -44.0451 C.2       2 UNK         0.4918 
     21 O          22.1919  -25.6263  -44.1921 O.2       2 UNK        -0.4875 
     22 CA         20.7686  -26.7818  -42.6318 C.3       2 UNK         0.0481 
     23 CB         21.3912  -25.9138  -41.5160 C.3       2 UNK        -0.1831 
     24 N          19.3042  -26.8192  -42.5473 N.am      2 UNK        -0.4498 
     25 C          18.4594  -25.7759  -42.5861 C.2       1 UNK         0.5027 
     26 O          18.8164  -24.5952  -42.6132 O.2       1 UNK        -0.4969 
     27 C          22.2806  -27.0732  -46.9287 C.2       3 UNK         0.5005 
     28 O          22.8071  -26.3988  -47.8149 O.2       3 UNK        -0.5279 
     29 N          22.8932  -28.0752  -46.2846 N.am      4 UNK        -0.4463 
     30 CA         24.2868  -28.4866  -46.4599 C.3       4 UNK         0.0283 
     31 CB         24.3174  -29.9335  -46.9885 C.3       4 UNK        -0.1875 
     32 C          25.0567  -28.3292  -45.1356 C.2       4 UNK         0.4949 
     33 O          25.9422  -29.1350  -44.8460 O.2       4 UNK        -0.5039 
     34 N          24.6875  -27.3048  -44.3498 N.am      5 UNK        -0.4663 
     35 CA         25.1367  -27.0212  -42.9822 C.3       5 UNK         0.0242 
     36 CB         26.6530  -26.7203  -42.9441 C.3       5 UNK        -0.1982 
     37 C          24.6934  -28.1195  -41.9929 C.2       5 UNK         0.5017 
     38 O          23.7098  -28.8178  -42.2544 O.2       5 UNK        -0.5012 
     39 N          25.3915  -28.2157  -40.8523 N.am      6 UNK        -0.4439 
     40 CA         25.2598  -29.1864  -39.7532 C.3       6 UNK         0.0297 
     41 CB         25.5435  -30.6192  -40.2457 C.3       6 UNK        -0.2006 
     42 C          23.9413  -29.1504  -38.9567 C.2       6 UNK         0.4892 
     43 O          23.9764  -29.4128  -37.7539 O.2       6 UNK        -0.5089 
     44 N          22.8121  -28.8766  -39.6248 N.am      7 UNK        -0.4243 
     45 CA         21.4176  -28.9222  -39.1556 C.3       7 UNK         0.0196 
     46 CB         21.1675  -27.9737  -37.9674 C.3       7 UNK        -0.2007 
     47 C          20.9372  -30.3523  -38.8574 C.2       7 UNK         0.5020 
     48 O          19.9221  -30.7770  -39.4051 O.2       7 UNK        -0.5147 
     49 N          21.7092  -31.1013  -38.0649 N.am      8 UNK        -0.4734 
     50 CA         21.5830  -32.5458  -37.8773 C.3       8 UNK         0.0238 
     51 CB         22.0033  -32.8988  -36.4382 C.3       8 UNK        -0.1912 
     52 C          22.4254  -33.2746  -38.9418 C.2       8 UNK         0.5038 
     53 O          23.3490  -34.0147  -38.5986 O.2       8 UNK        -0.5046 
     54 N          22.1195  -33.0129  -40.2195 N.am      9 UNK        -0.4200 
     55 CA         22.8220  -33.5663  -41.3882 C.3       9 UNK         0.0839 
     56 C          22.5285  -35.0658  -41.6921 C.2       9 UNK         0.5513 
     57 N          21.5540  -35.6997  -41.0504 N.am      9 UNK        -0.7519 
     58 O          23.2107  -35.6682  -42.5171 O.2       9 UNK        -0.4960 
     59 C59        22.6522  -32.6656  -42.6416 C.3       10 UNK        -0.0876 
     60 S60        20.9158  -32.4386  -43.1635 S.3       10 UNK        -0.2414 
     61 C61        20.7294  -30.6411  -42.9863 C.3       10 UNK         0.0169 
     62 H62        14.1404  -23.2326  -44.5437 H         1 UNK         0.0903 
     63 H63        14.6428  -22.8778  -42.8899 H         1 UNK         0.0903 
     64 H64        15.5645  -22.2312  -44.2487 H         1 UNK         0.0903 
     65 H65        15.7021  -24.5862  -41.9175 H         1 UNK         0.3096 
     66 H66        16.8284  -26.7723  -43.4701 H         1 UNK         0.1121 
     67 H67        17.3580  -27.5866  -40.9499 H         1 UNK         0.0849 
     68 H68        16.3098  -26.2828  -40.4979 H         1 UNK         0.0849 
     69 H69        16.2488  -29.9641  -40.8546 H         1 UNK         0.0865 
     70 H70        15.1278  -30.3783  -42.1243 H         1 UNK         0.0865 
     71 H71        18.4941  -30.3777  -41.4463 H         1 UNK         0.1346 
     72 H72        19.8832  -29.9488  -45.4736 H         1 UNK         0.1412 
     73 H73        15.7989  -29.0552  -44.5061 H         1 UNK         0.1426 
     74 H74        16.4858  -29.1220  -46.8045 H         1 UNK         0.0716 
     75 H75        18.0397  -29.7510  -47.2692 H         1 UNK         0.0716 
     76 H76        19.9625  -27.2686  -48.4291 H         1 UNK         0.0695 
     77 H77        20.0918  -28.6347  -47.3646 H         1 UNK         0.0695 
     78 H78        20.6614  -25.7034  -46.6811 H         1 UNK         0.0983 
     79 H79        19.7980  -27.5707  -44.8450 H         1 UNK         0.3095 
     80 H80        21.1039  -27.8049  -42.4636 H         1 UNK         0.0454 
     81 H81        21.2446  -24.8487  -41.6962 H         1 UNK         0.0851 
     82 H82        22.4655  -26.0797  -41.4471 H         1 UNK         0.0851 
     83 H83        20.9649  -26.1471  -40.5414 H         1 UNK         0.0851 
     84 H84        18.9007  -27.7471  -42.5277 H         1 UNK         0.2976 
     85 H85        22.3854  -28.5480  -45.5506 H         1 UNK         0.3116 
     86 H86        24.7869  -27.8465  -47.1893 H         1 UNK         0.0646 
     87 H87        23.8885  -30.6340  -46.2708 H         1 UNK         0.0847 
     88 H88        23.7614  -30.0261  -47.9215 H         1 UNK         0.0847 
     89 H89        25.3394  -30.2566  -47.1904 H         1 UNK         0.0847 
     90 H90        23.9245  -26.7178  -44.6692 H         1 UNK         0.3040 
     91 H91        24.6127  -26.1127  -42.6818 H         1 UNK         0.1015 
     92 H92        26.9478  -26.2663  -41.9976 H         1 UNK         0.0786 
     93 H93        26.9337  -26.0173  -43.7286 H         1 UNK         0.0786 
     94 H94        27.2524  -27.6217  -43.0786 H         1 UNK         0.0786 
     95 H95        26.1449  -27.5528  -40.7307 H         1 UNK         0.3172 
     96 H96        26.0476  -28.9263  -39.0443 H         1 UNK         0.0595 
     97 H97        24.8042  -30.9533  -40.9725 H         1 UNK         0.0839 
     98 H98        25.5243  -31.3297  -39.4178 H         1 UNK         0.0839 
     99 H99        26.5263  -30.6915  -40.7115 H         1 UNK         0.0839 
    100 H100       22.9298  -28.7601  -40.6298 H         1 UNK         0.2998 
    101 H101       20.8146  -28.5621  -39.9903 H         1 UNK         0.0822 
    102 H102       20.1049  -27.9307  -37.7253 H         1 UNK         0.0787 
    103 H103       21.4900  -26.9580  -38.1957 H         1 UNK         0.0787 
    104 H104       21.6897  -28.2946  -37.0658 H         1 UNK         0.0787 
    105 H105       22.5554  -30.6638  -37.7069 H         1 UNK         0.3055 
    106 H106       20.5430  -32.8529  -38.0106 H         1 UNK         0.1106 
    107 H107       21.3746  -32.3906  -35.7069 H         1 UNK         0.0828 
    108 H108       21.9103  -33.9702  -36.2551 H         1 UNK         0.0828 
    109 H109       23.0392  -32.6210  -36.2392 H         1 UNK         0.0828 
    110 H110       21.3323  -32.4100  -40.4175 H         1 UNK         0.2931 
    111 H111       23.8861  -33.5383  -41.1447 H         1 UNK         0.0412 
    112 H112       20.9851  -35.2139  -40.3764 H         1 UNK         0.3472 
    113 H113       21.3792  -36.6716  -41.2530 H         1 UNK         0.3472 
    114 H114       23.0995  -31.6893  -42.4497 H         1 UNK         0.0970 
    115 H115       23.2135  -33.0729  -43.4847 H         1 UNK         0.0970 
    116 H116       21.4867  -30.1387  -43.5902 H         1 UNK         0.0612 
    117 H117       20.9210  -30.3555  -41.9520 H         1 UNK         0.0612 
@<TRIPOS>BOND
     1    1    2 1    
     2    1   62 1    
     3    1   63 1    
     4    1   64 1    
     5    2    3 2    
     6    2    4 am   BACKBONE|DICT|INTERRES
     7    4    5 1    
     8    4   65 1    
     9    5    6 1    
    10    5   25 1    
    11    5   66 1    
    12    6    7 1    
    13    6   67 1    
    14    6   68 1    
    15    7    8 1    
    16    8    9 1    
    17    8   69 1    
    18    8   70 1    
    19    9   10 ar   
    20    9   14 ar   
    21   10   11 ar   
    22   10   71 1    
    23   11   12 ar   
    24   11   61 1    
    25   12   13 ar   
    26   12   72 1    
    27   13   14 ar   
    28   13   15 1    
    29   14   73 1    
    30   15   16 1    
    31   15   74 1    
    32   15   75 1    
    33   16   17 1    
    34   17   18 1    
    35   17   76 1    
    36   17   77 1    
    37   18   19 1    
    38   18   27 1    
    39   18   78 1    
    40   19   20 am   BACKBONE|DICT|INTERRES
    41   19   79 1    
    42   20   21 2    
    43   20   22 1    
    44   22   23 1    
    45   22   24 1    
    46   22   80 1    
    47   23   81 1    
    48   23   82 1    
    49   23   83 1    
    50   24   25 am   BACKBONE|DICT|INTERRES
    51   24   84 1    
    52   25   26 2    
    53   27   28 2    
    54   27   29 am   BACKBONE|DICT|INTERRES
    55   29   30 1    
    56   29   85 1    
    57   30   31 1    
    58   30   32 1    
    59   30   86 1    
    60   31   87 1    
    61   31   88 1    
    62   31   89 1    
    63   32   33 2    
    64   32   34 am   BACKBONE|DICT|INTERRES
    65   34   35 1    
    66   34   90 1    
    67   35   36 1    
    68   35   37 1    
    69   35   91 1    
    70   36   92 1    
    71   36   93 1    
    72   36   94 1    
    73   37   38 2    
    74   37   39 am   BACKBONE|DICT|INTERRES
    75   39   40 1    
    76   39   95 1    
    77   40   41 1    
    78   40   42 1    
    79   40   96 1    
    80   41   97 1    
    81   41   98 1    
    82   41   99 1    
    83   42   43 2    
    84   42   44 am   BACKBONE|DICT|INTERRES
    85   44   45 1    
    86   44  100 1    
    87   45   46 1    
    88   45   47 1    
    89   45  101 1    
    90   46  102 1    
    91   46  103 1    
    92   46  104 1    
    93   47   48 2    
    94   47   49 am   BACKBONE|DICT|INTERRES
    95   49   50 1    
    96   49  105 1    
    97   50   51 1    
    98   50   52 1    
    99   50  106 1    
   100   51  107 1    
   101   51  108 1    
   102   51  109 1    
   103   52   53 2    
   104   52   54 am   BACKBONE|DICT|INTERRES
   105   54   55 1    
   106   54  110 1    
   107   55   56 1    
   108   55   59 1    
   109   55  111 1    
   110   56   57 am   BACKBONE|DICT|INTERRES
   111   56   58 2    
   112   57  112 1    
   113   57  113 1    
   114   59   60 1    
   115   59  114 1    
   116   59  115 1    
   117   60   61 1    
   118   61  116 1    
   119   61  117 1    
@<TRIPOS>SUBSTRUCTURE
     1 UNK         1 GROUP             0       ****    0 ROOT    
