@<TRIPOS>MOLECULE
3R8
117   119    1
SMALL
USER_CHARGES


@<TRIPOS>ATOM
      1 CA         13.1175  -24.2101  -43.5914 C.3       0 UNK        -0.2013 
      2 C          14.1694  -25.1938  -43.0999 C.2       0 UNK         0.4866 
      3 O          14.4075  -25.2751  -41.8942 O.2       0 UNK        -0.5176 
      4 N          14.7900  -25.9363  -44.0277 N.am      1 UNK        -0.4884 
      5 CA         15.8542  -26.9272  -43.7980 C.3       1 UNK         0.0853 
      6 C6         15.3858  -28.1450  -42.9443 C.3       10 UNK        -0.0849 
      7 S7         14.1132  -29.1075  -43.8337 S.3       10 UNK        -0.2776 
      8 C8         14.9972  -30.6517  -44.2516 C.3       10 UNK         0.0316 
      9 C9         16.3586  -30.4186  -44.9006 C.ar      10 UNK        -0.0863 
     10 C10        17.5099  -30.9610  -44.3200 C.ar      10 UNK        -0.1009 
     11 C11        18.7631  -30.7545  -44.9028 C.ar      10 UNK        -0.0712 
     12 C12        18.8629  -29.9983  -46.0715 C.ar      10 UNK        -0.0894 
     13 C13        17.7273  -29.4160  -46.6401 C.ar      10 UNK        -0.0745 
     14 C14        16.4740  -29.6555  -46.0676 C.ar      10 UNK        -0.0972 
     15 C15        17.8533  -28.5114  -47.8568 C.3       10 UNK         0.0209 
     16 S16        18.3264  -26.8130  -47.3822 S.3       10 UNK        -0.2568 
     17 C17        20.1487  -26.9350  -47.3057 C.3       10 UNK        -0.0983 
     18 CA         20.7870  -26.3211  -46.0310 C.3       3 UNK         0.0876 
     19 N          20.1403  -26.7546  -44.7866 N.am      3 UNK        -0.4424 
     20 C          20.3140  -26.1626  -43.5940 C.2       2 UNK         0.4918 
     21 O          21.0713  -25.2079  -43.4116 O.2       2 UNK        -0.4875 
     22 CA         19.4783  -26.7189  -42.4215 C.3       2 UNK         0.0481 
     23 CB         19.4623  -25.7881  -41.1905 C.3       2 UNK        -0.1831 
     24 N          18.1154  -27.0914  -42.8251 N.am      2 UNK        -0.4498 
     25 C          17.1715  -26.2719  -43.3180 C.2       1 UNK         0.5027 
     26 O          17.3368  -25.0570  -43.4600 O.2       1 UNK        -0.4969 
     27 C          22.3072  -26.5901  -46.0318 C.2       3 UNK         0.5005 
     28 O          23.0521  -25.8300  -46.6534 O.2       3 UNK        -0.5279 
     29 N          22.7347  -27.6667  -45.3577 N.am      4 UNK        -0.4463 
     30 CA         24.1316  -28.0727  -45.2228 C.3       4 UNK         0.0283 
     31 CB         24.2381  -29.5912  -45.4414 C.3       4 UNK        -0.1875 
     32 C          24.6439  -27.7054  -43.8262 C.2       4 UNK         0.4949 
     33 O          23.8989  -27.8063  -42.8490 O.2       4 UNK        -0.5039 
     34 N          25.9270  -27.3373  -43.7469 N.am      5 UNK        -0.4663 
     35 CA         26.6360  -27.0329  -42.5026 C.3       5 UNK         0.0242 
     36 CB         27.7812  -26.0493  -42.8103 C.3       5 UNK        -0.1982 
     37 C          27.1283  -28.3264  -41.8264 C.2       5 UNK         0.5017 
     38 O          28.3357  -28.5626  -41.7489 O.2       5 UNK        -0.5012 
     39 N          26.1795  -29.1532  -41.3770 N.am      6 UNK        -0.4439 
     40 CA         26.4093  -30.4102  -40.6715 C.3       6 UNK         0.0297 
     41 CB         26.1861  -31.5856  -41.6381 C.3       6 UNK        -0.2006 
     42 C          25.4333  -30.4873  -39.4966 C.2       6 UNK         0.4892 
     43 O          24.2868  -30.0568  -39.6380 O.2       6 UNK        -0.5089 
     44 N          25.8821  -31.0689  -38.3765 N.am      7 UNK        -0.4243 
     45 CA         25.1085  -31.2061  -37.1350 C.3       7 UNK         0.0196 
     46 CB         26.0220  -31.7525  -36.0257 C.3       7 UNK        -0.2007 
     47 C          23.8466  -32.0778  -37.2692 C.2       7 UNK         0.5020 
     48 O          22.8793  -31.8564  -36.5411 O.2       7 UNK        -0.5147 
     49 N          23.8696  -33.0379  -38.2035 N.am      8 UNK        -0.4734 
     50 CA         22.7226  -33.8809  -38.5529 C.3       8 UNK         0.0238 
     51 CB         23.2275  -35.1326  -39.2899 C.3       8 UNK        -0.1912 
     52 C          21.6672  -33.1483  -39.4031 C.2       8 UNK         0.5038 
     53 O          20.5161  -33.5856  -39.4276 O.2       8 UNK        -0.5046 
     54 N          22.0750  -32.0737  -40.0900 N.am      9 UNK        -0.4200 
     55 CA         21.2176  -31.2252  -40.9236 C.3       9 UNK         0.0839 
     56 C          20.7065  -29.9904  -40.1321 C.2       9 UNK         0.5513 
     57 N          21.5646  -29.2943  -39.3973 N.am      9 UNK        -0.7519 
     58 O          19.5194  -29.6777  -40.1656 O.2       9 UNK        -0.4960 
     59 C59        21.9547  -30.8504  -42.2367 C.3       10 UNK        -0.0876 
     60 S60        20.9157  -29.9535  -43.4318 S.3       10 UNK        -0.2414 
     61 C61        20.0189  -31.3036  -44.2483 C.3       10 UNK         0.0169 
     62 H62        12.9968  -24.2468  -44.6740 H         1 UNK         0.0903 
     63 H63        12.1533  -24.4335  -43.1357 H         1 UNK         0.0903 
     64 H64        13.3975  -23.1936  -43.3160 H         1 UNK         0.0903 
     65 H65        14.5533  -25.7916  -44.9993 H         1 UNK         0.3096 
     66 H66        16.1075  -27.2987  -44.7906 H         1 UNK         0.1121 
     67 H67        16.2049  -28.8177  -42.6917 H         1 UNK         0.0849 
     68 H68        14.9760  -27.8198  -41.9875 H         1 UNK         0.0849 
     69 H69        15.1001  -31.2462  -43.3424 H         1 UNK         0.0865 
     70 H70        14.3781  -31.2400  -44.9300 H         1 UNK         0.0865 
     71 H71        17.4341  -31.5391  -43.4089 H         1 UNK         0.1346 
     72 H72        19.8360  -29.8440  -46.5131 H         1 UNK         0.1412 
     73 H73        15.5877  -29.2203  -46.5097 H         1 UNK         0.1426 
     74 H74        16.9015  -28.4691  -48.3885 H         1 UNK         0.0716 
     75 H75        18.5742  -28.9218  -48.5655 H         1 UNK         0.0716 
     76 H76        20.5390  -26.4253  -48.1888 H         1 UNK         0.0695 
     77 H77        20.4508  -27.9747  -47.4230 H         1 UNK         0.0695 
     78 H78        20.6584  -25.2379  -46.0917 H         1 UNK         0.0983 
     79 H79        19.4840  -27.5178  -44.8637 H         1 UNK         0.3095 
     80 H80        19.9669  -27.6393  -42.1076 H         1 UNK         0.0454 
     81 H81        20.4728  -25.6278  -40.8126 H         1 UNK         0.0851 
     82 H82        18.8795  -26.2193  -40.3768 H         1 UNK         0.0851 
     83 H83        19.0444  -24.8085  -41.4234 H         1 UNK         0.0851 
     84 H84        17.9084  -28.0785  -42.7617 H         1 UNK         0.2976 
     85 H85        22.0688  -28.1853  -44.7996 H         1 UNK         0.3116 
     86 H86        24.7473  -27.5727  -45.9736 H         1 UNK         0.0646 
     87 H87        23.6781  -30.1512  -44.6922 H         1 UNK         0.0847 
     88 H88        23.8617  -29.8780  -46.4234 H         1 UNK         0.0847 
     89 H89        25.2758  -29.9223  -45.3829 H         1 UNK         0.0847 
     90 H90        26.4814  -27.3234  -44.5916 H         1 UNK         0.3040 
     91 H91        25.9531  -26.5391  -41.8069 H         1 UNK         0.1015 
     92 H92        27.4015  -25.1207  -43.2369 H         1 UNK         0.0786 
     93 H93        28.3252  -25.7874  -41.9017 H         1 UNK         0.0786 
     94 H94        28.5019  -26.4706  -43.5125 H         1 UNK         0.0786 
     95 H95        25.2073  -28.8706  -41.4625 H         1 UNK         0.3172 
     96 H96        27.4292  -30.4482  -40.2826 H         1 UNK         0.0595 
     97 H97        25.1725  -31.5916  -42.0413 H         1 UNK         0.0839 
     98 H98        26.3468  -32.5420  -41.1390 H         1 UNK         0.0839 
     99 H99        26.8778  -31.5401  -42.4794 H         1 UNK         0.0839 
    100 H100       26.8332  -31.4093  -38.3543 H         1 UNK         0.2998 
    101 H101       24.7774  -30.2069  -36.8434 H         1 UNK         0.0822 
    102 H102       25.4808  -31.8406  -35.0824 H         1 UNK         0.0787 
    103 H103       26.8710  -31.0921  -35.8482 H         1 UNK         0.0787 
    104 H104       26.4098  -32.7418  -36.2721 H         1 UNK         0.0787 
    105 H105       24.7160  -33.1654  -38.7393 H         1 UNK         0.3055 
    106 H106       22.2311  -34.2005  -37.6309 H         1 UNK         0.1106 
    107 H107       23.7325  -34.8779  -40.2226 H         1 UNK         0.0828 
    108 H108       23.9237  -35.7025  -38.6742 H         1 UNK         0.0828 
    109 H109       22.4001  -35.7985  -39.5394 H         1 UNK         0.0828 
    110 H110       23.0126  -31.7274  -39.9349 H         1 UNK         0.2931 
    111 H111       20.3358  -31.8013  -41.2101 H         1 UNK         0.0412 
    112 H112       21.2371  -28.5010  -38.8712 H         1 UNK         0.3472 
    113 H113       22.5541  -29.5301  -39.4006 H         1 UNK         0.3472 
    114 H114       22.8266  -30.2314  -42.0179 H         1 UNK         0.0970 
    115 H115       22.3395  -31.7486  -42.7223 H         1 UNK         0.0970 
    116 H116       19.7634  -32.0765  -43.5223 H         1 UNK         0.0612 
    117 H117       20.6622  -31.7717  -44.9946 H         1 UNK         0.0612 
@<TRIPOS>BOND
     1    1    2 1    
     2    1   62 1    
     3    1   63 1    
     4    1   64 1    
     5    2    3 2    
     6    2    4 am   BACKBONE|DICT|INTERRES
     7    4    5 1    
     8    4   65 1    
     9    5    6 1    
    10    5   25 1    
    11    5   66 1    
    12    6    7 1    
    13    6   67 1    
    14    6   68 1    
    15    7    8 1    
    16    8    9 1    
    17    8   69 1    
    18    8   70 1    
    19    9   10 ar   
    20    9   14 ar   
    21   10   11 ar   
    22   10   71 1    
    23   11   12 ar   
    24   11   61 1    
    25   12   13 ar   
    26   12   72 1    
    27   13   14 ar   
    28   13   15 1    
    29   14   73 1    
    30   15   16 1    
    31   15   74 1    
    32   15   75 1    
    33   16   17 1    
    34   17   18 1    
    35   17   76 1    
    36   17   77 1    
    37   18   19 1    
    38   18   27 1    
    39   18   78 1    
    40   19   20 am   BACKBONE|DICT|INTERRES
    41   19   79 1    
    42   20   21 2    
    43   20   22 1    
    44   22   23 1    
    45   22   24 1    
    46   22   80 1    
    47   23   81 1    
    48   23   82 1    
    49   23   83 1    
    50   24   25 am   BACKBONE|DICT|INTERRES
    51   24   84 1    
    52   25   26 2    
    53   27   28 2    
    54   27   29 am   BACKBONE|DICT|INTERRES
    55   29   30 1    
    56   29   85 1    
    57   30   31 1    
    58   30   32 1    
    59   30   86 1    
    60   31   87 1    
    61   31   88 1    
    62   31   89 1    
    63   32   33 2    
    64   32   34 am   BACKBONE|DICT|INTERRES
    65   34   35 1    
    66   34   90 1    
    67   35   36 1    
    68   35   37 1    
    69   35   91 1    
    70   36   92 1    
    71   36   93 1    
    72   36   94 1    
    73   37   38 2    
    74   37   39 am   BACKBONE|DICT|INTERRES
    75   39   40 1    
    76   39   95 1    
    77   40   41 1    
    78   40   42 1    
    79   40   96 1    
    80   41   97 1    
    81   41   98 1    
    82   41   99 1    
    83   42   43 2    
    84   42   44 am   BACKBONE|DICT|INTERRES
    85   44   45 1    
    86   44  100 1    
    87   45   46 1    
    88   45   47 1    
    89   45  101 1    
    90   46  102 1    
    91   46  103 1    
    92   46  104 1    
    93   47   48 2    
    94   47   49 am   BACKBONE|DICT|INTERRES
    95   49   50 1    
    96   49  105 1    
    97   50   51 1    
    98   50   52 1    
    99   50  106 1    
   100   51  107 1    
   101   51  108 1    
   102   51  109 1    
   103   52   53 2    
   104   52   54 am   BACKBONE|DICT|INTERRES
   105   54   55 1    
   106   54  110 1    
   107   55   56 1    
   108   55   59 1    
   109   55  111 1    
   110   56   57 am   BACKBONE|DICT|INTERRES
   111   56   58 2    
   112   57  112 1    
   113   57  113 1    
   114   59   60 1    
   115   59  114 1    
   116   59  115 1    
   117   60   61 1    
   118   61  116 1    
   119   61  117 1    
@<TRIPOS>SUBSTRUCTURE
     1 UNK         1 GROUP             0       ****    0 ROOT    
