@<TRIPOS>MOLECULE
3R8
117   119    1
SMALL
USER_CHARGES


@<TRIPOS>ATOM
      1 CA         15.3938  -23.9018  -41.8577 C.3       0 UNK        -0.2013 
      2 C          16.4229  -24.8153  -42.5057 C.2       0 UNK         0.4866 
      3 O          17.4949  -25.0253  -41.9376 O.2       0 UNK        -0.5176 
      4 N          16.1132  -25.3414  -43.6994 N.am      1 UNK        -0.4884 
      5 CA         16.8918  -26.2888  -44.5183 C.3       1 UNK         0.0853 
      6 C6         17.1743  -27.6425  -43.8121 C.3       10 UNK        -0.0849 
      7 S7         15.6698  -28.6534  -43.6120 S.3       10 UNK        -0.2776 
      8 C8         15.6094  -29.5642  -45.1949 C.3       10 UNK         0.0316 
      9 C9         16.8613  -30.3970  -45.4398 C.ar      10 UNK        -0.0863 
     10 C10        17.1167  -31.5277  -44.6583 C.ar      10 UNK        -0.1009 
     11 C11        18.2805  -32.2766  -44.8540 C.ar      10 UNK        -0.0712 
     12 C12        19.1863  -31.8931  -45.8474 C.ar      10 UNK        -0.0894 
     13 C13        18.9454  -30.7624  -46.6333 C.ar      10 UNK        -0.0745 
     14 C14        17.7743  -30.0249  -46.4336 C.ar      10 UNK        -0.0972 
     15 C15        19.9673  -30.3283  -47.6775 C.3       10 UNK         0.0209 
     16 S16        20.7700  -28.7407  -47.2676 S.3       10 UNK        -0.2568 
     17 C17        21.3699  -29.0428  -45.5706 C.3       10 UNK        -0.0983 
     18 CA         22.0077  -27.7960  -44.9068 C.3       3 UNK         0.0876 
     19 N          21.1432  -26.6104  -45.0016 N.am      3 UNK        -0.4424 
     20 C          21.3906  -25.3904  -44.5027 C.2       2 UNK         0.4918 
     21 O          22.4318  -25.0929  -43.9178 O.2       2 UNK        -0.4875 
     22 CA         20.2681  -24.3399  -44.6074 C.3       2 UNK         0.0481 
     23 CB         20.3479  -23.5622  -45.9349 C.3       2 UNK        -0.1831 
     24 N          18.9243  -24.8861  -44.3577 N.am      2 UNK        -0.4498 
     25 C          18.2001  -25.7250  -45.1104 C.2       1 UNK         0.5027 
     26 O          18.5563  -26.1129  -46.2226 O.2       1 UNK        -0.4969 
     27 C          22.3702  -28.1354  -43.4471 C.2       3 UNK         0.5005 
     28 O          23.5075  -28.5155  -43.1684 O.2       3 UNK        -0.5279 
     29 N          21.4006  -27.9377  -42.5408 N.am      4 UNK        -0.4463 
     30 CA         21.4735  -28.1419  -41.0908 C.3       4 UNK         0.0283 
     31 CB         20.0954  -27.8133  -40.4919 C.3       4 UNK        -0.1875 
     32 C          22.5765  -27.3471  -40.3620 C.2       4 UNK         0.4949 
     33 O          22.8777  -27.6639  -39.2117 O.2       4 UNK        -0.5039 
     34 N          23.1698  -26.3429  -41.0239 N.am      5 UNK        -0.4663 
     35 CA         24.3544  -25.6284  -40.5438 C.3       5 UNK         0.0242 
     36 CB         24.5311  -24.3408  -41.3643 C.3       5 UNK        -0.1982 
     37 C          25.6395  -26.4791  -40.5964 C.2       5 UNK         0.5017 
     38 O          26.5829  -26.1660  -39.8689 O.2       5 UNK        -0.5012 
     39 N          25.6639  -27.5155  -41.4475 N.am      6 UNK        -0.4439 
     40 CA         26.7959  -28.4270  -41.6309 C.3       6 UNK         0.0297 
     41 CB         27.3796  -28.2335  -43.0404 C.3       6 UNK        -0.2006 
     42 C          26.3956  -29.8939  -41.4108 C.2       6 UNK         0.4892 
     43 O          27.1631  -30.6386  -40.7991 O.2       6 UNK        -0.5089 
     44 N          25.2226  -30.2925  -41.9192 N.am      7 UNK        -0.4243 
     45 CA         24.6734  -31.6426  -41.8036 C.3       7 UNK         0.0196 
     46 CB         23.6248  -31.8410  -42.9138 C.3       7 UNK        -0.2007 
     47 C          24.0402  -31.8899  -40.4256 C.2       7 UNK         0.5020 
     48 O          23.7247  -30.9465  -39.6993 O.2       7 UNK        -0.5147 
     49 N          23.7882  -33.1701  -40.1244 N.am      8 UNK        -0.4734 
     50 CA         23.0830  -33.6333  -38.9203 C.3       8 UNK         0.0238 
     51 CB         23.3684  -35.1333  -38.7291 C.3       8 UNK        -0.1912 
     52 C          21.5620  -33.3621  -38.9336 C.2       8 UNK         0.5038 
     53 O          20.8835  -33.7017  -37.9635 O.2       8 UNK        -0.5046 
     54 N          21.0561  -32.7764  -40.0261 N.am      9 UNK        -0.4200 
     55 CA         19.6511  -32.4170  -40.2712 C.3       9 UNK         0.0839 
     56 C          19.0570  -31.3509  -39.3044 C.2       9 UNK         0.5513 
     57 N          19.8583  -30.6328  -38.5269 N.am      9 UNK        -0.7519 
     58 O          17.8422  -31.1776  -39.2596 O.2       9 UNK        -0.4960 
     59 C59        19.4377  -31.9896  -41.7484 C.3       10 UNK        -0.0876 
     60 S60        20.0297  -33.2471  -42.9352 S.3       10 UNK        -0.2414 
     61 C61        18.5679  -33.4967  -43.9909 C.3       10 UNK         0.0169 
     62 H62        15.8167  -22.9092  -41.7049 H         1 UNK         0.0903 
     63 H63        14.4964  -23.7987  -42.4676 H         1 UNK         0.0903 
     64 H64        15.0997  -24.3001  -40.8870 H         1 UNK         0.0903 
     65 H65        15.2224  -25.0887  -44.1058 H         1 UNK         0.3096 
     66 H66        16.2646  -26.4959  -45.3873 H         1 UNK         0.1121 
     67 H67        17.6080  -27.4829  -42.8243 H         1 UNK         0.0849 
     68 H68        17.9207  -28.2271  -44.3508 H         1 UNK         0.0849 
     69 H69        14.7380  -30.2206  -45.1909 H         1 UNK         0.0865 
     70 H70        15.4500  -28.8566  -46.0098 H         1 UNK         0.0865 
     71 H71        16.4146  -31.8117  -43.8860 H         1 UNK         0.1346 
     72 H72        20.0919  -32.4670  -45.9899 H         1 UNK         0.1412 
     73 H73        17.5939  -29.1429  -47.0336 H         1 UNK         0.1426 
     74 H74        19.4732  -30.2345  -48.6454 H         1 UNK         0.0716 
     75 H75        20.7401  -31.0885  -47.8014 H         1 UNK         0.0716 
     76 H76        22.0853  -29.8672  -45.6023 H         1 UNK         0.0695 
     77 H77        20.5269  -29.3904  -44.9705 H         1 UNK         0.0695 
     78 H78        22.9372  -27.5597  -45.4288 H         1 UNK         0.0983 
     79 H79        20.2847  -26.7289  -45.5313 H         1 UNK         0.3095 
     80 H80        20.4379  -23.6230  -43.8025 H         1 UNK         0.0454 
     81 H81        20.2480  -24.2141  -46.8029 H         1 UNK         0.0851 
     82 H82        21.3085  -23.0538  -46.0261 H         1 UNK         0.0851 
     83 H83        19.5713  -22.8000  -45.9955 H         1 UNK         0.0851 
     84 H84        18.5472  -24.7043  -43.4291 H         1 UNK         0.2976 
     85 H85        20.5190  -27.5917  -42.8884 H         1 UNK         0.3116 
     86 H86        21.6824  -29.2000  -40.9199 H         1 UNK         0.0646 
     87 H87        19.3217  -28.4746  -40.8824 H         1 UNK         0.0847 
     88 H88        19.7973  -26.7849  -40.7018 H         1 UNK         0.0847 
     89 H89        20.0994  -27.9318  -39.4077 H         1 UNK         0.0847 
     90 H90        22.8565  -26.1217  -41.9616 H         1 UNK         0.3040 
     91 H91        24.1887  -25.3505  -39.5004 H         1 UNK         0.1015 
     92 H92        25.3748  -23.7556  -40.9959 H         1 UNK         0.0786 
     93 H93        23.6463  -23.7066  -41.3053 H         1 UNK         0.0786 
     94 H94        24.7189  -24.5565  -42.4170 H         1 UNK         0.0786 
     95 H95        24.8293  -27.7118  -41.9931 H         1 UNK         0.3172 
     96 H96        27.5836  -28.2030  -40.9086 H         1 UNK         0.0595 
     97 H97        26.6379  -28.4298  -43.8160 H         1 UNK         0.0839 
     98 H98        28.2197  -28.9079  -43.2121 H         1 UNK         0.0839 
     99 H99        27.7471  -27.2167  -43.1792 H         1 UNK         0.0839 
    100 H100       24.6300  -29.6158  -42.3968 H         1 UNK         0.2998 
    101 H101       25.4823  -32.3619  -41.9496 H         1 UNK         0.0822 
    102 H102       24.0431  -31.6276  -43.8977 H         1 UNK         0.0787 
    103 H103       23.2603  -32.8687  -42.9377 H         1 UNK         0.0787 
    104 H104       22.7590  -31.1922  -42.7737 H         1 UNK         0.0787 
    105 H105       24.0624  -33.8854  -40.7839 H         1 UNK         0.3055 
    106 H106       23.4886  -33.0960  -38.0599 H         1 UNK         0.1106 
    107 H107       22.9747  -35.7276  -39.5547 H         1 UNK         0.0828 
    108 H108       22.9101  -35.5072  -37.8123 H         1 UNK         0.0828 
    109 H109       24.4383  -35.3284  -38.6531 H         1 UNK         0.0828 
    110 H110       21.6969  -32.5532  -40.7710 H         1 UNK         0.2931 
    111 H111       19.0697  -33.3259  -40.1052 H         1 UNK         0.0412 
    112 H112       19.4572  -29.9577  -37.8959 H         1 UNK         0.3472 
    113 H113       20.8564  -30.7691  -38.5550 H         1 UNK         0.3472 
    114 H114       18.3807  -31.7895  -41.9335 H         1 UNK         0.0970 
    115 H115       19.9601  -31.0540  -41.9575 H         1 UNK         0.0970 
    116 H116       17.7098  -33.7520  -43.3670 H         1 UNK         0.0612 
    117 H117       18.7448  -34.3565  -44.6384 H         1 UNK         0.0612 
@<TRIPOS>BOND
     1    1    2 1    
     2    1   62 1    
     3    1   63 1    
     4    1   64 1    
     5    2    3 2    
     6    2    4 am   BACKBONE|DICT|INTERRES
     7    4    5 1    
     8    4   65 1    
     9    5    6 1    
    10    5   25 1    
    11    5   66 1    
    12    6    7 1    
    13    6   67 1    
    14    6   68 1    
    15    7    8 1    
    16    8    9 1    
    17    8   69 1    
    18    8   70 1    
    19    9   10 ar   
    20    9   14 ar   
    21   10   11 ar   
    22   10   71 1    
    23   11   12 ar   
    24   11   61 1    
    25   12   13 ar   
    26   12   72 1    
    27   13   14 ar   
    28   13   15 1    
    29   14   73 1    
    30   15   16 1    
    31   15   74 1    
    32   15   75 1    
    33   16   17 1    
    34   17   18 1    
    35   17   76 1    
    36   17   77 1    
    37   18   19 1    
    38   18   27 1    
    39   18   78 1    
    40   19   20 am   BACKBONE|DICT|INTERRES
    41   19   79 1    
    42   20   21 2    
    43   20   22 1    
    44   22   23 1    
    45   22   24 1    
    46   22   80 1    
    47   23   81 1    
    48   23   82 1    
    49   23   83 1    
    50   24   25 am   BACKBONE|DICT|INTERRES
    51   24   84 1    
    52   25   26 2    
    53   27   28 2    
    54   27   29 am   BACKBONE|DICT|INTERRES
    55   29   30 1    
    56   29   85 1    
    57   30   31 1    
    58   30   32 1    
    59   30   86 1    
    60   31   87 1    
    61   31   88 1    
    62   31   89 1    
    63   32   33 2    
    64   32   34 am   BACKBONE|DICT|INTERRES
    65   34   35 1    
    66   34   90 1    
    67   35   36 1    
    68   35   37 1    
    69   35   91 1    
    70   36   92 1    
    71   36   93 1    
    72   36   94 1    
    73   37   38 2    
    74   37   39 am   BACKBONE|DICT|INTERRES
    75   39   40 1    
    76   39   95 1    
    77   40   41 1    
    78   40   42 1    
    79   40   96 1    
    80   41   97 1    
    81   41   98 1    
    82   41   99 1    
    83   42   43 2    
    84   42   44 am   BACKBONE|DICT|INTERRES
    85   44   45 1    
    86   44  100 1    
    87   45   46 1    
    88   45   47 1    
    89   45  101 1    
    90   46  102 1    
    91   46  103 1    
    92   46  104 1    
    93   47   48 2    
    94   47   49 am   BACKBONE|DICT|INTERRES
    95   49   50 1    
    96   49  105 1    
    97   50   51 1    
    98   50   52 1    
    99   50  106 1    
   100   51  107 1    
   101   51  108 1    
   102   51  109 1    
   103   52   53 2    
   104   52   54 am   BACKBONE|DICT|INTERRES
   105   54   55 1    
   106   54  110 1    
   107   55   56 1    
   108   55   59 1    
   109   55  111 1    
   110   56   57 am   BACKBONE|DICT|INTERRES
   111   56   58 2    
   112   57  112 1    
   113   57  113 1    
   114   59   60 1    
   115   59  114 1    
   116   59  115 1    
   117   60   61 1    
   118   61  116 1    
   119   61  117 1    
@<TRIPOS>SUBSTRUCTURE
     1 UNK         1 GROUP             0       ****    0 ROOT    
