@<TRIPOS>MOLECULE
3R8
117   119    1
SMALL
USER_CHARGES


@<TRIPOS>ATOM
      1 CA         23.2390  -26.1510  -48.3521 C.3       0 UNK        -0.2013 
      2 C          21.8012  -26.1084  -47.8570 C.2       0 UNK         0.4866 
      3 O          21.0343  -25.2470  -48.2876 O.2       0 UNK        -0.5176 
      4 N          21.4390  -27.0302  -46.9530 N.am      1 UNK        -0.4884 
      5 CA         20.1027  -27.1924  -46.3557 C.3       1 UNK         0.0853 
      6 C6         19.0325  -27.6955  -47.3612 C.3       10 UNK        -0.0849 
      7 S7         19.3755  -29.4243  -47.8300 S.3       10 UNK        -0.2776 
      8 C8         17.9993  -30.3154  -47.0283 C.3       10 UNK         0.0316 
      9 C9         17.9214  -30.1011  -45.5181 C.ar      10 UNK        -0.0863 
     10 C10        18.9468  -30.5530  -44.6801 C.ar      10 UNK        -0.1009 
     11 C11        18.8357  -30.4214  -43.2922 C.ar      10 UNK        -0.0712 
     12 C12        17.6811  -29.8551  -42.7462 C.ar      10 UNK        -0.0894 
     13 C13        16.6592  -29.3655  -43.5676 C.ar      10 UNK        -0.0745 
     14 C14        16.7920  -29.4945  -44.9545 C.ar      10 UNK        -0.0972 
     15 C15        15.3753  -28.7566  -42.9947 C.3       10 UNK         0.0209 
     16 S16        15.5275  -28.0078  -41.3299 S.3       10 UNK        -0.2568 
     17 C17        16.3377  -26.4116  -41.6844 C.3       10 UNK        -0.0983 
     18 CA         17.8740  -26.4811  -41.5220 C.3       3 UNK         0.0876 
     19 N          18.5555  -25.4536  -42.3078 N.am      3 UNK        -0.4424 
     20 C          19.8761  -25.4333  -42.5151 C.2       2 UNK         0.4918 
     21 O          20.6722  -26.1896  -41.9534 O.2       2 UNK        -0.4875 
     22 CA         20.3780  -24.5197  -43.6436 C.3       2 UNK         0.0481 
     23 CB         21.6806  -23.8006  -43.2548 C.3       2 UNK        -0.1831 
     24 N          20.6199  -25.3620  -44.8143 N.am      2 UNK        -0.4498 
     25 C          19.6565  -25.9720  -45.5218 C.2       1 UNK         0.5027 
     26 O          18.4689  -25.6454  -45.4715 O.2       1 UNK        -0.4969 
     27 C          18.3394  -26.4978  -40.0510 C.2       3 UNK         0.5005 
     28 O          18.3450  -25.4513  -39.3997 O.2       3 UNK        -0.5279 
     29 N          18.7651  -27.6863  -39.5958 N.am      4 UNK        -0.4463 
     30 CA         19.3803  -28.0059  -38.3006 C.3       4 UNK         0.0283 
     31 CB         18.4655  -27.6094  -37.1225 C.3       4 UNK        -0.1875 
     32 C          20.8211  -27.4816  -38.1178 C.2       4 UNK         0.4949 
     33 O          21.3956  -27.7103  -37.0525 O.2       4 UNK        -0.5039 
     34 N          21.3963  -26.8256  -39.1356 N.am      5 UNK        -0.4663 
     35 CA         22.7744  -26.3243  -39.1345 C.3       5 UNK         0.0242 
     36 CB         22.7645  -24.8166  -39.4366 C.3       5 UNK        -0.1982 
     37 C          23.6583  -27.0694  -40.1473 C.2       5 UNK         0.5017 
     38 O          24.8416  -27.2701  -39.8705 O.2       5 UNK        -0.5012 
     39 N          23.0858  -27.4497  -41.2990 N.am      6 UNK        -0.4439 
     40 CA         23.7574  -28.1544  -42.3920 C.3       6 UNK         0.0297 
     41 CB         22.7970  -28.2671  -43.5874 C.3       6 UNK        -0.2006 
     42 C          24.2682  -29.5456  -41.9838 C.2       6 UNK         0.4892 
     43 O          23.5345  -30.3091  -41.3520 O.2       6 UNK        -0.5089 
     44 N          25.4971  -29.8617  -42.4162 N.am      7 UNK        -0.4243 
     45 CA         26.2264  -31.1038  -42.1272 C.3       7 UNK         0.0196 
     46 CB         27.6755  -30.9536  -42.6207 C.3       7 UNK        -0.2007 
     47 C          25.5917  -32.3862  -42.6992 C.2       7 UNK         0.5020 
     48 O          26.0028  -33.4811  -42.3145 O.2       7 UNK        -0.5147 
     49 N          24.6007  -32.2423  -43.5903 N.am      8 UNK        -0.4734 
     50 CA         23.7534  -33.3312  -44.0847 C.3       8 UNK         0.0238 
     51 CB         22.8818  -32.8062  -45.2381 C.3       8 UNK        -0.1912 
     52 C          22.8717  -33.9594  -42.9872 C.2       8 UNK         0.5038 
     53 O          22.5071  -35.1292  -43.1123 O.2       8 UNK        -0.5046 
     54 N          22.5561  -33.1821  -41.9437 N.am      9 UNK        -0.4200 
     55 CA         21.8358  -33.6254  -40.7472 C.3       9 UNK         0.0839 
     56 C          22.8414  -33.9946  -39.6278 C.2       9 UNK         0.5513 
     57 N          22.5870  -35.0714  -38.8974 N.am      9 UNK        -0.7519 
     58 O          23.8237  -33.2961  -39.3875 O.2       9 UNK        -0.4960 
     59 C59        20.8439  -32.5392  -40.2642 C.3       10 UNK        -0.0876 
     60 S60        19.4402  -32.3482  -41.4125 S.3       10 UNK        -0.2414 
     61 C61        19.9508  -30.8893  -42.3692 C.3       10 UNK         0.0169 
     62 H62        23.8089  -26.9554  -47.8874 H         1 UNK         0.0903 
     63 H63        23.2589  -26.3020  -49.4311 H         1 UNK         0.0903 
     64 H64        23.7401  -25.2090  -48.1308 H         1 UNK         0.0903 
     65 H65        22.1191  -27.7215  -46.6692 H         1 UNK         0.3096 
     66 H66        20.2144  -27.9740  -45.6017 H         1 UNK         0.1121 
     67 H67        19.0123  -27.0744  -48.2576 H         1 UNK         0.0849 
     68 H68        18.0265  -27.6445  -46.9419 H         1 UNK         0.0849 
     69 H69        17.0655  -30.0205  -47.5098 H         1 UNK         0.0865 
     70 H70        18.1134  -31.3823  -47.2254 H         1 UNK         0.0865 
     71 H71        19.8235  -31.0167  -45.1112 H         1 UNK         0.1346 
     72 H72        17.5833  -29.8061  -41.6718 H         1 UNK         0.1412 
     73 H73        15.9949  -29.1472  -45.5981 H         1 UNK         0.1426 
     74 H74        14.6284  -29.5494  -42.9384 H         1 UNK         0.0716 
     75 H75        14.9734  -28.0097  -43.6812 H         1 UNK         0.0716 
     76 H76        15.9103  -25.6427  -41.0379 H         1 UNK         0.0695 
     77 H77        16.0767  -26.1208  -42.7034 H         1 UNK         0.0695 
     78 H78        18.2060  -27.4115  -41.9799 H         1 UNK         0.0983 
     79 H79        17.9691  -24.8215  -42.8328 H         1 UNK         0.3095 
     80 H80        19.6201  -23.7704  -43.8812 H         1 UNK         0.0454 
     81 H81        22.4814  -24.5018  -43.0153 H         1 UNK         0.0851 
     82 H82        21.5277  -23.1685  -42.3794 H         1 UNK         0.0851 
     83 H83        22.0318  -23.1561  -44.0607 H         1 UNK         0.0851 
     84 H84        21.5681  -25.6800  -44.9466 H         1 UNK         0.2976 
     85 H85        18.7149  -28.4695  -40.2307 H         1 UNK         0.3116 
     86 H86        19.4655  -29.0936  -38.2864 H         1 UNK         0.0646 
     87 H87        18.3985  -26.5278  -37.0039 H         1 UNK         0.0847 
     88 H88        18.8447  -28.0110  -36.1820 H         1 UNK         0.0847 
     89 H89        17.4555  -27.9973  -37.2542 H         1 UNK         0.0847 
     90 H90        20.8609  -26.6682  -39.9817 H         1 UNK         0.3040 
     91 H91        23.2314  -26.4633  -38.1522 H         1 UNK         0.1015 
     92 H92        22.3213  -24.6005  -40.4083 H         1 UNK         0.0786 
     93 H93        23.7774  -24.4117  -39.4414 H         1 UNK         0.0786 
     94 H94        22.1993  -24.2678  -38.6832 H         1 UNK         0.0786 
     95 H95        22.1229  -27.1728  -41.4698 H         1 UNK         0.3172 
     96 H96        24.6100  -27.5432  -42.6955 H         1 UNK         0.0595 
     97 H97        23.2572  -28.8063  -44.4163 H         1 UNK         0.0839 
     98 H98        22.5212  -27.2813  -43.9568 H         1 UNK         0.0839 
     99 H99        21.8799  -28.7933  -43.3210 H         1 UNK         0.0839 
    100 H100       26.0039  -29.1702  -42.9506 H         1 UNK         0.2998 
    101 H101       26.2448  -31.2237  -41.0417 H         1 UNK         0.0822 
    102 H102       28.2640  -31.8419  -42.3861 H         1 UNK         0.0787 
    103 H103       27.7204  -30.8096  -43.7010 H         1 UNK         0.0787 
    104 H104       28.1720  -30.1068  -42.1461 H         1 UNK         0.0787 
    105 H105       24.3462  -31.3047  -43.8625 H         1 UNK         0.3055 
    106 H106       24.4041  -34.1194  -44.4703 H         1 UNK         0.1106 
    107 H107       22.2461  -33.5977  -45.6379 H         1 UNK         0.0828 
    108 H108       22.2275  -31.9958  -44.9155 H         1 UNK         0.0828 
    109 H109       23.4928  -32.4378  -46.0623 H         1 UNK         0.0828 
    110 H110       22.9560  -32.2519  -41.8855 H         1 UNK         0.2931 
    111 H111       21.2567  -34.5203  -40.9860 H         1 UNK         0.0412 
    112 H112       21.7778  -35.6456  -39.0789 H         1 UNK         0.3472 
    113 H113       23.2207  -35.3204  -38.1536 H         1 UNK         0.3472 
    114 H114       21.3492  -31.5825  -40.1164 H         1 UNK         0.0970 
    115 H115       20.4254  -32.8109  -39.2931 H         1 UNK         0.0970 
    116 H116       20.8500  -31.1282  -42.9380 H         1 UNK         0.0612 
    117 H117       20.2190  -30.0794  -41.6891 H         1 UNK         0.0612 
@<TRIPOS>BOND
     1    1    2 1    
     2    1   62 1    
     3    1   63 1    
     4    1   64 1    
     5    2    3 2    
     6    2    4 am   BACKBONE|DICT|INTERRES
     7    4    5 1    
     8    4   65 1    
     9    5    6 1    
    10    5   25 1    
    11    5   66 1    
    12    6    7 1    
    13    6   67 1    
    14    6   68 1    
    15    7    8 1    
    16    8    9 1    
    17    8   69 1    
    18    8   70 1    
    19    9   10 ar   
    20    9   14 ar   
    21   10   11 ar   
    22   10   71 1    
    23   11   12 ar   
    24   11   61 1    
    25   12   13 ar   
    26   12   72 1    
    27   13   14 ar   
    28   13   15 1    
    29   14   73 1    
    30   15   16 1    
    31   15   74 1    
    32   15   75 1    
    33   16   17 1    
    34   17   18 1    
    35   17   76 1    
    36   17   77 1    
    37   18   19 1    
    38   18   27 1    
    39   18   78 1    
    40   19   20 am   BACKBONE|DICT|INTERRES
    41   19   79 1    
    42   20   21 2    
    43   20   22 1    
    44   22   23 1    
    45   22   24 1    
    46   22   80 1    
    47   23   81 1    
    48   23   82 1    
    49   23   83 1    
    50   24   25 am   BACKBONE|DICT|INTERRES
    51   24   84 1    
    52   25   26 2    
    53   27   28 2    
    54   27   29 am   BACKBONE|DICT|INTERRES
    55   29   30 1    
    56   29   85 1    
    57   30   31 1    
    58   30   32 1    
    59   30   86 1    
    60   31   87 1    
    61   31   88 1    
    62   31   89 1    
    63   32   33 2    
    64   32   34 am   BACKBONE|DICT|INTERRES
    65   34   35 1    
    66   34   90 1    
    67   35   36 1    
    68   35   37 1    
    69   35   91 1    
    70   36   92 1    
    71   36   93 1    
    72   36   94 1    
    73   37   38 2    
    74   37   39 am   BACKBONE|DICT|INTERRES
    75   39   40 1    
    76   39   95 1    
    77   40   41 1    
    78   40   42 1    
    79   40   96 1    
    80   41   97 1    
    81   41   98 1    
    82   41   99 1    
    83   42   43 2    
    84   42   44 am   BACKBONE|DICT|INTERRES
    85   44   45 1    
    86   44  100 1    
    87   45   46 1    
    88   45   47 1    
    89   45  101 1    
    90   46  102 1    
    91   46  103 1    
    92   46  104 1    
    93   47   48 2    
    94   47   49 am   BACKBONE|DICT|INTERRES
    95   49   50 1    
    96   49  105 1    
    97   50   51 1    
    98   50   52 1    
    99   50  106 1    
   100   51  107 1    
   101   51  108 1    
   102   51  109 1    
   103   52   53 2    
   104   52   54 am   BACKBONE|DICT|INTERRES
   105   54   55 1    
   106   54  110 1    
   107   55   56 1    
   108   55   59 1    
   109   55  111 1    
   110   56   57 am   BACKBONE|DICT|INTERRES
   111   56   58 2    
   112   57  112 1    
   113   57  113 1    
   114   59   60 1    
   115   59  114 1    
   116   59  115 1    
   117   60   61 1    
   118   61  116 1    
   119   61  117 1    
@<TRIPOS>SUBSTRUCTURE
     1 UNK         1 GROUP             0       ****    0 ROOT    
