@<TRIPOS>MOLECULE
3R8
117   119    1
SMALL
USER_CHARGES


@<TRIPOS>ATOM
      1 CA         15.8627  -23.5187  -48.2803 C.3       0 UNK        -0.2013 
      2 C          16.8113  -24.3624  -47.4435 C.2       0 UNK         0.4866 
      3 O          17.9025  -24.6993  -47.9039 O.2       0 UNK        -0.5176 
      4 N          16.4170  -24.6950  -46.2079 N.am      1 UNK        -0.4884 
      5 CA         17.1621  -25.5321  -45.2563 C.3       1 UNK         0.0853 
      6 C6         16.2151  -26.1831  -44.2148 C.3       10 UNK        -0.0849 
      7 S7         15.1223  -27.4228  -44.9844 S.3       10 UNK        -0.2776 
      8 C8         15.3386  -28.8541  -43.8660 C.3       10 UNK         0.0316 
      9 C9         16.7577  -29.4236  -43.7849 C.ar      10 UNK        -0.0863 
     10 C10        17.1690  -30.0467  -42.6024 C.ar      10 UNK        -0.1009 
     11 C11        18.4320  -30.6385  -42.4948 C.ar      10 UNK        -0.0712 
     12 C12        19.3036  -30.5836  -43.5897 C.ar      10 UNK        -0.0894 
     13 C13        18.9114  -29.9635  -44.7801 C.ar      10 UNK        -0.0745 
     14 C14        17.6361  -29.3962  -44.8740 C.ar      10 UNK        -0.0972 
     15 C15        19.8297  -29.9693  -45.9940 C.3       10 UNK         0.0209 
     16 S16        20.2834  -28.2870  -46.5236 S.3       10 UNK        -0.2568 
     17 C17        21.9684  -28.0681  -45.8416 C.3       10 UNK        -0.0983 
     18 CA         22.0824  -26.9949  -44.7262 C.3       3 UNK         0.0876 
     19 N          21.3227  -25.7932  -45.0612 N.am      3 UNK        -0.4424 
     20 C          21.4890  -24.5653  -44.5568 C.2       2 UNK         0.4918 
     21 O          22.3879  -24.2570  -43.7756 O.2       2 UNK        -0.4875 
     22 CA         20.4483  -23.5122  -44.9883 C.3       2 UNK         0.0481 
     23 CB         20.9983  -22.6472  -46.1326 C.3       2 UNK        -0.1831 
     24 N          19.1757  -24.1156  -45.4058 N.am      2 UNK        -0.4498 
     25 C          18.3404  -24.7794  -44.5947 C.2       1 UNK         0.5027 
     26 O          18.5126  -24.8452  -43.3775 O.2       1 UNK        -0.4969 
     27 C          21.7572  -27.5770  -43.3330 C.2       3 UNK         0.5005 
     28 O          22.5135  -28.4353  -42.8722 O.2       3 UNK        -0.5279 
     29 N          20.6794  -27.1218  -42.6716 N.am      4 UNK        -0.4463 
     30 CA         20.2747  -27.5815  -41.3397 C.3       4 UNK         0.0283 
     31 CB         18.9480  -26.9276  -40.9278 C.3       4 UNK        -0.1875 
     32 C          21.3666  -27.3270  -40.2888 C.2       4 UNK         0.4949 
     33 O          21.7460  -26.1756  -40.0717 O.2       4 UNK        -0.5039 
     34 N          21.8719  -28.4207  -39.7036 N.am      5 UNK        -0.4663 
     35 CA         22.9864  -28.5096  -38.7493 C.3       5 UNK         0.0242 
     36 CB         22.7120  -27.6799  -37.4771 C.3       5 UNK        -0.1982 
     37 C          24.3802  -28.2161  -39.3451 C.2       5 UNK         0.5017 
     38 O          25.3652  -28.3117  -38.6108 O.2       5 UNK        -0.5012 
     39 N          24.4627  -27.9089  -40.6478 N.am      6 UNK        -0.4439 
     40 CA         25.7098  -27.9106  -41.4175 C.3       6 UNK         0.0297 
     41 CB         25.6454  -26.8607  -42.5371 C.3       6 UNK        -0.2006 
     42 C          25.9526  -29.3178  -41.9854 C.2       6 UNK         0.4892 
     43 O          27.0739  -29.8217  -41.9107 O.2       6 UNK        -0.5089 
     44 N          24.8785  -29.9433  -42.4880 N.am      7 UNK        -0.4243 
     45 CA         24.7791  -31.3794  -42.7361 C.3       7 UNK         0.0196 
     46 CB         23.5710  -31.6296  -43.6555 C.3       7 UNK        -0.2007 
     47 C          24.6209  -32.1472  -41.4101 C.2       7 UNK         0.5020 
     48 O          24.3420  -31.5438  -40.3707 O.2       7 UNK        -0.5147 
     49 N          24.7842  -33.4758  -41.4710 N.am      8 UNK        -0.4734 
     50 CA         24.6712  -34.3748  -40.3153 C.3       8 UNK         0.0238 
     51 CB         25.0755  -35.7998  -40.7271 C.3       8 UNK        -0.1912 
     52 C          23.2767  -34.3726  -39.6631 C.2       8 UNK         0.5038 
     53 O          23.1911  -34.4223  -38.4354 O.2       8 UNK        -0.5046 
     54 N          22.2265  -34.2961  -40.4952 N.am      9 UNK        -0.4200 
     55 CA         20.8104  -34.1856  -40.0989 C.3       9 UNK         0.0839 
     56 C          20.2682  -35.3735  -39.2427 C.2       9 UNK         0.5513 
     57 N          20.8598  -36.5596  -39.3215 N.am      9 UNK        -0.7519 
     58 O          19.2801  -35.2366  -38.5259 O.2       9 UNK        -0.4960 
     59 C59        20.4790  -32.7829  -39.5068 C.3       10 UNK        -0.0876 
     60 S60        20.5465  -31.4807  -40.7861 S.3       10 UNK        -0.2414 
     61 C61        18.7733  -31.4027  -41.2157 C.3       10 UNK         0.0169 
     62 H62        15.6059  -24.0448  -49.1992 H         1 UNK         0.0903 
     63 H63        14.9382  -23.2947  -47.7483 H         1 UNK         0.0903 
     64 H64        16.3375  -22.5754  -48.5489 H         1 UNK         0.0903 
     65 H65        15.5165  -24.3746  -45.8804 H         1 UNK         0.3096 
     66 H66        17.6279  -26.3443  -45.8198 H         1 UNK         0.1121 
     67 H67        15.6074  -25.4280  -43.7135 H         1 UNK         0.0849 
     68 H68        16.7836  -26.6798  -43.4286 H         1 UNK         0.0849 
     69 H69        14.9967  -28.5601  -42.8719 H         1 UNK         0.0865 
     70 H70        14.6700  -29.6508  -44.1946 H         1 UNK         0.0865 
     71 H71        16.4851  -30.1019  -41.7660 H         1 UNK         0.1346 
     72 H72        20.2752  -31.0522  -43.5309 H         1 UNK         0.1412 
     73 H73        17.3272  -28.9477  -45.8080 H         1 UNK         0.1426 
     74 H74        19.3073  -30.4576  -46.8177 H         1 UNK         0.0716 
     75 H75        20.7237  -30.5672  -45.8122 H         1 UNK         0.0716 
     76 H76        22.5985  -27.7636  -46.6785 H         1 UNK         0.0695 
     77 H77        22.3802  -29.0256  -45.5179 H         1 UNK         0.0695 
     78 H78        23.1307  -26.6967  -44.6785 H         1 UNK         0.0983 
     79 H79        20.5695  -25.9412  -45.7175 H         1 UNK         0.3095 
     80 H80        20.2539  -22.8657  -44.1302 H         1 UNK         0.0454 
     81 H81        21.1977  -23.2385  -47.0272 H         1 UNK         0.0851 
     82 H82        21.9342  -22.1670  -45.8435 H         1 UNK         0.0851 
     83 H83        20.2996  -21.8553  -46.4025 H         1 UNK         0.0851 
     84 H84        18.9600  -24.1224  -46.3997 H         1 UNK         0.2976 
     85 H85        20.1248  -26.3811  -43.0804 H         1 UNK         0.3116 
     86 H86        20.1022  -28.6545  -41.4128 H         1 UNK         0.0646 
     87 H87        18.1492  -27.1880  -41.6205 H         1 UNK         0.0847 
     88 H88        19.0271  -25.8404  -40.8916 H         1 UNK         0.0847 
     89 H89        18.6379  -27.2657  -39.9384 H         1 UNK         0.0847 
     90 H90        21.5064  -29.3168  -40.0044 H         1 UNK         0.3040 
     91 H91        23.0224  -29.5590  -38.4507 H         1 UNK         0.1015 
     92 H92        22.7433  -26.6081  -37.6739 H         1 UNK         0.0786 
     93 H93        23.4583  -27.8865  -36.7090 H         1 UNK         0.0786 
     94 H94        21.7372  -27.9166  -37.0508 H         1 UNK         0.0786 
     95 H95        23.6013  -27.8859  -41.1819 H         1 UNK         0.3172 
     96 H96        26.5467  -27.6526  -40.7650 H         1 UNK         0.0595 
     97 H97        24.8974  -27.1122  -43.2870 H         1 UNK         0.0839 
     98 H98        26.6050  -26.7866  -43.0512 H         1 UNK         0.0839 
     99 H99        25.4091  -25.8712  -42.1437 H         1 UNK         0.0839 
    100 H100       23.9985  -29.4333  -42.5250 H         1 UNK         0.2998 
    101 H101       25.6902  -31.7184  -43.2335 H         1 UNK         0.0822 
    102 H102       23.6673  -31.0821  -44.5932 H         1 UNK         0.0787 
    103 H103       23.4725  -32.6861  -43.9073 H         1 UNK         0.0787 
    104 H104       22.6395  -31.3168  -43.1821 H         1 UNK         0.0787 
    105 H105       25.0118  -33.9003  -42.3592 H         1 UNK         0.3055 
    106 H106       25.3778  -34.0259  -39.5587 H         1 UNK         0.1106 
    107 H107       24.4298  -36.1952  -41.5120 H         1 UNK         0.0828 
    108 H108       25.0129  -36.4832  -39.8788 H         1 UNK         0.0828 
    109 H109       26.1032  -35.8320  -41.0891 H         1 UNK         0.0828 
    110 H110       22.4081  -34.2616  -41.4868 H         1 UNK         0.2931 
    111 H111       20.2496  -34.2773  -41.0298 H         1 UNK         0.0412 
    112 H112       21.6634  -36.6920  -39.9141 H         1 UNK         0.3472 
    113 H113       20.5011  -37.3279  -38.7761 H         1 UNK         0.3472 
    114 H114       21.1730  -32.5282  -38.7045 H         1 UNK         0.0970 
    115 H115       19.4874  -32.7617  -39.0518 H         1 UNK         0.0970 
    116 H116       18.2430  -30.9636  -40.3686 H         1 UNK         0.0612 
    117 H117       18.3937  -32.4196  -41.3284 H         1 UNK         0.0612 
@<TRIPOS>BOND
     1    1    2 1    
     2    1   62 1    
     3    1   63 1    
     4    1   64 1    
     5    2    3 2    
     6    2    4 am   BACKBONE|DICT|INTERRES
     7    4    5 1    
     8    4   65 1    
     9    5    6 1    
    10    5   25 1    
    11    5   66 1    
    12    6    7 1    
    13    6   67 1    
    14    6   68 1    
    15    7    8 1    
    16    8    9 1    
    17    8   69 1    
    18    8   70 1    
    19    9   10 ar   
    20    9   14 ar   
    21   10   11 ar   
    22   10   71 1    
    23   11   12 ar   
    24   11   61 1    
    25   12   13 ar   
    26   12   72 1    
    27   13   14 ar   
    28   13   15 1    
    29   14   73 1    
    30   15   16 1    
    31   15   74 1    
    32   15   75 1    
    33   16   17 1    
    34   17   18 1    
    35   17   76 1    
    36   17   77 1    
    37   18   19 1    
    38   18   27 1    
    39   18   78 1    
    40   19   20 am   BACKBONE|DICT|INTERRES
    41   19   79 1    
    42   20   21 2    
    43   20   22 1    
    44   22   23 1    
    45   22   24 1    
    46   22   80 1    
    47   23   81 1    
    48   23   82 1    
    49   23   83 1    
    50   24   25 am   BACKBONE|DICT|INTERRES
    51   24   84 1    
    52   25   26 2    
    53   27   28 2    
    54   27   29 am   BACKBONE|DICT|INTERRES
    55   29   30 1    
    56   29   85 1    
    57   30   31 1    
    58   30   32 1    
    59   30   86 1    
    60   31   87 1    
    61   31   88 1    
    62   31   89 1    
    63   32   33 2    
    64   32   34 am   BACKBONE|DICT|INTERRES
    65   34   35 1    
    66   34   90 1    
    67   35   36 1    
    68   35   37 1    
    69   35   91 1    
    70   36   92 1    
    71   36   93 1    
    72   36   94 1    
    73   37   38 2    
    74   37   39 am   BACKBONE|DICT|INTERRES
    75   39   40 1    
    76   39   95 1    
    77   40   41 1    
    78   40   42 1    
    79   40   96 1    
    80   41   97 1    
    81   41   98 1    
    82   41   99 1    
    83   42   43 2    
    84   42   44 am   BACKBONE|DICT|INTERRES
    85   44   45 1    
    86   44  100 1    
    87   45   46 1    
    88   45   47 1    
    89   45  101 1    
    90   46  102 1    
    91   46  103 1    
    92   46  104 1    
    93   47   48 2    
    94   47   49 am   BACKBONE|DICT|INTERRES
    95   49   50 1    
    96   49  105 1    
    97   50   51 1    
    98   50   52 1    
    99   50  106 1    
   100   51  107 1    
   101   51  108 1    
   102   51  109 1    
   103   52   53 2    
   104   52   54 am   BACKBONE|DICT|INTERRES
   105   54   55 1    
   106   54  110 1    
   107   55   56 1    
   108   55   59 1    
   109   55  111 1    
   110   56   57 am   BACKBONE|DICT|INTERRES
   111   56   58 2    
   112   57  112 1    
   113   57  113 1    
   114   59   60 1    
   115   59  114 1    
   116   59  115 1    
   117   60   61 1    
   118   61  116 1    
   119   61  117 1    
@<TRIPOS>SUBSTRUCTURE
     1 UNK         1 GROUP             0       ****    0 ROOT    
