@<TRIPOS>MOLECULE
3R8
117   119    1
SMALL
USER_CHARGES


@<TRIPOS>ATOM
      1 CA         17.5179  -25.7233  -49.6647 C.3       0 UNK        -0.2013 
      2 C          16.6129  -26.7689  -49.0174 C.2       0 UNK         0.4866 
      3 O          15.4035  -26.7369  -49.2372 O.2       0 UNK        -0.5176 
      4 N          17.1361  -27.7220  -48.2326 N.am      1 UNK        -0.4884 
      5 CA         18.5364  -27.8640  -47.8091 C.3       1 UNK         0.0853 
      6 C6         18.8375  -29.3380  -47.3859 C.3       10 UNK        -0.0849 
      7 S7         18.8009  -29.7467  -45.6022 S.3       10 UNK        -0.2776 
      8 C8         17.0163  -29.8193  -45.2730 C.3       10 UNK         0.0316 
      9 C9         16.7610  -29.8941  -43.7770 C.ar      10 UNK        -0.0863 
     10 C10        16.9143  -31.1081  -43.1029 C.ar      10 UNK        -0.1009 
     11 C11        16.7244  -31.1814  -41.7203 C.ar      10 UNK        -0.0712 
     12 C12        16.3489  -30.0326  -41.0171 C.ar      10 UNK        -0.0894 
     13 C13        16.1661  -28.8173  -41.6843 C.ar      10 UNK        -0.0745 
     14 C14        16.3831  -28.7515  -43.0644 C.ar      10 UNK        -0.0972 
     15 C15        15.7009  -27.5902  -40.9130 C.3       10 UNK         0.0209 
     16 S16        17.0845  -26.6931  -40.1419 S.3       10 UNK        -0.2568 
     17 C17        17.7847  -25.7824  -41.5593 C.3       10 UNK        -0.0983 
     18 CA         19.2102  -26.2692  -41.9234 C.3       3 UNK         0.0876 
     19 N          19.5736  -25.8552  -43.2772 N.am      3 UNK        -0.4424 
     20 C          20.4675  -26.4850  -44.0456 C.2       2 UNK         0.4918 
     21 O          21.0352  -27.5282  -43.7216 O.2       2 UNK        -0.4875 
     22 CA         20.7749  -25.8473  -45.4112 C.3       2 UNK         0.0481 
     23 CB         22.2904  -25.6765  -45.6118 C.3       2 UNK        -0.1831 
     24 N          20.2300  -26.6691  -46.4913 N.am      2 UNK        -0.4498 
     25 C          18.9221  -26.8012  -46.7508 C.2       1 UNK         0.5027 
     26 O          18.0461  -26.1424  -46.1824 O.2       1 UNK        -0.4969 
     27 C          20.2917  -25.7553  -40.9501 C.2       3 UNK         0.5005 
     28 O          20.2101  -24.6126  -40.4923 O.2       3 UNK        -0.5279 
     29 N          21.3143  -26.5787  -40.6952 N.am      4 UNK        -0.4463 
     30 CA         22.4451  -26.2677  -39.8262 C.3       4 UNK         0.0283 
     31 CB         23.4870  -25.4358  -40.5978 C.3       4 UNK        -0.1875 
     32 C          23.0647  -27.5746  -39.3289 C.2       4 UNK         0.4949 
     33 O          23.0178  -28.5807  -40.0403 O.2       4 UNK        -0.5039 
     34 N          23.6863  -27.5276  -38.1440 N.am      5 UNK        -0.4663 
     35 CA         24.3825  -28.6636  -37.5266 C.3       5 UNK         0.0242 
     36 CB         24.7457  -28.3118  -36.0750 C.3       5 UNK        -0.1982 
     37 C          25.6341  -29.1114  -38.3026 C.2       5 UNK         0.5017 
     38 O          25.9708  -30.2943  -38.2700 O.2       5 UNK        -0.5012 
     39 N          26.2809  -28.1666  -39.0011 N.am      6 UNK        -0.4439 
     40 CA         27.4110  -28.4199  -39.8987 C.3       6 UNK         0.0297 
     41 CB         28.1131  -27.0913  -40.2228 C.3       6 UNK        -0.2006 
     42 C          26.9938  -29.1386  -41.1948 C.2       6 UNK         0.4892 
     43 O          27.7801  -29.9226  -41.7269 O.2       6 UNK        -0.5089 
     44 N          25.7727  -28.8612  -41.6744 N.am      7 UNK        -0.4243 
     45 CA         25.1656  -29.5243  -42.8300 C.3       7 UNK         0.0196 
     46 CB         24.0926  -28.6090  -43.4367 C.3       7 UNK        -0.2007 
     47 C          24.5693  -30.8902  -42.4546 C.2       7 UNK         0.5020 
     48 O          24.6069  -31.8076  -43.2746 O.2       7 UNK        -0.5147 
     49 N          24.0392  -30.9981  -41.2257 N.am      8 UNK        -0.4734 
     50 CA         23.5167  -32.2085  -40.5780 C.3       8 UNK         0.0238 
     51 CB         24.6728  -33.1756  -40.2453 C.3       8 UNK        -0.1912 
     52 C          22.3839  -32.8824  -41.3756 C.2       8 UNK         0.5038 
     53 O          22.3701  -34.1077  -41.5098 O.2       8 UNK        -0.5046 
     54 N          21.4726  -32.0555  -41.9063 N.am      9 UNK        -0.4200 
     55 CA         20.3487  -32.4384  -42.7797 C.3       9 UNK         0.0839 
     56 C          20.7707  -32.9151  -44.2045 C.2       9 UNK         0.5513 
     57 N          22.0243  -32.7718  -44.6209 N.am      9 UNK        -0.7519 
     58 O          19.9384  -33.4067  -44.9624 O.2       9 UNK        -0.4960 
     59 C59        19.3472  -33.4234  -42.1035 C.3       10 UNK        -0.0876 
     60 S60        18.6501  -32.7904  -40.5369 S.3       10 UNK        -0.2414 
     61 C61        16.9088  -32.5007  -40.9854 C.3       10 UNK         0.0169 
     62 H62        17.9818  -25.0864  -48.9126 H         1 UNK         0.0903 
     63 H63        18.2971  -26.1923  -50.2644 H         1 UNK         0.0903 
     64 H64        16.9398  -25.0795  -50.3275 H         1 UNK         0.0903 
     65 H65        16.4978  -28.3823  -47.8149 H         1 UNK         0.3096 
     66 H66        19.1551  -27.6616  -48.6855 H         1 UNK         0.1121 
     67 H67        19.8462  -29.5882  -47.7191 H         1 UNK         0.0849 
     68 H68        18.1949  -30.0389  -47.9220 H         1 UNK         0.0849 
     69 H69        16.5286  -28.9381  -45.6911 H         1 UNK         0.0865 
     70 H70        16.5839  -30.6868  -45.7742 H         1 UNK         0.0865 
     71 H71        17.2018  -31.9900  -43.6579 H         1 UNK         0.1346 
     72 H72        16.1909  -30.0850  -39.9484 H         1 UNK         0.1412 
     73 H73        16.2549  -27.8128  -43.5860 H         1 UNK         0.1426 
     74 H74        15.1354  -26.9178  -41.5601 H         1 UNK         0.0716 
     75 H75        15.0088  -27.8980  -40.1277 H         1 UNK         0.0716 
     76 H76        17.7639  -24.7132  -41.3403 H         1 UNK         0.0695 
     77 H77        17.1223  -25.9106  -42.4159 H         1 UNK         0.0695 
     78 H78        19.2033  -27.3621  -41.8920 H         1 UNK         0.0983 
     79 H79        19.1508  -25.0028  -43.6148 H         1 UNK         0.3095 
     80 H80        20.3162  -24.8571  -45.4578 H         1 UNK         0.0454 
     81 H81        22.5124  -25.1711  -46.5516 H         1 UNK         0.0851 
     82 H82        22.8106  -26.6353  -45.6153 H         1 UNK         0.0851 
     83 H83        22.7236  -25.0760  -44.8108 H         1 UNK         0.0851 
     84 H84        20.8847  -27.2773  -46.9616 H         1 UNK         0.2976 
     85 H85        21.3418  -27.5018  -41.1131 H         1 UNK         0.3116 
     86 H86        22.0903  -25.7025  -38.9615 H         1 UNK         0.0646 
     87 H87        23.0705  -24.4830  -40.9248 H         1 UNK         0.0847 
     88 H88        24.3529  -25.2085  -39.9749 H         1 UNK         0.0847 
     89 H89        23.8467  -25.9612  -41.4835 H         1 UNK         0.0847 
     90 H90        23.6806  -26.6614  -37.6231 H         1 UNK         0.3040 
     91 H91        23.6931  -29.5111  -37.5115 H         1 UNK         0.1015 
     92 H92        25.4191  -27.4554  -36.0215 H         1 UNK         0.0786 
     93 H93        25.2439  -29.1491  -35.5839 H         1 UNK         0.0786 
     94 H94        23.8567  -28.0784  -35.4886 H         1 UNK         0.0786 
     95 H95        25.9454  -27.2168  -38.9372 H         1 UNK         0.3172 
     96 H96        28.1235  -29.0628  -39.3770 H         1 UNK         0.0595 
     97 H97        27.4489  -26.3944  -40.7356 H         1 UNK         0.0839 
     98 H98        28.9751  -27.2552  -40.8713 H         1 UNK         0.0839 
     99 H99        28.4795  -26.6043  -39.3188 H         1 UNK         0.0839 
    100 H100       25.1824  -28.2303  -41.1534 H         1 UNK         0.2998 
    101 H101       25.9347  -29.6935  -43.5871 H         1 UNK         0.0822 
    102 H102       23.6145  -29.0795  -44.2972 H         1 UNK         0.0787 
    103 H103       23.3079  -28.3790  -42.7165 H         1 UNK         0.0787 
    104 H104       24.5197  -27.6661  -43.7779 H         1 UNK         0.0787 
    105 H105       23.9497  -30.1447  -40.6809 H         1 UNK         0.3055 
    106 H106       23.0729  -31.8870  -39.6342 H         1 UNK         0.1106 
    107 H107       25.4466  -32.6803  -39.6587 H         1 UNK         0.0828 
    108 H108       24.3182  -34.0248  -39.6600 H         1 UNK         0.0828 
    109 H109       25.1393  -33.5729  -41.1474 H         1 UNK         0.0828 
    110 H110       21.5891  -31.0639  -41.7570 H         1 UNK         0.2931 
    111 H111       19.8096  -31.5075  -42.9579 H         1 UNK         0.0412 
    112 H112       22.7436  -32.3986  -44.0130 H         1 UNK         0.3472 
    113 H113       22.2674  -33.0789  -45.5491 H         1 UNK         0.3472 
    114 H114       19.8299  -34.3794  -41.8977 H         1 UNK         0.0970 
    115 H115       18.5288  -33.6645  -42.7821 H         1 UNK         0.0970 
    116 H116       16.3140  -32.5002  -40.0707 H         1 UNK         0.0612 
    117 H117       16.5310  -33.3291  -41.5865 H         1 UNK         0.0612 
@<TRIPOS>BOND
     1    1    2 1    
     2    1   62 1    
     3    1   63 1    
     4    1   64 1    
     5    2    3 2    
     6    2    4 am   BACKBONE|DICT|INTERRES
     7    4    5 1    
     8    4   65 1    
     9    5    6 1    
    10    5   25 1    
    11    5   66 1    
    12    6    7 1    
    13    6   67 1    
    14    6   68 1    
    15    7    8 1    
    16    8    9 1    
    17    8   69 1    
    18    8   70 1    
    19    9   10 ar   
    20    9   14 ar   
    21   10   11 ar   
    22   10   71 1    
    23   11   12 ar   
    24   11   61 1    
    25   12   13 ar   
    26   12   72 1    
    27   13   14 ar   
    28   13   15 1    
    29   14   73 1    
    30   15   16 1    
    31   15   74 1    
    32   15   75 1    
    33   16   17 1    
    34   17   18 1    
    35   17   76 1    
    36   17   77 1    
    37   18   19 1    
    38   18   27 1    
    39   18   78 1    
    40   19   20 am   BACKBONE|DICT|INTERRES
    41   19   79 1    
    42   20   21 2    
    43   20   22 1    
    44   22   23 1    
    45   22   24 1    
    46   22   80 1    
    47   23   81 1    
    48   23   82 1    
    49   23   83 1    
    50   24   25 am   BACKBONE|DICT|INTERRES
    51   24   84 1    
    52   25   26 2    
    53   27   28 2    
    54   27   29 am   BACKBONE|DICT|INTERRES
    55   29   30 1    
    56   29   85 1    
    57   30   31 1    
    58   30   32 1    
    59   30   86 1    
    60   31   87 1    
    61   31   88 1    
    62   31   89 1    
    63   32   33 2    
    64   32   34 am   BACKBONE|DICT|INTERRES
    65   34   35 1    
    66   34   90 1    
    67   35   36 1    
    68   35   37 1    
    69   35   91 1    
    70   36   92 1    
    71   36   93 1    
    72   36   94 1    
    73   37   38 2    
    74   37   39 am   BACKBONE|DICT|INTERRES
    75   39   40 1    
    76   39   95 1    
    77   40   41 1    
    78   40   42 1    
    79   40   96 1    
    80   41   97 1    
    81   41   98 1    
    82   41   99 1    
    83   42   43 2    
    84   42   44 am   BACKBONE|DICT|INTERRES
    85   44   45 1    
    86   44  100 1    
    87   45   46 1    
    88   45   47 1    
    89   45  101 1    
    90   46  102 1    
    91   46  103 1    
    92   46  104 1    
    93   47   48 2    
    94   47   49 am   BACKBONE|DICT|INTERRES
    95   49   50 1    
    96   49  105 1    
    97   50   51 1    
    98   50   52 1    
    99   50  106 1    
   100   51  107 1    
   101   51  108 1    
   102   51  109 1    
   103   52   53 2    
   104   52   54 am   BACKBONE|DICT|INTERRES
   105   54   55 1    
   106   54  110 1    
   107   55   56 1    
   108   55   59 1    
   109   55  111 1    
   110   56   57 am   BACKBONE|DICT|INTERRES
   111   56   58 2    
   112   57  112 1    
   113   57  113 1    
   114   59   60 1    
   115   59  114 1    
   116   59  115 1    
   117   60   61 1    
   118   61  116 1    
   119   61  117 1    
@<TRIPOS>SUBSTRUCTURE
     1 UNK         1 GROUP             0       ****    0 ROOT    
