@<TRIPOS>MOLECULE
3R8
117   119    1
SMALL
USER_CHARGES


@<TRIPOS>ATOM
      1 CA         18.3866  -23.8560  -39.4464 C.3       0 UNK        -0.2013 
      2 C          18.2828  -23.9227  -40.9628 C.2       0 UNK         0.4866 
      3 O          18.4819  -22.9112  -41.6363 O.2       0 UNK        -0.5176 
      4 N          17.9620  -25.1035  -41.5042 N.am      1 UNK        -0.4884 
      5 CA         17.8916  -25.3875  -42.9401 C.3       1 UNK         0.0853 
      6 C6         17.0876  -26.6809  -43.2501 C.3       10 UNK        -0.0849 
      7 S7         17.3521  -28.0681  -42.0827 S.3       10 UNK        -0.2776 
      8 C8         16.2587  -29.3527  -42.7764 C.3       10 UNK         0.0316 
      9 C9         17.0285  -30.2798  -43.7042 C.ar      10 UNK        -0.0863 
     10 C10        17.4483  -31.5371  -43.2619 C.ar      10 UNK        -0.1009 
     11 C11        18.2126  -32.3648  -44.0914 C.ar      10 UNK        -0.0712 
     12 C12        18.5611  -31.9164  -45.3713 C.ar      10 UNK        -0.0894 
     13 C13        18.1342  -30.6663  -45.8369 C.ar      10 UNK        -0.0745 
     14 C14        17.3441  -29.8693  -45.0000 C.ar      10 UNK        -0.0972 
     15 C15        18.5215  -30.2219  -47.2502 C.3       10 UNK         0.0209 
     16 S16        18.4629  -28.4107  -47.5258 S.3       10 UNK        -0.2568 
     17 C17        20.1043  -28.0598  -48.2446 C.3       10 UNK        -0.0983 
     18 CA         21.1507  -27.5396  -47.2250 C.3       3 UNK         0.0876 
     19 N          20.6751  -26.3582  -46.4950 N.am      3 UNK        -0.4424 
     20 C          21.4781  -25.4436  -45.9364 C.2       2 UNK         0.4918 
     21 O          22.7070  -25.4879  -45.9951 O.2       2 UNK        -0.4875 
     22 CA         20.8087  -24.2692  -45.2016 C.3       2 UNK         0.0481 
     23 CB         20.6707  -23.0634  -46.1449 C.3       2 UNK        -0.1831 
     24 N          19.4997  -24.5711  -44.6103 N.am      2 UNK        -0.4498 
     25 C          19.3042  -25.3881  -43.5646 C.2       1 UNK         0.5027 
     26 O          20.1866  -26.0998  -43.0841 O.2       1 UNK        -0.4969 
     27 C          21.6532  -28.6656  -46.2959 C.2       3 UNK         0.5005 
     28 O          22.3661  -29.5540  -46.7674 O.2       3 UNK        -0.5279 
     29 N          21.2733  -28.6299  -45.0117 N.am      4 UNK        -0.4463 
     30 CA         21.6727  -29.6121  -44.0103 C.3       4 UNK         0.0283 
     31 CB         20.6778  -29.5662  -42.8431 C.3       4 UNK        -0.1875 
     32 C          23.0984  -29.3438  -43.5145 C.2       4 UNK         0.4949 
     33 O          23.4351  -28.1949  -43.2180 O.2       4 UNK        -0.5039 
     34 N          23.8973  -30.4123  -43.3834 N.am      5 UNK        -0.4663 
     35 CA         25.2453  -30.3740  -42.8079 C.3       5 UNK         0.0242 
     36 CB         25.8967  -31.7619  -42.9166 C.3       5 UNK        -0.1982 
     37 C          25.1904  -29.9073  -41.3457 C.2       5 UNK         0.5017 
     38 O          24.4418  -30.4938  -40.5593 O.2       5 UNK        -0.5012 
     39 N          25.9075  -28.8167  -41.0379 N.am      6 UNK        -0.4439 
     40 CA         25.9039  -28.0918  -39.7569 C.3       6 UNK         0.0297 
     41 CB         26.5777  -28.9429  -38.6592 C.3       6 UNK        -0.2006 
     42 C          24.5081  -27.5840  -39.3244 C.2       6 UNK         0.4892 
     43 O          24.2863  -27.3731  -38.1313 O.2       6 UNK        -0.5089 
     44 N          23.5889  -27.4316  -40.2935 N.am      7 UNK        -0.4243 
     45 CA         22.1547  -27.1619  -40.1334 C.3       7 UNK         0.0196 
     46 CB         21.9144  -25.7615  -39.5316 C.3       7 UNK        -0.2007 
     47 C          21.3909  -28.2758  -39.3800 C.2       7 UNK         0.5020 
     48 O          20.3113  -28.0089  -38.8503 O.2       7 UNK        -0.5147 
     49 N          21.9538  -29.4935  -39.3319 N.am      8 UNK        -0.4734 
     50 CA         21.4314  -30.6274  -38.5629 C.3       8 UNK         0.0238 
     51 CB         22.3808  -30.9029  -37.3844 C.3       8 UNK        -0.1912 
     52 C          21.2470  -31.9008  -39.4036 C.2       8 UNK         0.5038 
     53 O          20.3436  -32.6756  -39.0899 O.2       8 UNK        -0.5046 
     54 N          22.0986  -32.0969  -40.4225 N.am      9 UNK        -0.4200 
     55 CA         22.1950  -33.2800  -41.2969 C.3       9 UNK         0.0839 
     56 C          22.4287  -34.6260  -40.5416 C.2       9 UNK         0.5513 
     57 N          22.1134  -35.7664  -41.1419 N.am      9 UNK        -0.7519 
     58 O          22.9663  -34.6527  -39.4361 O.2       9 UNK        -0.4960 
     59 C59        21.1481  -33.3062  -42.4573 C.3       10 UNK        -0.0876 
     60 S60        19.4460  -33.7795  -42.0045 S.3       10 UNK        -0.2414 
     61 C61        18.6137  -33.7620  -43.6271 C.3       10 UNK         0.0169 
     62 H62        19.3513  -23.4423  -39.1536 H         1 UNK         0.0903 
     63 H63        17.6042  -23.2128  -39.0447 H         1 UNK         0.0903 
     64 H64        18.2879  -24.8402  -38.9880 H         1 UNK         0.0903 
     65 H65        17.8405  -25.9150  -40.9131 H         1 UNK         0.3096 
     66 H66        17.3403  -24.5612  -43.3955 H         1 UNK         0.1121 
     67 H67        16.0232  -26.4426  -43.2212 H         1 UNK         0.0849 
     68 H68        17.2814  -27.0144  -44.2694 H         1 UNK         0.0849 
     69 H69        15.8235  -29.9214  -41.9532 H         1 UNK         0.0865 
     70 H70        15.4202  -28.8971  -43.3053 H         1 UNK         0.0865 
     71 H71        17.1900  -31.8708  -42.2661 H         1 UNK         0.1346 
     72 H72        19.1521  -32.5514  -46.0172 H         1 UNK         0.1412 
     73 H73        16.9807  -28.9141  -45.3444 H         1 UNK         0.1426 
     74 H74        17.8497  -30.7015  -47.9629 H         1 UNK         0.0716 
     75 H75        19.5225  -30.5926  -47.4747 H         1 UNK         0.0716 
     76 H76        19.9582  -27.3015  -49.0152 H         1 UNK         0.0695 
     77 H77        20.4762  -28.9364  -48.7785 H         1 UNK         0.0695 
     78 H78        22.0236  -27.2336  -47.8065 H         1 UNK         0.0983 
     79 H79        19.6740  -26.2523  -46.4172 H         1 UNK         0.3095 
     80 H80        21.4755  -23.9802  -44.3862 H         1 UNK         0.0454 
     81 H81        21.6349  -22.7939  -46.5785 H         1 UNK         0.0851 
     82 H82        20.3011  -22.1846  -45.6161 H         1 UNK         0.0851 
     83 H83        19.9897  -23.2712  -46.9712 H         1 UNK         0.0851 
     84 H84        18.7225  -24.0212  -44.9483 H         1 UNK         0.2976 
     85 H85        20.7534  -27.8302  -44.6764 H         1 UNK         0.3116 
     86 H86        21.6300  -30.6060  -44.4604 H         1 UNK         0.0646 
     87 H87        20.5533  -28.5606  -42.4487 H         1 UNK         0.0847 
     88 H88        19.6975  -29.9136  -43.1571 H         1 UNK         0.0847 
     89 H89        20.9933  -30.1978  -42.0158 H         1 UNK         0.0847 
     90 H90        23.5491  -31.3197  -43.6543 H         1 UNK         0.3040 
     91 H91        25.8382  -29.6675  -43.3932 H         1 UNK         0.1015 
     92 H92        26.9214  -31.7383  -42.5432 H         1 UNK         0.0786 
     93 H93        25.9391  -32.1026  -43.9514 H         1 UNK         0.0786 
     94 H94        25.3604  -32.5127  -42.3362 H         1 UNK         0.0786 
     95 H95        26.4623  -28.3923  -41.7693 H         1 UNK         0.3172 
     96 H96        26.5148  -27.2007  -39.9082 H         1 UNK         0.0595 
     97 H97        25.9803  -29.8188  -38.4031 H         1 UNK         0.0839 
     98 H98        26.7158  -28.3664  -37.7437 H         1 UNK         0.0839 
     99 H99        27.5629  -29.2886  -38.9721 H         1 UNK         0.0839 
    100 H100       23.8691  -27.6316  -41.2488 H         1 UNK         0.2998 
    101 H101       21.7470  -27.1461  -41.1433 H         1 UNK         0.0822 
    102 H102       20.8570  -25.5007  -39.5725 H         1 UNK         0.0787 
    103 H103       22.4556  -24.9938  -40.0846 H         1 UNK         0.0787 
    104 H104       22.2226  -25.7083  -38.4873 H         1 UNK         0.0787 
    105 H105       22.8530  -29.6314  -39.7826 H         1 UNK         0.3055 
    106 H106       20.4480  -30.3838  -38.1542 H         1 UNK         0.1106 
    107 H107       22.4561  -30.0366  -36.7269 H         1 UNK         0.0828 
    108 H108       22.0251  -31.7394  -36.7811 H         1 UNK         0.0828 
    109 H109       23.3865  -31.1503  -37.7274 H         1 UNK         0.0828 
    110 H110       22.8753  -31.4484  -40.5133 H         1 UNK         0.2931 
    111 H111       23.1524  -33.1219  -41.7921 H         1 UNK         0.0412 
    112 H112       22.2899  -36.6364  -40.6642 H         1 UNK         0.3472 
    113 H113       21.6580  -35.7706  -42.0406 H         1 UNK         0.3472 
    114 H114       21.1041  -32.3320  -42.9374 H         1 UNK         0.0970 
    115 H115       21.4892  -33.9870  -43.2386 H         1 UNK         0.0970 
    116 H116       19.2509  -34.2541  -44.3634 H         1 UNK         0.0612 
    117 H117       17.7097  -34.3677  -43.5536 H         1 UNK         0.0612 
@<TRIPOS>BOND
     1    1    2 1    
     2    1   62 1    
     3    1   63 1    
     4    1   64 1    
     5    2    3 2    
     6    2    4 am   BACKBONE|DICT|INTERRES
     7    4    5 1    
     8    4   65 1    
     9    5    6 1    
    10    5   25 1    
    11    5   66 1    
    12    6    7 1    
    13    6   67 1    
    14    6   68 1    
    15    7    8 1    
    16    8    9 1    
    17    8   69 1    
    18    8   70 1    
    19    9   10 ar   
    20    9   14 ar   
    21   10   11 ar   
    22   10   71 1    
    23   11   12 ar   
    24   11   61 1    
    25   12   13 ar   
    26   12   72 1    
    27   13   14 ar   
    28   13   15 1    
    29   14   73 1    
    30   15   16 1    
    31   15   74 1    
    32   15   75 1    
    33   16   17 1    
    34   17   18 1    
    35   17   76 1    
    36   17   77 1    
    37   18   19 1    
    38   18   27 1    
    39   18   78 1    
    40   19   20 am   BACKBONE|DICT|INTERRES
    41   19   79 1    
    42   20   21 2    
    43   20   22 1    
    44   22   23 1    
    45   22   24 1    
    46   22   80 1    
    47   23   81 1    
    48   23   82 1    
    49   23   83 1    
    50   24   25 am   BACKBONE|DICT|INTERRES
    51   24   84 1    
    52   25   26 2    
    53   27   28 2    
    54   27   29 am   BACKBONE|DICT|INTERRES
    55   29   30 1    
    56   29   85 1    
    57   30   31 1    
    58   30   32 1    
    59   30   86 1    
    60   31   87 1    
    61   31   88 1    
    62   31   89 1    
    63   32   33 2    
    64   32   34 am   BACKBONE|DICT|INTERRES
    65   34   35 1    
    66   34   90 1    
    67   35   36 1    
    68   35   37 1    
    69   35   91 1    
    70   36   92 1    
    71   36   93 1    
    72   36   94 1    
    73   37   38 2    
    74   37   39 am   BACKBONE|DICT|INTERRES
    75   39   40 1    
    76   39   95 1    
    77   40   41 1    
    78   40   42 1    
    79   40   96 1    
    80   41   97 1    
    81   41   98 1    
    82   41   99 1    
    83   42   43 2    
    84   42   44 am   BACKBONE|DICT|INTERRES
    85   44   45 1    
    86   44  100 1    
    87   45   46 1    
    88   45   47 1    
    89   45  101 1    
    90   46  102 1    
    91   46  103 1    
    92   46  104 1    
    93   47   48 2    
    94   47   49 am   BACKBONE|DICT|INTERRES
    95   49   50 1    
    96   49  105 1    
    97   50   51 1    
    98   50   52 1    
    99   50  106 1    
   100   51  107 1    
   101   51  108 1    
   102   51  109 1    
   103   52   53 2    
   104   52   54 am   BACKBONE|DICT|INTERRES
   105   54   55 1    
   106   54  110 1    
   107   55   56 1    
   108   55   59 1    
   109   55  111 1    
   110   56   57 am   BACKBONE|DICT|INTERRES
   111   56   58 2    
   112   57  112 1    
   113   57  113 1    
   114   59   60 1    
   115   59  114 1    
   116   59  115 1    
   117   60   61 1    
   118   61  116 1    
   119   61  117 1    
@<TRIPOS>SUBSTRUCTURE
     1 UNK         1 GROUP             0       ****    0 ROOT    
