@<TRIPOS>MOLECULE
3R8
117   119    1
SMALL
USER_CHARGES


@<TRIPOS>ATOM
      1 CA         20.7336  -31.6007  -49.0530 C.3       0 UNK        -0.2013 
      2 C          19.8465  -30.7608  -48.1464 C.2       0 UNK         0.4866 
      3 O          18.7393  -31.1813  -47.8101 O.2       0 UNK        -0.5176 
      4 N          20.3227  -29.5780  -47.7461 N.am      1 UNK        -0.4884 
      5 CA         19.6398  -28.6643  -46.8353 C.3       1 UNK         0.0853 
      6 C6         18.6473  -27.7428  -47.5858 C.3       10 UNK        -0.0849 
      7 S7         17.4571  -26.9116  -46.4839 S.3       10 UNK        -0.2776 
      8 C8         16.2764  -28.2525  -46.1216 C.3       10 UNK         0.0316 
      9 C9         16.3310  -28.6283  -44.6490 C.ar      10 UNK        -0.0863 
     10 C10        17.0243  -29.7652  -44.2225 C.ar      10 UNK        -0.1009 
     11 C11        17.1007  -30.0765  -42.8619 C.ar      10 UNK        -0.0712 
     12 C12        16.4379  -29.2716  -41.9303 C.ar      10 UNK        -0.0894 
     13 C13        15.7595  -28.1210  -42.3428 C.ar      10 UNK        -0.0745 
     14 C14        15.7014  -27.8126  -43.7048 C.ar      10 UNK        -0.0972 
     15 C15        15.1227  -27.1800  -41.3245 C.3       10 UNK         0.0209 
     16 S16        16.3086  -26.4998  -40.1074 S.3       10 UNK        -0.2568 
     17 C17        17.7709  -26.0777  -41.1185 C.3       10 UNK        -0.0983 
     18 CA         18.9204  -27.0989  -40.8687 C.3       3 UNK         0.0876 
     19 N          19.7427  -27.3371  -42.0563 N.am      3 UNK        -0.4424 
     20 C          20.6311  -26.4903  -42.5942 C.2       2 UNK         0.4918 
     21 O          20.8743  -25.3684  -42.1492 O.2       2 UNK        -0.4875 
     22 CA         21.3754  -26.9849  -43.8384 C.3       2 UNK         0.0481 
     23 CB         22.5128  -27.9515  -43.4490 C.3       2 UNK        -0.1831 
     24 N          20.4481  -27.6229  -44.7739 N.am      2 UNK        -0.4498 
     25 C          20.7175  -27.8966  -46.0552 C.2       1 UNK         0.5027 
     26 O          21.7750  -27.6005  -46.6187 O.2       1 UNK        -0.4969 
     27 C          19.8058  -26.8248  -39.6358 C.2       3 UNK         0.5005 
     28 O          20.4983  -27.7420  -39.1933 O.2       3 UNK        -0.5279 
     29 N          19.8259  -25.5805  -39.1373 N.am      4 UNK        -0.4463 
     30 CA         20.6628  -25.1234  -38.0228 C.3       4 UNK         0.0283 
     31 CB         20.3187  -23.6608  -37.6992 C.3       4 UNK        -0.1875 
     32 C          22.1783  -25.2782  -38.2588 C.2       4 UNK         0.4949 
     33 O          22.9216  -25.4052  -37.2857 O.2       4 UNK        -0.5039 
     34 N          22.6123  -25.2888  -39.5290 N.am      5 UNK        -0.4663 
     35 CA         24.0007  -25.5602  -39.9159 C.3       5 UNK         0.0242 
     36 CB         24.2707  -24.9696  -41.3098 C.3       5 UNK        -0.1982 
     37 C          24.3737  -27.0555  -39.8567 C.2       5 UNK         0.5017 
     38 O          25.5647  -27.3642  -39.8675 O.2       5 UNK        -0.5012 
     39 N          23.3714  -27.9489  -39.7981 N.am      6 UNK        -0.4439 
     40 CA         23.4137  -29.4045  -39.5754 C.3       6 UNK         0.0297 
     41 CB         23.9203  -29.7074  -38.1532 C.3       6 UNK        -0.2006 
     42 C          24.1669  -30.2766  -40.6005 C.2       6 UNK         0.4892 
     43 O          23.8178  -31.4499  -40.7308 O.2       6 UNK        -0.5089 
     44 N          25.1733  -29.7254  -41.2900 N.am      7 UNK        -0.4243 
     45 CA         26.1509  -30.4277  -42.1317 C.3       7 UNK         0.0196 
     46 CB         27.0818  -29.3944  -42.7869 C.3       7 UNK        -0.2007 
     47 C          25.5658  -31.3719  -43.1962 C.2       7 UNK         0.5020 
     48 O          26.0855  -32.4735  -43.3755 O.2       7 UNK        -0.5147 
     49 N          24.4997  -30.9317  -43.8752 N.am      8 UNK        -0.4734 
     50 CA         23.8002  -31.7210  -44.8950 C.3       8 UNK         0.0238 
     51 CB         23.1965  -30.7717  -45.9400 C.3       8 UNK        -0.1912 
     52 C          22.7004  -32.6251  -44.3112 C.2       8 UNK         0.5038 
     53 O          22.2726  -33.5552  -44.9960 O.2       8 UNK        -0.5046 
     54 N          22.2446  -32.3290  -43.0880 N.am      9 UNK        -0.4200 
     55 CA         21.1981  -33.0819  -42.3826 C.3       9 UNK         0.0839 
     56 C          21.7593  -34.3353  -41.6609 C.2       9 UNK         0.5513 
     57 N          22.9676  -34.2783  -41.1139 N.am      9 UNK        -0.7519 
     58 O          21.0936  -35.3655  -41.6005 O.2       9 UNK        -0.4960 
     59 C59        20.4089  -32.1924  -41.3880 C.3       10 UNK        -0.0876 
     60 S60        19.6738  -30.7194  -42.1745 S.3       10 UNK        -0.2414 
     61 C61        17.9460  -31.2479  -42.3915 C.3       10 UNK         0.0169 
     62 H62        21.6646  -31.0905  -49.2996 H         1 UNK         0.0903 
     63 H63        20.9815  -32.5431  -48.5652 H         1 UNK         0.0903 
     64 H64        20.2135  -31.8247  -49.9840 H         1 UNK         0.0903 
     65 H65        21.2506  -29.2702  -48.0127 H         1 UNK         0.3096 
     66 H66        19.0916  -29.2707  -46.1147 H         1 UNK         0.1121 
     67 H67        18.0785  -28.3159  -48.3198 H         1 UNK         0.0849 
     68 H68        19.1833  -26.9853  -48.1610 H         1 UNK         0.0849 
     69 H69        15.2698  -27.9178  -46.3770 H         1 UNK         0.0865 
     70 H70        16.4721  -29.1247  -46.7479 H         1 UNK         0.0865 
     71 H71        17.5227  -30.4001  -44.9422 H         1 UNK         0.1346 
     72 H72        16.4960  -29.5078  -40.8764 H         1 UNK         0.1412 
     73 H73        15.1848  -26.9209  -44.0341 H         1 UNK         0.1426 
     74 H74        14.3358  -27.7135  -40.7899 H         1 UNK         0.0716 
     75 H75        14.6355  -26.3438  -41.8282 H         1 UNK         0.0716 
     76 H76        18.0660  -25.0448  -40.9331 H         1 UNK         0.0695 
     77 H77        17.4813  -26.0876  -42.1696 H         1 UNK         0.0695 
     78 H78        18.4730  -28.0708  -40.6634 H         1 UNK         0.0983 
     79 H79        19.6815  -28.2771  -42.4241 H         1 UNK         0.3095 
     80 H80        21.8106  -26.1089  -44.3242 H         1 UNK         0.0454 
     81 H81        23.1665  -28.1481  -44.2981 H         1 UNK         0.0851 
     82 H82        22.1263  -28.9047  -43.0873 H         1 UNK         0.0851 
     83 H83        23.1388  -27.5358  -42.6616 H         1 UNK         0.0851 
     84 H84        19.5188  -27.8114  -44.4224 H         1 UNK         0.2976 
     85 H85        19.2449  -24.8832  -39.5801 H         1 UNK         0.3116 
     86 H86        20.4084  -25.7343  -37.1542 H         1 UNK         0.0646 
     87 H87        20.5259  -23.0008  -38.5425 H         1 UNK         0.0847 
     88 H88        19.2677  -23.5480  -37.4325 H         1 UNK         0.0847 
     89 H89        20.9049  -23.3001  -36.8526 H         1 UNK         0.0847 
     90 H90        21.9398  -25.1668  -40.2788 H         1 UNK         0.3040 
     91 H91        24.6610  -25.0501  -39.2106 H         1 UNK         0.1015 
     92 H92        25.2912  -25.1778  -41.6347 H         1 UNK         0.0786 
     93 H93        24.1505  -23.8862  -41.3054 H         1 UNK         0.0786 
     94 H94        23.5987  -25.3713  -42.0659 H         1 UNK         0.0786 
     95 H95        22.4282  -27.5735  -39.7672 H         1 UNK         0.3172 
     96 H96        22.3728  -29.7279  -39.6242 H         1 UNK         0.0595 
     97 H97        24.9571  -29.3977  -38.0177 H         1 UNK         0.0839 
     98 H98        23.8692  -30.7757  -37.9377 H         1 UNK         0.0839 
     99 H99        23.3166  -29.1975  -37.4022 H         1 UNK         0.0839 
    100 H100       25.4105  -28.7712  -41.0302 H         1 UNK         0.2998 
    101 H101       26.7520  -31.0434  -41.4596 H         1 UNK         0.0822 
    102 H102       27.8386  -29.8825  -43.4029 H         1 UNK         0.0787 
    103 H103       27.6087  -28.8038  -42.0369 H         1 UNK         0.0787 
    104 H104       26.5316  -28.7054  -43.4290 H         1 UNK         0.0787 
    105 H105       24.1461  -30.0097  -43.6706 H         1 UNK         0.3055 
    106 H106       24.5178  -32.3688  -45.4045 H         1 UNK         0.1106 
    107 H107       22.3910  -30.1755  -45.5143 H         1 UNK         0.0828 
    108 H108       23.9440  -30.0924  -46.3501 H         1 UNK         0.0828 
    109 H109       22.7769  -31.3339  -46.7747 H         1 UNK         0.0828 
    110 H110       22.7202  -31.6218  -42.5449 H         1 UNK         0.2931 
    111 H111       20.4802  -33.4383  -43.1245 H         1 UNK         0.0412 
    112 H112       23.4728  -33.3987  -41.0980 H         1 UNK         0.3472 
    113 H113       23.3432  -35.0877  -40.6460 H         1 UNK         0.3472 
    114 H114       19.6216  -32.7707  -40.9007 H         1 UNK         0.0970 
    115 H115       21.0638  -31.8485  -40.5853 H         1 UNK         0.0970 
    116 H116       17.9018  -32.0652  -43.1130 H         1 UNK         0.0612 
    117 H117       17.5570  -31.6367  -41.4491 H         1 UNK         0.0612 
@<TRIPOS>BOND
     1    1    2 1    
     2    1   62 1    
     3    1   63 1    
     4    1   64 1    
     5    2    3 2    
     6    2    4 am   BACKBONE|DICT|INTERRES
     7    4    5 1    
     8    4   65 1    
     9    5    6 1    
    10    5   25 1    
    11    5   66 1    
    12    6    7 1    
    13    6   67 1    
    14    6   68 1    
    15    7    8 1    
    16    8    9 1    
    17    8   69 1    
    18    8   70 1    
    19    9   10 ar   
    20    9   14 ar   
    21   10   11 ar   
    22   10   71 1    
    23   11   12 ar   
    24   11   61 1    
    25   12   13 ar   
    26   12   72 1    
    27   13   14 ar   
    28   13   15 1    
    29   14   73 1    
    30   15   16 1    
    31   15   74 1    
    32   15   75 1    
    33   16   17 1    
    34   17   18 1    
    35   17   76 1    
    36   17   77 1    
    37   18   19 1    
    38   18   27 1    
    39   18   78 1    
    40   19   20 am   BACKBONE|DICT|INTERRES
    41   19   79 1    
    42   20   21 2    
    43   20   22 1    
    44   22   23 1    
    45   22   24 1    
    46   22   80 1    
    47   23   81 1    
    48   23   82 1    
    49   23   83 1    
    50   24   25 am   BACKBONE|DICT|INTERRES
    51   24   84 1    
    52   25   26 2    
    53   27   28 2    
    54   27   29 am   BACKBONE|DICT|INTERRES
    55   29   30 1    
    56   29   85 1    
    57   30   31 1    
    58   30   32 1    
    59   30   86 1    
    60   31   87 1    
    61   31   88 1    
    62   31   89 1    
    63   32   33 2    
    64   32   34 am   BACKBONE|DICT|INTERRES
    65   34   35 1    
    66   34   90 1    
    67   35   36 1    
    68   35   37 1    
    69   35   91 1    
    70   36   92 1    
    71   36   93 1    
    72   36   94 1    
    73   37   38 2    
    74   37   39 am   BACKBONE|DICT|INTERRES
    75   39   40 1    
    76   39   95 1    
    77   40   41 1    
    78   40   42 1    
    79   40   96 1    
    80   41   97 1    
    81   41   98 1    
    82   41   99 1    
    83   42   43 2    
    84   42   44 am   BACKBONE|DICT|INTERRES
    85   44   45 1    
    86   44  100 1    
    87   45   46 1    
    88   45   47 1    
    89   45  101 1    
    90   46  102 1    
    91   46  103 1    
    92   46  104 1    
    93   47   48 2    
    94   47   49 am   BACKBONE|DICT|INTERRES
    95   49   50 1    
    96   49  105 1    
    97   50   51 1    
    98   50   52 1    
    99   50  106 1    
   100   51  107 1    
   101   51  108 1    
   102   51  109 1    
   103   52   53 2    
   104   52   54 am   BACKBONE|DICT|INTERRES
   105   54   55 1    
   106   54  110 1    
   107   55   56 1    
   108   55   59 1    
   109   55  111 1    
   110   56   57 am   BACKBONE|DICT|INTERRES
   111   56   58 2    
   112   57  112 1    
   113   57  113 1    
   114   59   60 1    
   115   59  114 1    
   116   59  115 1    
   117   60   61 1    
   118   61  116 1    
   119   61  117 1    
@<TRIPOS>SUBSTRUCTURE
     1 UNK         1 GROUP             0       ****    0 ROOT    
