@<TRIPOS>MOLECULE
3R8
117   119    1
SMALL
USER_CHARGES


@<TRIPOS>ATOM
      1 CA         14.2035  -22.8405  -44.0369 C.3       0 UNK        -0.2013 
      2 C          15.1804  -23.7306  -44.7900 C.2       0 UNK         0.4866 
      3 O          15.6143  -23.3757  -45.8868 O.2       0 UNK        -0.5176 
      4 N          15.5266  -24.8886  -44.2152 N.am      1 UNK        -0.4884 
      5 CA         16.4900  -25.8499  -44.7555 C.3       1 UNK         0.0853 
      6 C6         16.2322  -27.2951  -44.2459 C.3       10 UNK        -0.0849 
      7 S7         15.7933  -27.4818  -42.4713 S.3       10 UNK        -0.2776 
      8 C8         17.2760  -28.2130  -41.6935 C.3       10 UNK         0.0316 
      9 C9         17.7687  -29.4593  -42.4130 C.ar      10 UNK        -0.0863 
     10 C10        17.1464  -30.6966  -42.2252 C.ar      10 UNK        -0.1009 
     11 C11        17.5748  -31.8195  -42.9430 C.ar      10 UNK        -0.0712 
     12 C12        18.6108  -31.6887  -43.8737 C.ar      10 UNK        -0.0894 
     13 C13        19.2648  -30.4646  -44.0385 C.ar      10 UNK        -0.0745 
     14 C14        18.8524  -29.3634  -43.2861 C.ar      10 UNK        -0.0972 
     15 C15        20.4206  -30.3208  -45.0165 C.3       10 UNK         0.0209 
     16 S16        20.1119  -28.9796  -46.2136 S.3       10 UNK        -0.2568 
     17 C17        21.7584  -28.1984  -46.3173 C.3       10 UNK        -0.0983 
     18 CA         21.9393  -26.9555  -45.4039 C.3       3 UNK         0.0876 
     19 N          20.8792  -25.9605  -45.6071 N.am      3 UNK        -0.4424 
     20 C          20.9651  -24.6594  -45.3013 C.2       2 UNK         0.4918 
     21 O          21.9922  -24.1323  -44.8737 O.2       2 UNK        -0.4875 
     22 CA         19.6950  -23.8001  -45.4580 C.3       2 UNK         0.0481 
     23 CB         19.8000  -22.9259  -46.7177 C.3       2 UNK        -0.1831 
     24 N          18.4187  -24.5287  -45.4895 N.am      2 UNK        -0.4498 
     25 C          17.9350  -25.3468  -44.5418 C.2       1 UNK         0.5027 
     26 O          18.5704  -25.6741  -43.5395 O.2       1 UNK        -0.4969 
     27 C          22.1774  -27.3279  -43.9177 C.2       3 UNK         0.5005 
     28 O          23.0582  -28.1461  -43.6476 O.2       3 UNK        -0.5279 
     29 N          21.4375  -26.7109  -42.9772 N.am      4 UNK        -0.4463 
     30 CA         21.5317  -26.8665  -41.5159 C.3       4 UNK         0.0283 
     31 CB         20.6398  -25.8137  -40.8368 C.3       4 UNK        -0.1875 
     32 C          22.9504  -26.7697  -40.9239 C.2       4 UNK         0.4949 
     33 O          23.2077  -27.3761  -39.8844 O.2       4 UNK        -0.5039 
     34 N          23.8544  -26.0535  -41.6087 N.am      5 UNK        -0.4663 
     35 CA         25.2871  -25.9572  -41.3067 C.3       5 UNK         0.0242 
     36 CB         25.9424  -24.9950  -42.3105 C.3       5 UNK        -0.1982 
     37 C          26.0320  -27.3088  -41.2916 C.2       5 UNK         0.5017 
     38 O          27.0905  -27.3957  -40.6685 O.2       5 UNK        -0.5012 
     39 N          25.4661  -28.3408  -41.9382 N.am      6 UNK        -0.4439 
     40 CA         25.9291  -29.7301  -41.8663 C.3       6 UNK         0.0297 
     41 CB         25.2199  -30.5510  -42.9559 C.3       6 UNK        -0.2006 
     42 C          25.7211  -30.3865  -40.4847 C.2       6 UNK         0.4892 
     43 O          26.3538  -31.4080  -40.2171 O.2       6 UNK        -0.5089 
     44 N          24.8416  -29.8088  -39.6481 N.am      7 UNK        -0.4243 
     45 CA         24.4769  -30.2145  -38.2816 C.3       7 UNK         0.0196 
     46 CB         25.7058  -30.1977  -37.3481 C.3       7 UNK        -0.2007 
     47 C          23.6883  -31.5366  -38.1778 C.2       7 UNK         0.5020 
     48 O          23.3915  -31.9722  -37.0645 O.2       7 UNK        -0.5147 
     49 N          23.3290  -32.1371  -39.3155 N.am      8 UNK        -0.4734 
     50 CA         22.5352  -33.3542  -39.4498 C.3       8 UNK         0.0238 
     51 CB         23.3882  -34.5903  -39.1034 C.3       8 UNK        -0.1912 
     52 C          22.0295  -33.4285  -40.8947 C.2       8 UNK         0.5038 
     53 O          22.6125  -32.7857  -41.7736 O.2       8 UNK        -0.5046 
     54 N          20.9695  -34.2135  -41.1171 N.am      9 UNK        -0.4200 
     55 CA         20.4140  -34.4783  -42.4513 C.3       9 UNK         0.0839 
     56 C          21.3560  -35.3597  -43.3167 C.2       9 UNK         0.5513 
     57 N          21.3749  -35.1504  -44.6259 N.am      9 UNK        -0.7519 
     58 O          22.0310  -36.2587  -42.8187 O.2       9 UNK        -0.4960 
     59 C59        18.9934  -35.0999  -42.3883 C.3       10 UNK        -0.0876 
     60 S60        17.7884  -34.1204  -41.4231 S.3       10 UNK        -0.2414 
     61 C61        16.9147  -33.1701  -42.7109 C.3       10 UNK         0.0169 
     62 H62        13.3101  -22.6719  -44.6377 H         1 UNK         0.0903 
     63 H63        13.8965  -23.2825  -43.0892 H         1 UNK         0.0903 
     64 H64        14.6615  -21.8740  -43.8282 H         1 UNK         0.0903 
     65 H65        15.1574  -25.1310  -43.3054 H         1 UNK         0.3096 
     66 H66        16.3412  -25.8916  -45.8375 H         1 UNK         0.1121 
     67 H67        17.0571  -27.9469  -44.5256 H         1 UNK         0.0849 
     68 H68        15.3805  -27.6967  -44.7970 H         1 UNK         0.0849 
     69 H69        17.0468  -28.4580  -40.6555 H         1 UNK         0.0865 
     70 H70        18.0622  -27.4615  -41.6564 H         1 UNK         0.0865 
     71 H71        16.3240  -30.7825  -41.5281 H         1 UNK         0.1346 
     72 H72        18.9188  -32.5461  -44.4547 H         1 UNK         0.1412 
     73 H73        19.3435  -28.4104  -43.4208 H         1 UNK         0.1426 
     74 H74        20.5914  -31.2483  -45.5648 H         1 UNK         0.0716 
     75 H75        21.3292  -30.1297  -44.4449 H         1 UNK         0.0716 
     76 H76        21.8960  -27.8919  -47.3553 H         1 UNK         0.0695 
     77 H77        22.5372  -28.9424  -46.1383 H         1 UNK         0.0695 
     78 H78        22.8739  -26.4841  -45.7162 H         1 UNK         0.0983 
     79 H79        19.9997  -26.3210  -45.9477 H         1 UNK         0.3095 
     80 H80        19.6569  -23.1376  -44.5911 H         1 UNK         0.0454 
     81 H81        19.8040  -23.5280  -47.6271 H         1 UNK         0.0851 
     82 H82        20.7191  -22.3379  -46.7125 H         1 UNK         0.0851 
     83 H83        18.9703  -22.2217  -46.7837 H         1 UNK         0.0851 
     84 H84        17.7890  -24.2744  -46.2399 H         1 UNK         0.2976 
     85 H85        20.7015  -26.0929  -43.2992 H         1 UNK         0.3116 
     86 H86        21.1451  -27.8586  -41.2753 H         1 UNK         0.0646 
     87 H87        19.5990  -25.9026  -41.1390 H         1 UNK         0.0847 
     88 H88        20.9659  -24.7998  -41.0721 H         1 UNK         0.0847 
     89 H89        20.6653  -25.9199  -39.7512 H         1 UNK         0.0847 
     90 H90        23.5403  -25.5916  -42.4503 H         1 UNK         0.3040 
     91 H91        25.3818  -25.5311  -40.3056 H         1 UNK         0.1015 
     92 H92        27.0059  -24.8735  -42.0990 H         1 UNK         0.0786 
     93 H93        25.4905  -24.0039  -42.2649 H         1 UNK         0.0786 
     94 H94        25.8531  -25.3594  -43.3348 H         1 UNK         0.0786 
     95 H95        24.6052  -28.1782  -42.4570 H         1 UNK         0.3172 
     96 H96        27.0008  -29.7395  -42.0748 H         1 UNK         0.0595 
     97 H97        24.1398  -30.5754  -42.8037 H         1 UNK         0.0839 
     98 H98        25.5694  -31.5844  -42.9593 H         1 UNK         0.0839 
     99 H99        25.4072  -30.1415  -43.9487 H         1 UNK         0.0839 
    100 H100       24.3632  -28.9718  -39.9701 H         1 UNK         0.2998 
    101 H101       23.7930  -29.4414  -37.9278 H         1 UNK         0.0822 
    102 H102       26.2380  -29.2484  -37.4103 H         1 UNK         0.0787 
    103 H103       25.4086  -30.3334  -36.3075 H         1 UNK         0.0787 
    104 H104       26.4099  -30.9948  -37.5882 H         1 UNK         0.0787 
    105 H105       23.5857  -31.7175  -40.2013 H         1 UNK         0.3055 
    106 H106       21.6750  -33.2936  -38.7792 H         1 UNK         0.1106 
    107 H107       24.2683  -34.6608  -39.7440 H         1 UNK         0.0828 
    108 H108       22.8178  -35.5113  -39.2301 H         1 UNK         0.0828 
    109 H109       23.7298  -34.5648  -38.0687 H         1 UNK         0.0828 
    110 H110       20.5529  -34.7222  -40.3518 H         1 UNK         0.2931 
    111 H111       20.3363  -33.5118  -42.9466 H         1 UNK         0.0412 
    112 H112       21.9686  -35.7259  -45.2031 H         1 UNK         0.3472 
    113 H113       20.8204  -34.4241  -45.0502 H         1 UNK         0.3472 
    114 H114       18.6010  -35.2554  -43.3947 H         1 UNK         0.0970 
    115 H115       19.0420  -36.0934  -41.9381 H         1 UNK         0.0970 
    116 H116       15.8822  -33.0231  -42.3901 H         1 UNK         0.0612 
    117 H117       16.8612  -33.7381  -43.6405 H         1 UNK         0.0612 
@<TRIPOS>BOND
     1    1    2 1    
     2    1   62 1    
     3    1   63 1    
     4    1   64 1    
     5    2    3 2    
     6    2    4 am   BACKBONE|DICT|INTERRES
     7    4    5 1    
     8    4   65 1    
     9    5    6 1    
    10    5   25 1    
    11    5   66 1    
    12    6    7 1    
    13    6   67 1    
    14    6   68 1    
    15    7    8 1    
    16    8    9 1    
    17    8   69 1    
    18    8   70 1    
    19    9   10 ar   
    20    9   14 ar   
    21   10   11 ar   
    22   10   71 1    
    23   11   12 ar   
    24   11   61 1    
    25   12   13 ar   
    26   12   72 1    
    27   13   14 ar   
    28   13   15 1    
    29   14   73 1    
    30   15   16 1    
    31   15   74 1    
    32   15   75 1    
    33   16   17 1    
    34   17   18 1    
    35   17   76 1    
    36   17   77 1    
    37   18   19 1    
    38   18   27 1    
    39   18   78 1    
    40   19   20 am   BACKBONE|DICT|INTERRES
    41   19   79 1    
    42   20   21 2    
    43   20   22 1    
    44   22   23 1    
    45   22   24 1    
    46   22   80 1    
    47   23   81 1    
    48   23   82 1    
    49   23   83 1    
    50   24   25 am   BACKBONE|DICT|INTERRES
    51   24   84 1    
    52   25   26 2    
    53   27   28 2    
    54   27   29 am   BACKBONE|DICT|INTERRES
    55   29   30 1    
    56   29   85 1    
    57   30   31 1    
    58   30   32 1    
    59   30   86 1    
    60   31   87 1    
    61   31   88 1    
    62   31   89 1    
    63   32   33 2    
    64   32   34 am   BACKBONE|DICT|INTERRES
    65   34   35 1    
    66   34   90 1    
    67   35   36 1    
    68   35   37 1    
    69   35   91 1    
    70   36   92 1    
    71   36   93 1    
    72   36   94 1    
    73   37   38 2    
    74   37   39 am   BACKBONE|DICT|INTERRES
    75   39   40 1    
    76   39   95 1    
    77   40   41 1    
    78   40   42 1    
    79   40   96 1    
    80   41   97 1    
    81   41   98 1    
    82   41   99 1    
    83   42   43 2    
    84   42   44 am   BACKBONE|DICT|INTERRES
    85   44   45 1    
    86   44  100 1    
    87   45   46 1    
    88   45   47 1    
    89   45  101 1    
    90   46  102 1    
    91   46  103 1    
    92   46  104 1    
    93   47   48 2    
    94   47   49 am   BACKBONE|DICT|INTERRES
    95   49   50 1    
    96   49  105 1    
    97   50   51 1    
    98   50   52 1    
    99   50  106 1    
   100   51  107 1    
   101   51  108 1    
   102   51  109 1    
   103   52   53 2    
   104   52   54 am   BACKBONE|DICT|INTERRES
   105   54   55 1    
   106   54  110 1    
   107   55   56 1    
   108   55   59 1    
   109   55  111 1    
   110   56   57 am   BACKBONE|DICT|INTERRES
   111   56   58 2    
   112   57  112 1    
   113   57  113 1    
   114   59   60 1    
   115   59  114 1    
   116   59  115 1    
   117   60   61 1    
   118   61  116 1    
   119   61  117 1    
@<TRIPOS>SUBSTRUCTURE
     1 UNK         1 GROUP             0       ****    0 ROOT    
