@<TRIPOS>MOLECULE
3R8
117   119    1
SMALL
USER_CHARGES


@<TRIPOS>ATOM
      1 CA         14.1327  -22.6302  -43.9633 C.3       0 UNK        -0.2013 
      2 C          15.0059  -23.2081  -45.0667 C.2       0 UNK         0.4866 
      3 O          15.2555  -22.5352  -46.0670 O.2       0 UNK        -0.5176 
      4 N          15.4740  -24.4510  -44.8936 N.am      1 UNK        -0.4884 
      5 CA         16.3395  -25.1636  -45.8431 C.3       1 UNK         0.0853 
      6 C6         16.2943  -26.6996  -45.6237 C.3       10 UNK        -0.0849 
      7 S7         16.7040  -27.2129  -43.9180 S.3       10 UNK        -0.2776 
      8 C8         16.4764  -29.0205  -44.0013 C.3       10 UNK         0.0316 
      9 C9         17.8056  -29.7657  -43.9858 C.ar      10 UNK        -0.0863 
     10 C10        18.1894  -30.5124  -42.8661 C.ar      10 UNK        -0.1009 
     11 C11        19.4003  -31.2164  -42.8557 C.ar      10 UNK        -0.0712 
     12 C12        20.2377  -31.1508  -43.9749 C.ar      10 UNK        -0.0894 
     13 C13        19.8571  -30.4250  -45.1081 C.ar      10 UNK        -0.0745 
     14 C14        18.6356  -29.7440  -45.1088 C.ar      10 UNK        -0.0972 
     15 C15        20.7387  -30.4190  -46.3517 C.3       10 UNK         0.0209 
     16 S16        22.1006  -29.2110  -46.2578 S.3       10 UNK        -0.2568 
     17 C17        21.1973  -27.6240  -46.1696 C.3       10 UNK        -0.0983 
     18 CA         21.4560  -26.7310  -44.9232 C.3       3 UNK         0.0876 
     19 N          20.5730  -25.5651  -44.9873 N.am      3 UNK        -0.4424 
     20 C          20.6841  -24.4140  -44.3183 C.2       2 UNK         0.4918 
     21 O          21.6102  -24.1601  -43.5490 O.2       2 UNK        -0.4875 
     22 CA         19.5519  -23.3820  -44.5089 C.3       2 UNK         0.0481 
     23 CB         19.9401  -22.3329  -45.5682 C.3       2 UNK        -0.1831 
     24 N          18.2194  -23.9539  -44.7840 N.am      2 UNK        -0.4498 
     25 C          17.7931  -24.6429  -45.8572 C.2       1 UNK         0.5027 
     26 O          18.5123  -24.9169  -46.8185 O.2       1 UNK        -0.4969 
     27 C          21.3848  -27.4669  -43.5586 C.2       3 UNK         0.5005 
     28 O          22.2800  -28.2598  -43.2612 O.2       3 UNK        -0.5279 
     29 N          20.3859  -27.1572  -42.7127 N.am      4 UNK        -0.4463 
     30 CA         20.1819  -27.6843  -41.3534 C.3       4 UNK         0.0283 
     31 CB         18.7646  -27.3310  -40.8680 C.3       4 UNK        -0.1875 
     32 C          21.2671  -27.2965  -40.3182 C.2       4 UNK         0.4949 
     33 O          20.9492  -26.9114  -39.1924 O.2       4 UNK        -0.5039 
     34 N          22.5321  -27.4504  -40.7062 N.am      5 UNK        -0.4663 
     35 CA         23.7396  -27.3273  -39.8945 C.3       5 UNK         0.0242 
     36 CB         24.1579  -25.8466  -39.8078 C.3       5 UNK        -0.1982 
     37 C          24.8676  -28.2217  -40.4494 C.2       5 UNK         0.5017 
     38 O          26.0219  -28.0413  -40.0583 O.2       5 UNK        -0.5012 
     39 N          24.5348  -29.1487  -41.3589 N.am      6 UNK        -0.4439 
     40 CA         25.4494  -30.0662  -42.0291 C.3       6 UNK         0.0297 
     41 CB         25.8586  -29.4596  -43.3838 C.3       6 UNK        -0.2006 
     42 C          24.7607  -31.4250  -42.2171 C.2       6 UNK         0.4892 
     43 O          23.5468  -31.5372  -42.0206 O.2       6 UNK        -0.5089 
     44 N          25.5565  -32.4314  -42.6073 N.am      7 UNK        -0.4243 
     45 CA         25.1687  -33.8325  -42.8037 C.3       7 UNK         0.0196 
     46 CB         24.1951  -33.9757  -43.9986 C.3       7 UNK        -0.2007 
     47 C          24.6594  -34.4446  -41.4855 C.2       7 UNK         0.5020 
     48 O          25.4397  -34.5557  -40.5392 O.2       7 UNK        -0.5147 
     49 N          23.3749  -34.8173  -41.4340 N.am      8 UNK        -0.4734 
     50 CA         22.7052  -35.3194  -40.2305 C.3       8 UNK         0.0238 
     51 CB         21.4193  -36.0527  -40.6476 C.3       8 UNK        -0.1912 
     52 C          22.3811  -34.2177  -39.2027 C.2       8 UNK         0.5038 
     53 O          22.1352  -34.5433  -38.0403 O.2       8 UNK        -0.5046 
     54 N          22.3589  -32.9553  -39.6449 N.am      9 UNK        -0.4200 
     55 CA         22.0451  -31.7746  -38.8340 C.3       9 UNK         0.0839 
     56 C          23.3278  -31.1187  -38.2547 C.2       9 UNK         0.5513 
     57 N          23.1766  -30.2279  -37.2838 N.am      9 UNK        -0.7519 
     58 O          24.4514  -31.3896  -38.6719 O.2       9 UNK        -0.4960 
     59 C59        21.1974  -30.7600  -39.6453 C.3       10 UNK        -0.0876 
     60 S60        19.5329  -31.3944  -40.0391 S.3       10 UNK        -0.2414 
     61 C61        19.7663  -32.1337  -41.6918 C.3       10 UNK         0.0169 
     62 H62        14.5858  -21.7241  -43.5619 H         1 UNK         0.0903 
     63 H63        13.1502  -22.3736  -44.3584 H         1 UNK         0.0903 
     64 H64        13.9945  -23.3330  -43.1418 H         1 UNK         0.0903 
     65 H65        15.2390  -24.9676  -44.0563 H         1 UNK         0.3096 
     66 H66        15.9507  -24.9717  -46.8461 H         1 UNK         0.1121 
     67 H67        15.2906  -27.0617  -45.8524 H         1 UNK         0.0849 
     68 H68        16.9575  -27.2118  -46.3235 H         1 UNK         0.0849 
     69 H69        15.8610  -29.3278  -43.1544 H         1 UNK         0.0865 
     70 H70        15.9130  -29.2943  -44.8944 H         1 UNK         0.0865 
     71 H71        17.5350  -30.5653  -42.0070 H         1 UNK         0.1346 
     72 H72        21.1757  -31.6897  -43.9791 H         1 UNK         0.1412 
     73 H73        18.3242  -29.1970  -45.9872 H         1 UNK         0.1426 
     74 H74        21.1652  -31.4126  -46.4972 H         1 UNK         0.0716 
     75 H75        20.1417  -30.2153  -47.2420 H         1 UNK         0.0716 
     76 H76        21.4673  -27.0618  -47.0650 H         1 UNK         0.0695 
     77 H77        20.1301  -27.8114  -46.2735 H         1 UNK         0.0695 
     78 H78        22.4808  -26.3608  -44.9977 H         1 UNK         0.0983 
     79 H79        19.8055  -25.6231  -45.6499 H         1 UNK         0.3095 
     80 H80        19.4510  -22.8600  -43.5561 H         1 UNK         0.0454 
     81 H81        20.0905  -22.7792  -46.5516 H         1 UNK         0.0851 
     82 H82        19.1743  -21.5631  -45.6630 H         1 UNK         0.0851 
     83 H83        20.8703  -21.8323  -45.2964 H         1 UNK         0.0851 
     84 H84        17.5410  -23.8248  -44.0460 H         1 UNK         0.2976 
     85 H85        19.7023  -26.4883  -43.0337 H         1 UNK         0.3116 
     86 H86        20.2239  -28.7699  -41.4381 H         1 UNK         0.0646 
     87 H87        18.5866  -27.7014  -39.8575 H         1 UNK         0.0847 
     88 H88        18.0081  -27.7950  -41.4964 H         1 UNK         0.0847 
     89 H89        18.5937  -26.2543  -40.8597 H         1 UNK         0.0847 
     90 H90        22.6676  -27.7348  -41.6777 H         1 UNK         0.3040 
     91 H91        23.5228  -27.6908  -38.8877 H         1 UNK         0.1015 
     92 H92        23.3652  -25.2340  -39.3781 H         1 UNK         0.0786 
     93 H93        24.3982  -25.4417  -40.7915 H         1 UNK         0.0786 
     94 H94        25.0381  -25.7210  -39.1760 H         1 UNK         0.0786 
     95 H95        23.5646  -29.2968  -41.6087 H         1 UNK         0.3172 
     96 H96        26.3363  -30.2238  -41.4118 H         1 UNK         0.0595 
     97 H97        26.5572  -30.1055  -43.9165 H         1 UNK         0.0839 
     98 H98        26.3481  -28.4943  -43.2535 H         1 UNK         0.0839 
     99 H99        24.9925  -29.3092  -44.0309 H         1 UNK         0.0839 
    100 H100       26.5431  -32.2396  -42.7124 H         1 UNK         0.2998 
    101 H101       26.0805  -34.3755  -43.0575 H         1 UNK         0.0822 
    102 H102       24.6435  -33.5844  -44.9119 H         1 UNK         0.0787 
    103 H103       23.9552  -35.0230  -44.1874 H         1 UNK         0.0787 
    104 H104       23.2571  -33.4416  -43.8442 H         1 UNK         0.0787 
    105 H105       22.8049  -34.6867  -42.2574 H         1 UNK         0.3055 
    106 H106       23.3661  -36.0366  -39.7380 H         1 UNK         0.1106 
    107 H107       20.9100  -36.4722  -39.7787 H         1 UNK         0.0828 
    108 H108       20.7153  -35.3841  -41.1448 H         1 UNK         0.0828 
    109 H109       21.6345  -36.8801  -41.3241 H         1 UNK         0.0828 
    110 H110       22.6751  -32.7578  -40.5876 H         1 UNK         0.2931 
    111 H111       21.4482  -32.0900  -37.9757 H         1 UNK         0.0412 
    112 H112       23.9965  -29.7976  -36.8854 H         1 UNK         0.3472 
    113 H113       22.2656  -30.0041  -36.9142 H         1 UNK         0.3472 
    114 H114       21.7067  -30.4590  -40.5612 H         1 UNK         0.0970 
    115 H115       21.0487  -29.8505  -39.0627 H         1 UNK         0.0970 
    116 H116       19.1344  -33.0203  -41.7544 H         1 UNK         0.0612 
    117 H117       20.7917  -32.4890  -41.7933 H         1 UNK         0.0612 
@<TRIPOS>BOND
     1    1    2 1    
     2    1   62 1    
     3    1   63 1    
     4    1   64 1    
     5    2    3 2    
     6    2    4 am   BACKBONE|DICT|INTERRES
     7    4    5 1    
     8    4   65 1    
     9    5    6 1    
    10    5   25 1    
    11    5   66 1    
    12    6    7 1    
    13    6   67 1    
    14    6   68 1    
    15    7    8 1    
    16    8    9 1    
    17    8   69 1    
    18    8   70 1    
    19    9   10 ar   
    20    9   14 ar   
    21   10   11 ar   
    22   10   71 1    
    23   11   12 ar   
    24   11   61 1    
    25   12   13 ar   
    26   12   72 1    
    27   13   14 ar   
    28   13   15 1    
    29   14   73 1    
    30   15   16 1    
    31   15   74 1    
    32   15   75 1    
    33   16   17 1    
    34   17   18 1    
    35   17   76 1    
    36   17   77 1    
    37   18   19 1    
    38   18   27 1    
    39   18   78 1    
    40   19   20 am   BACKBONE|DICT|INTERRES
    41   19   79 1    
    42   20   21 2    
    43   20   22 1    
    44   22   23 1    
    45   22   24 1    
    46   22   80 1    
    47   23   81 1    
    48   23   82 1    
    49   23   83 1    
    50   24   25 am   BACKBONE|DICT|INTERRES
    51   24   84 1    
    52   25   26 2    
    53   27   28 2    
    54   27   29 am   BACKBONE|DICT|INTERRES
    55   29   30 1    
    56   29   85 1    
    57   30   31 1    
    58   30   32 1    
    59   30   86 1    
    60   31   87 1    
    61   31   88 1    
    62   31   89 1    
    63   32   33 2    
    64   32   34 am   BACKBONE|DICT|INTERRES
    65   34   35 1    
    66   34   90 1    
    67   35   36 1    
    68   35   37 1    
    69   35   91 1    
    70   36   92 1    
    71   36   93 1    
    72   36   94 1    
    73   37   38 2    
    74   37   39 am   BACKBONE|DICT|INTERRES
    75   39   40 1    
    76   39   95 1    
    77   40   41 1    
    78   40   42 1    
    79   40   96 1    
    80   41   97 1    
    81   41   98 1    
    82   41   99 1    
    83   42   43 2    
    84   42   44 am   BACKBONE|DICT|INTERRES
    85   44   45 1    
    86   44  100 1    
    87   45   46 1    
    88   45   47 1    
    89   45  101 1    
    90   46  102 1    
    91   46  103 1    
    92   46  104 1    
    93   47   48 2    
    94   47   49 am   BACKBONE|DICT|INTERRES
    95   49   50 1    
    96   49  105 1    
    97   50   51 1    
    98   50   52 1    
    99   50  106 1    
   100   51  107 1    
   101   51  108 1    
   102   51  109 1    
   103   52   53 2    
   104   52   54 am   BACKBONE|DICT|INTERRES
   105   54   55 1    
   106   54  110 1    
   107   55   56 1    
   108   55   59 1    
   109   55  111 1    
   110   56   57 am   BACKBONE|DICT|INTERRES
   111   56   58 2    
   112   57  112 1    
   113   57  113 1    
   114   59   60 1    
   115   59  114 1    
   116   59  115 1    
   117   60   61 1    
   118   61  116 1    
   119   61  117 1    
@<TRIPOS>SUBSTRUCTURE
     1 UNK         1 GROUP             0       ****    0 ROOT    
