@<TRIPOS>MOLECULE
3R8
117   119    1
SMALL
USER_CHARGES


@<TRIPOS>ATOM
      1 CA         13.3364  -24.4430  -43.2890 C.3       0 UNK        -0.2013 
      2 C          14.3500  -24.7394  -44.3839 C.2       0 UNK         0.4866 
      3 O          14.9982  -23.8206  -44.8846 O.2       0 UNK        -0.5176 
      4 N          14.4956  -26.0169  -44.7580 N.am      1 UNK        -0.4884 
      5 CA         15.4322  -26.4912  -45.7868 C.3       1 UNK         0.0853 
      6 C6         14.9769  -27.8425  -46.3981 C.3       10 UNK        -0.0849 
      7 S7         14.7272  -29.1770  -45.1716 S.3       10 UNK        -0.2776 
      8 C8         15.8271  -30.4932  -45.7939 C.3       10 UNK         0.0316 
      9 C9         17.2844  -30.2882  -45.3970 C.ar      10 UNK        -0.0863 
     10 C10        17.6597  -30.3758  -44.0539 C.ar      10 UNK        -0.1009 
     11 C11        18.9985  -30.2377  -43.6774 C.ar      10 UNK        -0.0712 
     12 C12        19.9733  -30.0265  -44.6572 C.ar      10 UNK        -0.0894 
     13 C13        19.6124  -29.9377  -46.0055 C.ar      10 UNK        -0.0745 
     14 C14        18.2659  -30.0628  -46.3681 C.ar      10 UNK        -0.0972 
     15 C15        20.6752  -29.7510  -47.0800 C.3       10 UNK         0.0209 
     16 S16        20.9112  -28.0013  -47.5297 S.3       10 UNK        -0.2568 
     17 C17        22.1163  -27.4267  -46.2851 C.3       10 UNK        -0.0983 
     18 CA         21.5599  -26.2918  -45.3892 C.3       3 UNK         0.0876 
     19 N          20.3878  -26.7215  -44.6246 N.am      3 UNK        -0.4424 
     20 C          19.5918  -25.9280  -43.8970 C.2       2 UNK         0.4918 
     21 O          19.7622  -24.7176  -43.7417 O.2       2 UNK        -0.4875 
     22 CA         18.3776  -26.6191  -43.2517 C.3       2 UNK         0.0481 
     23 CB         18.1797  -26.1597  -41.7972 C.3       2 UNK        -0.1831 
     24 N          17.1169  -26.4568  -43.9844 N.am      2 UNK        -0.4498 
     25 C          16.8984  -26.5563  -45.3076 C.2       1 UNK         0.5027 
     26 O          17.7775  -26.7120  -46.1537 O.2       1 UNK        -0.4969 
     27 C          22.6699  -25.7263  -44.4827 C.2       3 UNK         0.5005 
     28 O          23.1537  -24.6197  -44.7277 O.2       3 UNK        -0.5279 
     29 N          23.0413  -26.4957  -43.4530 N.am      4 UNK        -0.4463 
     30 CA         24.0676  -26.1944  -42.4601 C.3       4 UNK         0.0283 
     31 CB         25.4688  -26.1624  -43.1068 C.3       4 UNK        -0.1875 
     32 C          24.0159  -27.2884  -41.3906 C.2       4 UNK         0.4949 
     33 O          23.5607  -28.3981  -41.6788 O.2       4 UNK        -0.5039 
     34 N          24.5479  -26.9844  -40.1990 N.am      5 UNK        -0.4663 
     35 CA         24.6633  -27.9200  -39.0707 C.3       5 UNK         0.0242 
     36 CB         25.1878  -27.1685  -37.8371 C.3       5 UNK        -0.1982 
     37 C          25.5443  -29.1481  -39.3678 C.2       5 UNK         0.5017 
     38 O          25.3347  -30.2031  -38.7690 O.2       5 UNK        -0.5012 
     39 N          26.4739  -29.0049  -40.3245 N.am      6 UNK        -0.4439 
     40 CA         27.3318  -30.0636  -40.8658 C.3       6 UNK         0.0297 
     41 CB         28.3261  -29.4411  -41.8595 C.3       6 UNK        -0.2006 
     42 C          26.5672  -31.2265  -41.5306 C.2       6 UNK         0.4892 
     43 O          27.1306  -32.3144  -41.6526 O.2       6 UNK        -0.5089 
     44 N          25.3030  -30.9990  -41.9205 N.am      7 UNK        -0.4243 
     45 CA         24.3859  -32.0305  -42.4134 C.3       7 UNK         0.0196 
     46 CB         23.2547  -31.3504  -43.2030 C.3       7 UNK        -0.2007 
     47 C          23.8069  -32.9223  -41.2940 C.2       7 UNK         0.5020 
     48 O          23.1207  -33.8936  -41.6116 O.2       7 UNK        -0.5147 
     49 N          24.0769  -32.5829  -40.0217 N.am      8 UNK        -0.4734 
     50 CA         23.5634  -33.2094  -38.7958 C.3       8 UNK         0.0238 
     51 CB         23.9860  -34.6910  -38.6891 C.3       8 UNK        -0.1912 
     52 C          22.0496  -32.9887  -38.6139 C.2       8 UNK         0.5038 
     53 O          21.3472  -33.8733  -38.1203 O.2       8 UNK        -0.5046 
     54 N          21.5839  -31.7989  -39.0044 N.am      9 UNK        -0.4200 
     55 CA         20.1977  -31.3357  -38.9129 C.3       9 UNK         0.0839 
     56 C          20.1315  -29.7859  -38.9136 C.2       9 UNK         0.5513 
     57 N          18.9722  -29.2132  -38.6197 N.am      9 UNK        -0.7519 
     58 O          21.1141  -29.0965  -39.1776 O.2       9 UNK        -0.4960 
     59 C59        19.2587  -31.9997  -39.9628 C.3       10 UNK        -0.0876 
     60 S60        19.8538  -31.9569  -41.6918 S.3       10 UNK        -0.2414 
     61 C61        19.3756  -30.2818  -42.2062 C.3       10 UNK         0.0169 
     62 H62        12.5749  -23.7569  -43.6590 H         1 UNK         0.0903 
     63 H63        13.8299  -23.9766  -42.4367 H         1 UNK         0.0903 
     64 H64        12.8369  -25.3464  -42.9394 H         1 UNK         0.0903 
     65 H65        13.9395  -26.7394  -44.3199 H         1 UNK         0.3096 
     66 H66        15.4257  -25.7591  -46.5980 H         1 UNK         0.1121 
     67 H67        14.0298  -27.6975  -46.9200 H         1 UNK         0.0849 
     68 H68        15.6795  -28.1692  -47.1674 H         1 UNK         0.0849 
     69 H69        15.4892  -31.4462  -45.3842 H         1 UNK         0.0865 
     70 H70        15.7208  -30.5807  -46.8763 H         1 UNK         0.0865 
     71 H71        16.9043  -30.5484  -43.2993 H         1 UNK         0.1346 
     72 H72        21.0112  -29.9365  -44.3693 H         1 UNK         0.1412 
     73 H73        17.9868  -29.9991  -47.4110 H         1 UNK         0.1426 
     74 H74        21.6235  -30.1911  -46.7672 H         1 UNK         0.0716 
     75 H75        20.3788  -30.2973  -47.9767 H         1 UNK         0.0716 
     76 H76        22.9965  -27.0797  -46.8300 H         1 UNK         0.0695 
     77 H77        22.4529  -28.2692  -45.6786 H         1 UNK         0.0695 
     78 H78        21.2339  -25.4774  -46.0402 H         1 UNK         0.0983 
     79 H79        20.0917  -27.6753  -44.7794 H         1 UNK         0.3095 
     80 H80        18.5811  -27.6858  -43.2198 H         1 UNK         0.0454 
     81 H81        19.1016  -26.2702  -41.2243 H         1 UNK         0.0851 
     82 H82        17.4161  -26.7518  -41.2926 H         1 UNK         0.0851 
     83 H83        17.8849  -25.1110  -41.7418 H         1 UNK         0.0851 
     84 H84        16.2972  -26.3107  -43.4147 H         1 UNK         0.2976 
     85 H85        22.5874  -27.3887  -43.3007 H         1 UNK         0.3116 
     86 H86        23.8422  -25.2307  -41.9992 H         1 UNK         0.0646 
     87 H87        26.2443  -25.9809  -42.3620 H         1 UNK         0.0847 
     88 H88        25.7046  -27.1059  -43.6010 H         1 UNK         0.0847 
     89 H89        25.5553  -25.3684  -43.8480 H         1 UNK         0.0847 
     90 H90        24.9036  -26.0503  -40.0491 H         1 UNK         0.3040 
     91 H91        23.6615  -28.2926  -38.8463 H         1 UNK         0.1015 
     92 H92        26.1801  -26.7496  -38.0094 H         1 UNK         0.0786 
     93 H93        25.2602  -27.8349  -36.9762 H         1 UNK         0.0786 
     94 H94        24.5213  -26.3528  -37.5561 H         1 UNK         0.0786 
     95 H95        26.5636  -28.0928  -40.7467 H         1 UNK         0.3172 
     96 H96        27.8972  -30.4843  -40.0318 H         1 UNK         0.0595 
     97 H97        27.8163  -28.9807  -42.7069 H         1 UNK         0.0839 
     98 H98        29.0034  -30.1971  -42.2597 H         1 UNK         0.0839 
     99 H99        28.9430  -28.6794  -41.3822 H         1 UNK         0.0839 
    100 H100       24.9052  -30.0757  -41.7866 H         1 UNK         0.2998 
    101 H101       24.9329  -32.6829  -43.0974 H         1 UNK         0.0822 
    102 H102       23.6458  -30.7238  -44.0047 H         1 UNK         0.0787 
    103 H103       22.5963  -32.0906  -43.6599 H         1 UNK         0.0787 
    104 H104       22.6369  -30.7260  -42.5568 H         1 UNK         0.0787 
    105 H105       24.6488  -31.7591  -39.8619 H         1 UNK         0.3055 
    106 H106       24.0386  -32.6790  -37.9687 H         1 UNK         0.1106 
    107 H107       23.4799  -35.3145  -39.4264 H         1 UNK         0.0828 
    108 H108       25.0605  -34.8086  -38.8289 H         1 UNK         0.0828 
    109 H109       23.7419  -35.0946  -37.7057 H         1 UNK         0.0828 
    110 H110       22.2248  -31.1120  -39.3784 H         1 UNK         0.2931 
    111 H111       19.8419  -31.6284  -37.9229 H         1 UNK         0.0412 
    112 H112       18.1608  -29.7610  -38.3799 H         1 UNK         0.3472 
    113 H113       18.9162  -28.2071  -38.6097 H         1 UNK         0.3472 
    114 H114       18.2509  -31.5848  -39.9137 H         1 UNK         0.0970 
    115 H115       19.1375  -33.0519  -39.7018 H         1 UNK         0.0970 
    116 H116       20.2029  -29.5981  -42.0083 H         1 UNK         0.0612 
    117 H117       18.5367  -29.9280  -41.6050 H         1 UNK         0.0612 
@<TRIPOS>BOND
     1    1    2 1    
     2    1   62 1    
     3    1   63 1    
     4    1   64 1    
     5    2    3 2    
     6    2    4 am   BACKBONE|DICT|INTERRES
     7    4    5 1    
     8    4   65 1    
     9    5    6 1    
    10    5   25 1    
    11    5   66 1    
    12    6    7 1    
    13    6   67 1    
    14    6   68 1    
    15    7    8 1    
    16    8    9 1    
    17    8   69 1    
    18    8   70 1    
    19    9   10 ar   
    20    9   14 ar   
    21   10   11 ar   
    22   10   71 1    
    23   11   12 ar   
    24   11   61 1    
    25   12   13 ar   
    26   12   72 1    
    27   13   14 ar   
    28   13   15 1    
    29   14   73 1    
    30   15   16 1    
    31   15   74 1    
    32   15   75 1    
    33   16   17 1    
    34   17   18 1    
    35   17   76 1    
    36   17   77 1    
    37   18   19 1    
    38   18   27 1    
    39   18   78 1    
    40   19   20 am   BACKBONE|DICT|INTERRES
    41   19   79 1    
    42   20   21 2    
    43   20   22 1    
    44   22   23 1    
    45   22   24 1    
    46   22   80 1    
    47   23   81 1    
    48   23   82 1    
    49   23   83 1    
    50   24   25 am   BACKBONE|DICT|INTERRES
    51   24   84 1    
    52   25   26 2    
    53   27   28 2    
    54   27   29 am   BACKBONE|DICT|INTERRES
    55   29   30 1    
    56   29   85 1    
    57   30   31 1    
    58   30   32 1    
    59   30   86 1    
    60   31   87 1    
    61   31   88 1    
    62   31   89 1    
    63   32   33 2    
    64   32   34 am   BACKBONE|DICT|INTERRES
    65   34   35 1    
    66   34   90 1    
    67   35   36 1    
    68   35   37 1    
    69   35   91 1    
    70   36   92 1    
    71   36   93 1    
    72   36   94 1    
    73   37   38 2    
    74   37   39 am   BACKBONE|DICT|INTERRES
    75   39   40 1    
    76   39   95 1    
    77   40   41 1    
    78   40   42 1    
    79   40   96 1    
    80   41   97 1    
    81   41   98 1    
    82   41   99 1    
    83   42   43 2    
    84   42   44 am   BACKBONE|DICT|INTERRES
    85   44   45 1    
    86   44  100 1    
    87   45   46 1    
    88   45   47 1    
    89   45  101 1    
    90   46  102 1    
    91   46  103 1    
    92   46  104 1    
    93   47   48 2    
    94   47   49 am   BACKBONE|DICT|INTERRES
    95   49   50 1    
    96   49  105 1    
    97   50   51 1    
    98   50   52 1    
    99   50  106 1    
   100   51  107 1    
   101   51  108 1    
   102   51  109 1    
   103   52   53 2    
   104   52   54 am   BACKBONE|DICT|INTERRES
   105   54   55 1    
   106   54  110 1    
   107   55   56 1    
   108   55   59 1    
   109   55  111 1    
   110   56   57 am   BACKBONE|DICT|INTERRES
   111   56   58 2    
   112   57  112 1    
   113   57  113 1    
   114   59   60 1    
   115   59  114 1    
   116   59  115 1    
   117   60   61 1    
   118   61  116 1    
   119   61  117 1    
@<TRIPOS>SUBSTRUCTURE
     1 UNK         1 GROUP             0       ****    0 ROOT    
