@<TRIPOS>MOLECULE
3R8
117   119    1
SMALL
USER_CHARGES


@<TRIPOS>ATOM
      1 CA         14.8320  -24.0361  -46.9979 C.3       0 UNK        -0.2013 
      2 C          15.6816  -25.0616  -46.2616 C.2       0 UNK         0.4866 
      3 O          16.5485  -25.6862  -46.8725 O.2       0 UNK        -0.5176 
      4 N          15.4310  -25.2412  -44.9590 N.am      1 UNK        -0.4884 
      5 CA         16.1683  -26.1513  -44.0719 C.3       1 UNK         0.0853 
      6 C6         15.2772  -26.6516  -42.9056 C.3       10 UNK        -0.0849 
      7 S7         13.8467  -27.6017  -43.5254 S.3       10 UNK        -0.2776 
      8 C8         14.0953  -29.2351  -42.7442 C.3       10 UNK         0.0316 
      9 C9         15.2772  -30.0655  -43.2551 C.ar      10 UNK        -0.0863 
     10 C10        15.7189  -31.1301  -42.4640 C.ar      10 UNK        -0.1009 
     11 C11        16.7421  -31.9767  -42.8985 C.ar      10 UNK        -0.0712 
     12 C12        17.3611  -31.7304  -44.1278 C.ar      10 UNK        -0.0894 
     13 C13        16.9410  -30.6667  -44.9321 C.ar      10 UNK        -0.0745 
     14 C14        15.8880  -29.8511  -44.4988 C.ar      10 UNK        -0.0972 
     15 C15        17.5669  -30.4463  -46.3045 C.3       10 UNK         0.0209 
     16 S16        18.4328  -28.8496  -46.4372 S.3       10 UNK        -0.2568 
     17 C17        20.1489  -29.2773  -45.9828 C.3       10 UNK        -0.0983 
     18 CA         20.9146  -28.0318  -45.4706 C.3       3 UNK         0.0876 
     19 N          20.3291  -27.5413  -44.2226 N.am      3 UNK        -0.4424 
     20 C          20.5085  -26.3335  -43.6758 C.2       2 UNK         0.4918 
     21 O          21.2342  -25.4559  -44.1457 O.2       2 UNK        -0.4875 
     22 CA         19.6546  -26.0771  -42.4214 C.3       2 UNK         0.0481 
     23 CB         19.9326  -24.7181  -41.7438 C.3       2 UNK        -0.1831 
     24 N          18.2348  -26.2686  -42.7534 N.am      2 UNK        -0.4498 
     25 C          17.4935  -25.5198  -43.5875 C.2       1 UNK         0.5027 
     26 O          17.8323  -24.4041  -43.9914 O.2       1 UNK        -0.4969 
     27 C          22.4348  -28.2850  -45.3644 C.2       3 UNK         0.5005 
     28 O          23.1097  -28.3199  -46.3951 O.2       3 UNK        -0.5279 
     29 N          22.9541  -28.4145  -44.1387 N.am      4 UNK        -0.4463 
     30 CA         24.3744  -28.4158  -43.8037 C.3       4 UNK         0.0283 
     31 CB         24.8437  -29.8610  -43.5782 C.3       4 UNK        -0.1875 
     32 C          24.5878  -27.5583  -42.5484 C.2       4 UNK         0.4949 
     33 O          23.6162  -27.1391  -41.9157 O.2       4 UNK        -0.5039 
     34 N          25.8610  -27.3163  -42.2124 N.am      5 UNK        -0.4663 
     35 CA         26.2890  -26.5832  -41.0194 C.3       5 UNK         0.0242 
     36 CB         27.6992  -26.0064  -41.2611 C.3       5 UNK        -0.1982 
     37 C          26.1892  -27.4752  -39.7673 C.2       5 UNK         0.5017 
     38 O          25.0901  -27.6686  -39.2485 O.2       5 UNK        -0.5012 
     39 N          27.3245  -28.0211  -39.3071 N.am      6 UNK        -0.4439 
     40 CA         27.4307  -28.8637  -38.1082 C.3       6 UNK         0.0297 
     41 CB         28.9122  -29.1588  -37.8235 C.3       6 UNK        -0.2006 
     42 C          26.6261  -30.1756  -38.1805 C.2       6 UNK         0.4892 
     43 O          26.1793  -30.6656  -37.1431 O.2       6 UNK        -0.5089 
     44 N          26.4454  -30.7084  -39.3969 N.am      7 UNK        -0.4243 
     45 CA         25.6414  -31.9020  -39.6702 C.3       7 UNK         0.0196 
     46 CB         26.1396  -32.5538  -40.9713 C.3       7 UNK        -0.2007 
     47 C          24.1282  -31.6219  -39.7468 C.2       7 UNK         0.5020 
     48 O          23.3566  -32.5815  -39.7625 O.2       7 UNK        -0.5147 
     49 N          23.7280  -30.3414  -39.8184 N.am      8 UNK        -0.4734 
     50 CA         22.3648  -29.7957  -39.9229 C.3       8 UNK         0.0238 
     51 CB         21.5338  -30.1147  -38.6648 C.3       8 UNK        -0.1912 
     52 C          21.6071  -30.1848  -41.2054 C.2       8 UNK         0.5038 
     53 O          21.1919  -29.3001  -41.9531 O.2       8 UNK        -0.5046 
     54 N          21.4380  -31.4885  -41.4318 N.am      9 UNK        -0.4200 
     55 CA         20.7722  -32.0743  -42.6023 C.3       9 UNK         0.0839 
     56 C          21.7592  -32.4432  -43.7411 C.2       9 UNK         0.5513 
     57 N          23.0355  -32.6740  -43.4581 N.am      9 UNK        -0.7519 
     58 O          21.3555  -32.5276  -44.8971 O.2       9 UNK        -0.4960 
     59 C59        19.9363  -33.3148  -42.2047 C.3       10 UNK        -0.0876 
     60 S60        18.5932  -32.9073  -41.0379 S.3       10 UNK        -0.2414 
     61 C61        17.1189  -33.1930  -42.0632 C.3       10 UNK         0.0169 
     62 H62        14.3023  -24.5110  -47.8234 H         1 UNK         0.0903 
     63 H63        15.4653  -23.2492  -47.4066 H         1 UNK         0.0903 
     64 H64        14.0937  -23.5720  -46.3441 H         1 UNK         0.0903 
     65 H65        14.7161  -24.6854  -44.5119 H         1 UNK         0.3096 
     66 H66        16.4691  -27.0199  -44.6605 H         1 UNK         0.1121 
     67 H67        14.9098  -25.8113  -42.3135 H         1 UNK         0.0849 
     68 H68        15.8372  -27.2844  -42.2157 H         1 UNK         0.0849 
     69 H69        14.1856  -29.0890  -41.6664 H         1 UNK         0.0865 
     70 H70        13.1865  -29.8194  -42.8942 H         1 UNK         0.0865 
     71 H71        15.2366  -31.3253  -41.5154 H         1 UNK         0.1346 
     72 H72        18.1475  -32.3864  -44.4743 H         1 UNK         0.1412 
     73 H73        15.5376  -29.0638  -45.1506 H         1 UNK         0.1426 
     74 H74        18.2517  -31.2557  -46.5632 H         1 UNK         0.0716 
     75 H75        16.7743  -30.4707  -47.0537 H         1 UNK         0.0716 
     76 H76        20.6328  -29.6993  -46.8658 H         1 UNK         0.0695 
     77 H77        20.1410  -30.0631  -45.2258 H         1 UNK         0.0695 
     78 H78        20.7998  -27.2384  -46.2128 H         1 UNK         0.0983 
     79 H79        19.7451  -28.2028  -43.7325 H         1 UNK         0.3095 
     80 H80        19.9112  -26.8541  -41.6996 H         1 UNK         0.0454 
     81 H81        19.2841  -24.5638  -40.8819 H         1 UNK         0.0851 
     82 H82        19.7955  -23.8775  -42.4237 H         1 UNK         0.0851 
     83 H83        20.9628  -24.6744  -41.3884 H         1 UNK         0.0851 
     84 H84        17.8495  -27.1534  -42.4543 H         1 UNK         0.2976 
     85 H85        22.3302  -28.3560  -43.3368 H         1 UNK         0.3116 
     86 H86        24.9503  -27.9674  -44.6160 H         1 UNK         0.0646 
     87 H87        24.6483  -30.4791  -44.4545 H         1 UNK         0.0847 
     88 H88        25.9158  -29.9067  -43.3862 H         1 UNK         0.0847 
     89 H89        24.3357  -30.3136  -42.7275 H         1 UNK         0.0847 
     90 H90        26.5943  -27.6988  -42.7924 H         1 UNK         0.3040 
     91 H91        25.6100  -25.7421  -40.8593 H         1 UNK         0.1015 
     92 H92        28.4265  -26.7758  -41.5230 H         1 UNK         0.0786 
     93 H93        28.0682  -25.4823  -40.3780 H         1 UNK         0.0786 
     94 H94        27.6861  -25.2809  -42.0750 H         1 UNK         0.0786 
     95 H95        28.1850  -27.8106  -39.7924 H         1 UNK         0.3172 
     96 H96        27.0330  -28.2880  -37.2696 H         1 UNK         0.0595 
     97 H97        29.3805  -29.7085  -38.6410 H         1 UNK         0.0839 
     98 H98        29.0232  -29.7621  -36.9211 H         1 UNK         0.0839 
     99 H99        29.4786  -28.2406  -37.6662 H         1 UNK         0.0839 
    100 H100       26.8639  -30.2436  -40.1894 H         1 UNK         0.2998 
    101 H101       25.7910  -32.6181  -38.8590 H         1 UNK         0.0822 
    102 H102       27.1896  -32.8368  -40.8937 H         1 UNK         0.0787 
    103 H103       25.5796  -33.4631  -41.1944 H         1 UNK         0.0787 
    104 H104       26.0360  -31.8885  -41.8276 H         1 UNK         0.0787 
    105 H105       24.4456  -29.6267  -39.7666 H         1 UNK         0.3055 
    106 H106       22.4882  -28.7115  -39.9603 H         1 UNK         0.1106 
    107 H107       22.0199  -29.7359  -37.7658 H         1 UNK         0.0828 
    108 H108       20.5491  -29.6489  -38.7214 H         1 UNK         0.0828 
    109 H109       21.3773  -31.1858  -38.5341 H         1 UNK         0.0828 
    110 H110       21.8737  -32.1335  -40.7782 H         1 UNK         0.2931 
    111 H111       20.0842  -31.3361  -43.0188 H         1 UNK         0.0412 
    112 H112       23.6647  -32.9247  -44.2039 H         1 UNK         0.3472 
    113 H113       23.3623  -32.6427  -42.5066 H         1 UNK         0.3472 
    114 H114       19.5172  -33.7981  -43.0887 H         1 UNK         0.0970 
    115 H115       20.5745  -34.0660  -41.7355 H         1 UNK         0.0970 
    116 H116       17.2640  -34.0626  -42.7056 H         1 UNK         0.0612 
    117 H117       16.2933  -33.4552  -41.3997 H         1 UNK         0.0612 
@<TRIPOS>BOND
     1    1    2 1    
     2    1   62 1    
     3    1   63 1    
     4    1   64 1    
     5    2    3 2    
     6    2    4 am   BACKBONE|DICT|INTERRES
     7    4    5 1    
     8    4   65 1    
     9    5    6 1    
    10    5   25 1    
    11    5   66 1    
    12    6    7 1    
    13    6   67 1    
    14    6   68 1    
    15    7    8 1    
    16    8    9 1    
    17    8   69 1    
    18    8   70 1    
    19    9   10 ar   
    20    9   14 ar   
    21   10   11 ar   
    22   10   71 1    
    23   11   12 ar   
    24   11   61 1    
    25   12   13 ar   
    26   12   72 1    
    27   13   14 ar   
    28   13   15 1    
    29   14   73 1    
    30   15   16 1    
    31   15   74 1    
    32   15   75 1    
    33   16   17 1    
    34   17   18 1    
    35   17   76 1    
    36   17   77 1    
    37   18   19 1    
    38   18   27 1    
    39   18   78 1    
    40   19   20 am   BACKBONE|DICT|INTERRES
    41   19   79 1    
    42   20   21 2    
    43   20   22 1    
    44   22   23 1    
    45   22   24 1    
    46   22   80 1    
    47   23   81 1    
    48   23   82 1    
    49   23   83 1    
    50   24   25 am   BACKBONE|DICT|INTERRES
    51   24   84 1    
    52   25   26 2    
    53   27   28 2    
    54   27   29 am   BACKBONE|DICT|INTERRES
    55   29   30 1    
    56   29   85 1    
    57   30   31 1    
    58   30   32 1    
    59   30   86 1    
    60   31   87 1    
    61   31   88 1    
    62   31   89 1    
    63   32   33 2    
    64   32   34 am   BACKBONE|DICT|INTERRES
    65   34   35 1    
    66   34   90 1    
    67   35   36 1    
    68   35   37 1    
    69   35   91 1    
    70   36   92 1    
    71   36   93 1    
    72   36   94 1    
    73   37   38 2    
    74   37   39 am   BACKBONE|DICT|INTERRES
    75   39   40 1    
    76   39   95 1    
    77   40   41 1    
    78   40   42 1    
    79   40   96 1    
    80   41   97 1    
    81   41   98 1    
    82   41   99 1    
    83   42   43 2    
    84   42   44 am   BACKBONE|DICT|INTERRES
    85   44   45 1    
    86   44  100 1    
    87   45   46 1    
    88   45   47 1    
    89   45  101 1    
    90   46  102 1    
    91   46  103 1    
    92   46  104 1    
    93   47   48 2    
    94   47   49 am   BACKBONE|DICT|INTERRES
    95   49   50 1    
    96   49  105 1    
    97   50   51 1    
    98   50   52 1    
    99   50  106 1    
   100   51  107 1    
   101   51  108 1    
   102   51  109 1    
   103   52   53 2    
   104   52   54 am   BACKBONE|DICT|INTERRES
   105   54   55 1    
   106   54  110 1    
   107   55   56 1    
   108   55   59 1    
   109   55  111 1    
   110   56   57 am   BACKBONE|DICT|INTERRES
   111   56   58 2    
   112   57  112 1    
   113   57  113 1    
   114   59   60 1    
   115   59  114 1    
   116   59  115 1    
   117   60   61 1    
   118   61  116 1    
   119   61  117 1    
@<TRIPOS>SUBSTRUCTURE
     1 UNK         1 GROUP             0       ****    0 ROOT    
