@<TRIPOS>MOLECULE
3R8
117   119    1
SMALL
USER_CHARGES


@<TRIPOS>ATOM
      1 CA         12.4817  -28.6671  -42.2462 C.3       0 UNK        -0.2013 
      2 C          13.3745  -27.6419  -42.9294 C.2       0 UNK         0.4866 
      3 O          12.9992  -26.4731  -43.0299 O.2       0 UNK        -0.5176 
      4 N          14.5483  -28.0715  -43.4078 N.am      1 UNK        -0.4884 
      5 CA         15.5550  -27.2160  -44.0445 C.3       1 UNK         0.0853 
      6 C6         16.6224  -28.0502  -44.7872 C.3       10 UNK        -0.0849 
      7 S7         15.9542  -28.8740  -46.2742 S.3       10 UNK        -0.2776 
      8 C8         16.9772  -30.3883  -46.3848 C.3       10 UNK         0.0316 
      9 C9         18.4659  -30.1560  -46.1318 C.ar      10 UNK        -0.0863 
     10 C10        19.1800  -31.0524  -45.3327 C.ar      10 UNK        -0.1009 
     11 C11        20.5275  -30.8272  -45.0366 C.ar      10 UNK        -0.0712 
     12 C12        21.1583  -29.6788  -45.5283 C.ar      10 UNK        -0.0894 
     13 C13        20.4575  -28.7724  -46.3306 C.ar      10 UNK        -0.0745 
     14 C14        19.1267  -29.0443  -46.6638 C.ar      10 UNK        -0.0972 
     15 C15        21.1309  -27.5014  -46.8369 C.3       10 UNK         0.0209 
     16 S16        20.1118  -26.0134  -46.5291 S.3       10 UNK        -0.2568 
     17 C17        21.1534  -25.0029  -45.4195 C.3       10 UNK        -0.0983 
     18 CA         20.7336  -25.0113  -43.9242 C.3       3 UNK         0.0876 
     19 N          19.3034  -24.7514  -43.7423 N.am      3 UNK        -0.4424 
     20 C          18.7571  -24.2205  -42.6403 C.2       2 UNK         0.4918 
     21 O          19.4101  -23.8432  -41.6665 O.2       2 UNK        -0.4875 
     22 CA         17.2273  -24.0505  -42.6238 C.3       2 UNK         0.0481 
     23 CB         16.8435  -22.6452  -43.1151 C.3       2 UNK        -0.1831 
     24 N          16.5310  -25.0526  -43.4353 N.am      2 UNK        -0.4498 
     25 C          16.2343  -26.2902  -43.0143 C.2       1 UNK         0.5027 
     26 O          16.4951  -26.7149  -41.8857 O.2       1 UNK        -0.4969 
     27 C          21.1780  -26.2963  -43.1966 C.2       3 UNK         0.5005 
     28 O          20.3568  -27.1715  -42.9146 O.2       3 UNK        -0.5279 
     29 N          22.4845  -26.3671  -42.9213 N.am      4 UNK        -0.4463 
     30 CA         23.1864  -27.5059  -42.3331 C.3       4 UNK         0.0283 
     31 CB         23.9098  -27.0254  -41.0621 C.3       4 UNK        -0.1875 
     32 C          24.1889  -28.0641  -43.3565 C.2       4 UNK         0.4949 
     33 O          24.4082  -27.4491  -44.4042 O.2       4 UNK        -0.5039 
     34 N          24.7940  -29.2090  -43.0315 N.am      5 UNK        -0.4663 
     35 CA         25.8143  -29.8747  -43.8395 C.3       5 UNK         0.0242 
     36 CB         25.1446  -30.9156  -44.7631 C.3       5 UNK        -0.1982 
     37 C          26.8797  -30.4445  -42.8911 C.2       5 UNK         0.5017 
     38 O          27.4171  -29.6940  -42.0746 O.2       5 UNK        -0.5012 
     39 N          27.1545  -31.7538  -42.9850 N.am      6 UNK        -0.4439 
     40 CA         28.0167  -32.4985  -42.0572 C.3       6 UNK         0.0297 
     41 CB         28.3543  -33.8671  -42.6710 C.3       6 UNK        -0.2006 
     42 C          27.3916  -32.6744  -40.6575 C.2       6 UNK         0.4892 
     43 O          28.1175  -32.9413  -39.6990 O.2       6 UNK        -0.5089 
     44 N          26.0674  -32.5120  -40.5725 N.am      7 UNK        -0.4243 
     45 CA         25.2717  -32.4373  -39.3537 C.3       7 UNK         0.0196 
     46 CB         24.3704  -33.6828  -39.2754 C.3       7 UNK        -0.2007 
     47 C          24.4330  -31.1517  -39.4089 C.2       7 UNK         0.5020 
     48 O          24.4117  -30.4703  -40.4377 O.2       7 UNK        -0.5147 
     49 N          23.7331  -30.8526  -38.3073 N.am      8 UNK        -0.4734 
     50 CA         22.8360  -29.6963  -38.1808 C.3       8 UNK         0.0238 
     51 CB         22.4555  -29.5141  -36.7020 C.3       8 UNK        -0.1912 
     52 C          21.5696  -29.7795  -39.0563 C.2       8 UNK         0.5038 
     53 O          20.9606  -28.7424  -39.3165 O.2       8 UNK        -0.5046 
     54 N          21.2022  -30.9982  -39.4789 N.am      9 UNK        -0.4200 
     55 CA         20.0809  -31.3192  -40.3819 C.3       9 UNK         0.0839 
     56 C          18.6624  -31.0821  -39.7793 C.2       9 UNK         0.5513 
     57 N          18.5199  -30.9003  -38.4717 N.am      9 UNK        -0.7519 
     58 O          17.6671  -31.1060  -40.4988 O.2       9 UNK        -0.4960 
     59 C59        20.2406  -30.6925  -41.7973 C.3       10 UNK        -0.0876 
     60 S60        21.8262  -31.1332  -42.5926 S.3       10 UNK        -0.2414 
     61 C61        21.2943  -31.8305  -44.1853 C.3       10 UNK         0.0169 
     62 H62        12.9325  -29.6593  -42.2369 H         1 UNK         0.0903 
     63 H63        12.2926  -28.3712  -41.2146 H         1 UNK         0.0903 
     64 H64        11.5245  -28.7347  -42.7625 H         1 UNK         0.0903 
     65 H65        14.8130  -29.0383  -43.2855 H         1 UNK         0.3096 
     66 H66        15.0400  -26.5858  -44.7736 H         1 UNK         0.1121 
     67 H67        17.0624  -28.7905  -44.1154 H         1 UNK         0.0849 
     68 H68        17.4474  -27.4145  -45.1155 H         1 UNK         0.0849 
     69 H69        16.5816  -31.1135  -45.6718 H         1 UNK         0.0865 
     70 H70        16.8509  -30.8298  -47.3741 H         1 UNK         0.0865 
     71 H71        18.6835  -31.9253  -44.9312 H         1 UNK         0.1346 
     72 H72        22.1914  -29.4883  -45.2734 H         1 UNK         0.1412 
     73 H73        18.5846  -28.3526  -47.2938 H         1 UNK         0.1426 
     74 H74        21.2956  -27.5969  -47.9107 H         1 UNK         0.0716 
     75 H75        22.1167  -27.3857  -46.3842 H         1 UNK         0.0716 
     76 H76        21.0882  -23.9781  -45.7882 H         1 UNK         0.0695 
     77 H77        22.2038  -25.2739  -45.5388 H         1 UNK         0.0695 
     78 H78        21.2708  -24.1889  -43.4450 H         1 UNK         0.0983 
     79 H79        18.7041  -25.0757  -44.4854 H         1 UNK         0.3095 
     80 H80        16.8951  -24.1422  -41.5873 H         1 UNK         0.0454 
     81 H81        17.1437  -22.4800  -44.1506 H         1 UNK         0.0851 
     82 H82        17.3260  -21.8760  -42.5104 H         1 UNK         0.0851 
     83 H83        15.7681  -22.4804  -43.0460 H         1 UNK         0.0851 
     84 H84        16.2715  -24.7755  -44.3717 H         1 UNK         0.2976 
     85 H85        23.0898  -25.6378  -43.2725 H         1 UNK         0.3116 
     86 H86        22.4851  -28.2987  -42.0669 H         1 UNK         0.0646 
     87 H87        23.1988  -26.6532  -40.3242 H         1 UNK         0.0847 
     88 H88        24.6207  -26.2269  -41.2777 H         1 UNK         0.0847 
     89 H89        24.4671  -27.8344  -40.5903 H         1 UNK         0.0847 
     90 H90        24.6029  -29.6298  -42.1220 H         1 UNK         0.3040 
     91 H91        26.3299  -29.1409  -44.4632 H         1 UNK         0.1015 
     92 H92        24.6095  -31.6788  -44.1968 H         1 UNK         0.0786 
     93 H93        25.8754  -31.4134  -45.4018 H         1 UNK         0.0786 
     94 H94        24.4247  -30.4381  -45.4276 H         1 UNK         0.0786 
     95 H95        26.6801  -32.2919  -43.6963 H         1 UNK         0.3172 
     96 H96        28.9471  -31.9403  -41.9330 H         1 UNK         0.0595 
     97 H97        27.4609  -34.4738  -42.8250 H         1 UNK         0.0839 
     98 H98        29.0219  -34.4323  -42.0189 H         1 UNK         0.0839 
     99 H99        28.8590  -33.7594  -43.6313 H         1 UNK         0.0839 
    100 H100       25.5782  -32.2093  -41.4032 H         1 UNK         0.2998 
    101 H101       25.9178  -32.3893  -38.4745 H         1 UNK         0.0822 
    102 H102       24.9628  -34.5979  -39.2924 H         1 UNK         0.0787 
    103 H103       23.7877  -33.6964  -38.3538 H         1 UNK         0.0787 
    104 H104       23.6684  -33.7257  -40.1096 H         1 UNK         0.0787 
    105 H105       23.8089  -31.4582  -37.5019 H         1 UNK         0.3055 
    106 H106       23.3851  -28.8090  -38.5035 H         1 UNK         0.1106 
    107 H107       21.9205  -30.3804  -36.3112 H         1 UNK         0.0828 
    108 H108       21.8090  -28.6452  -36.5692 H         1 UNK         0.0828 
    109 H109       23.3375  -29.3545  -36.0815 H         1 UNK         0.0828 
    110 H110       21.7672  -31.7827  -39.1924 H         1 UNK         0.2931 
    111 H111       20.1346  -32.4005  -40.5131 H         1 UNK         0.0412 
    112 H112       17.5974  -30.7622  -38.0899 H         1 UNK         0.3472 
    113 H113       19.3252  -30.8880  -37.8672 H         1 UNK         0.3472 
    114 H114       20.1707  -29.6049  -41.7476 H         1 UNK         0.0970 
    115 H115       19.4214  -31.0112  -42.4427 H         1 UNK         0.0970 
    116 H116       20.6968  -32.7237  -43.9965 H         1 UNK         0.0612 
    117 H117       22.1754  -32.1620  -44.7356 H         1 UNK         0.0612 
@<TRIPOS>BOND
     1    1    2 1    
     2    1   62 1    
     3    1   63 1    
     4    1   64 1    
     5    2    3 2    
     6    2    4 am   BACKBONE|DICT|INTERRES
     7    4    5 1    
     8    4   65 1    
     9    5    6 1    
    10    5   25 1    
    11    5   66 1    
    12    6    7 1    
    13    6   67 1    
    14    6   68 1    
    15    7    8 1    
    16    8    9 1    
    17    8   69 1    
    18    8   70 1    
    19    9   10 ar   
    20    9   14 ar   
    21   10   11 ar   
    22   10   71 1    
    23   11   12 ar   
    24   11   61 1    
    25   12   13 ar   
    26   12   72 1    
    27   13   14 ar   
    28   13   15 1    
    29   14   73 1    
    30   15   16 1    
    31   15   74 1    
    32   15   75 1    
    33   16   17 1    
    34   17   18 1    
    35   17   76 1    
    36   17   77 1    
    37   18   19 1    
    38   18   27 1    
    39   18   78 1    
    40   19   20 am   BACKBONE|DICT|INTERRES
    41   19   79 1    
    42   20   21 2    
    43   20   22 1    
    44   22   23 1    
    45   22   24 1    
    46   22   80 1    
    47   23   81 1    
    48   23   82 1    
    49   23   83 1    
    50   24   25 am   BACKBONE|DICT|INTERRES
    51   24   84 1    
    52   25   26 2    
    53   27   28 2    
    54   27   29 am   BACKBONE|DICT|INTERRES
    55   29   30 1    
    56   29   85 1    
    57   30   31 1    
    58   30   32 1    
    59   30   86 1    
    60   31   87 1    
    61   31   88 1    
    62   31   89 1    
    63   32   33 2    
    64   32   34 am   BACKBONE|DICT|INTERRES
    65   34   35 1    
    66   34   90 1    
    67   35   36 1    
    68   35   37 1    
    69   35   91 1    
    70   36   92 1    
    71   36   93 1    
    72   36   94 1    
    73   37   38 2    
    74   37   39 am   BACKBONE|DICT|INTERRES
    75   39   40 1    
    76   39   95 1    
    77   40   41 1    
    78   40   42 1    
    79   40   96 1    
    80   41   97 1    
    81   41   98 1    
    82   41   99 1    
    83   42   43 2    
    84   42   44 am   BACKBONE|DICT|INTERRES
    85   44   45 1    
    86   44  100 1    
    87   45   46 1    
    88   45   47 1    
    89   45  101 1    
    90   46  102 1    
    91   46  103 1    
    92   46  104 1    
    93   47   48 2    
    94   47   49 am   BACKBONE|DICT|INTERRES
    95   49   50 1    
    96   49  105 1    
    97   50   51 1    
    98   50   52 1    
    99   50  106 1    
   100   51  107 1    
   101   51  108 1    
   102   51  109 1    
   103   52   53 2    
   104   52   54 am   BACKBONE|DICT|INTERRES
   105   54   55 1    
   106   54  110 1    
   107   55   56 1    
   108   55   59 1    
   109   55  111 1    
   110   56   57 am   BACKBONE|DICT|INTERRES
   111   56   58 2    
   112   57  112 1    
   113   57  113 1    
   114   59   60 1    
   115   59  114 1    
   116   59  115 1    
   117   60   61 1    
   118   61  116 1    
   119   61  117 1    
@<TRIPOS>SUBSTRUCTURE
     1 UNK         1 GROUP             0       ****    0 ROOT    
