@<TRIPOS>MOLECULE
3R8
117   119    1
SMALL
USER_CHARGES


@<TRIPOS>ATOM
      1 CA         17.0835  -22.3797  -41.4093 C.3       0 UNK        -0.2013 
      2 C          17.0538  -23.2581  -42.6511 C.2       0 UNK         0.4866 
      3 O          17.7448  -22.9623  -43.6259 O.2       0 UNK        -0.5176 
      4 N          16.2544  -24.3333  -42.6250 N.am      1 UNK        -0.4884 
      5 CA         16.1222  -25.3042  -43.7197 C.3       1 UNK         0.0853 
      6 C6         14.8771  -26.2054  -43.5136 C.3       10 UNK        -0.0849 
      7 S7         14.3197  -27.0248  -45.0465 S.3       10 UNK        -0.2776 
      8 C8         14.3544  -28.7922  -44.5855 C.3       10 UNK         0.0316 
      9 C9         15.7343  -29.4380  -44.6938 C.ar      10 UNK        -0.0863 
     10 C10        16.2752  -30.1389  -43.6103 C.ar      10 UNK        -0.1009 
     11 C11        17.4862  -30.8331  -43.7281 C.ar      10 UNK        -0.0712 
     12 C12        18.1663  -30.8001  -44.9551 C.ar      10 UNK        -0.0894 
     13 C13        17.6496  -30.0878  -46.0409 C.ar      10 UNK        -0.0745 
     14 C14        16.4324  -29.4145  -45.9047 C.ar      10 UNK        -0.0972 
     15 C15        18.3704  -30.0900  -47.3825 C.3       10 UNK         0.0209 
     16 S16        19.4416  -28.6323  -47.5997 S.3       10 UNK        -0.2568 
     17 C17        20.9881  -29.1452  -46.7760 C.3       10 UNK        -0.0983 
     18 CA         21.4071  -28.1842  -45.6322 C.3       3 UNK         0.0876 
     19 N          20.3886  -28.1666  -44.5835 N.am      3 UNK        -0.4424 
     20 C          20.2833  -27.2794  -43.5908 C.2       2 UNK         0.4918 
     21 O          21.0453  -26.3272  -43.4143 O.2       2 UNK        -0.4875 
     22 CA         19.0932  -27.5061  -42.6413 C.3       2 UNK         0.0481 
     23 CB         19.5442  -27.5694  -41.1760 C.3       2 UNK        -0.1831 
     24 N          18.0204  -26.5211  -42.7714 N.am      2 UNK        -0.4498 
     25 C          17.3931  -26.1582  -43.9015 C.2       1 UNK         0.5027 
     26 O          17.7479  -26.4760  -45.0358 O.2       1 UNK        -0.4969 
     27 C          22.8049  -28.5696  -45.0970 C.2       3 UNK         0.5005 
     28 O          22.9340  -29.0781  -43.9796 O.2       3 UNK        -0.5279 
     29 N          23.8225  -28.3752  -45.9504 N.am      4 UNK        -0.4463 
     30 CA         25.2068  -28.8381  -45.8015 C.3       4 UNK         0.0283 
     31 CB         25.2722  -30.3724  -45.9893 C.3       4 UNK        -0.1875 
     32 C          25.8636  -28.3372  -44.5014 C.2       4 UNK         0.4949 
     33 O          26.1017  -27.1360  -44.3736 O.2       4 UNK        -0.5039 
     34 N          26.1442  -29.2564  -43.5684 N.am      5 UNK        -0.4663 
     35 CA         26.7657  -28.9835  -42.2708 C.3       5 UNK         0.0242 
     36 CB         27.2836  -30.3079  -41.6849 C.3       5 UNK        -0.1982 
     37 C          25.8372  -28.2838  -41.2622 C.2       5 UNK         0.5017 
     38 O          26.3280  -27.8374  -40.2245 O.2       5 UNK        -0.5012 
     39 N          24.5270  -28.2288  -41.5492 N.am      6 UNK        -0.4439 
     40 CA         23.4339  -27.6577  -40.7502 C.3       6 UNK         0.0297 
     41 CB         23.6285  -26.1516  -40.4965 C.3       6 UNK        -0.2006 
     42 C          23.1287  -28.4134  -39.4437 C.2       6 UNK         0.4892 
     43 O          21.9555  -28.6548  -39.1623 O.2       6 UNK        -0.5089 
     44 N          24.1613  -28.8153  -38.6911 N.am      7 UNK        -0.4243 
     45 CA         24.0830  -29.6631  -37.4979 C.3       7 UNK         0.0196 
     46 CB         25.4856  -29.7857  -36.8781 C.3       7 UNK        -0.2007 
     47 C          23.4977  -31.0410  -37.8520 C.2       7 UNK         0.5020 
     48 O          24.2079  -31.8768  -38.4147 O.2       7 UNK        -0.5147 
     49 N          22.1864  -31.2024  -37.6117 N.am      8 UNK        -0.4734 
     50 CA         21.3309  -32.3151  -38.0597 C.3       8 UNK         0.0238 
     51 CB         21.6736  -33.6038  -37.2821 C.3       8 UNK        -0.1912 
     52 C          21.3594  -32.5191  -39.5924 C.2       8 UNK         0.5038 
     53 O          21.2285  -33.6521  -40.0576 O.2       8 UNK        -0.5046 
     54 N          21.5841  -31.4160  -40.3244 N.am      9 UNK        -0.4200 
     55 CA         21.9655  -31.3340  -41.7446 C.3       9 UNK         0.0839 
     56 C          23.1208  -32.2731  -42.2117 C.2       9 UNK         0.5513 
     57 N          24.0538  -32.6394  -41.3392 N.am      9 UNK        -0.7519 
     58 O          23.2026  -32.6481  -43.3783 O.2       9 UNK        -0.4960 
     59 C59        20.7702  -31.1993  -42.7304 C.3       10 UNK        -0.0876 
     60 S60        19.5462  -32.5507  -42.7210 S.3       10 UNK        -0.2414 
     61 C61        17.9863  -31.6187  -42.5085 C.3       10 UNK         0.0169 
     62 H62        16.4204  -22.7519  -40.6286 H         1 UNK         0.0903 
     63 H63        18.0942  -22.3378  -41.0040 H         1 UNK         0.0903 
     64 H64        16.7750  -21.3651  -41.6602 H         1 UNK         0.0903 
     65 H65        15.6958  -24.5133  -41.8021 H         1 UNK         0.3096 
     66 H66        15.9837  -24.7332  -44.6413 H         1 UNK         0.1121 
     67 H67        15.0502  -26.9433  -42.7275 H         1 UNK         0.0849 
     68 H68        14.0377  -25.5997  -43.1681 H         1 UNK         0.0849 
     69 H69        13.9389  -28.9140  -43.5840 H         1 UNK         0.0865 
     70 H70        13.6795  -29.3297  -45.2530 H         1 UNK         0.0865 
     71 H71        15.7339  -30.1744  -42.6744 H         1 UNK         0.1346 
     72 H72        19.0897  -31.3435  -45.0888 H         1 UNK         0.1412 
     73 H73        16.0184  -28.8811  -46.7497 H         1 UNK         0.1426 
     74 H74        17.6326  -30.0950  -48.1862 H         1 UNK         0.0716 
     75 H75        18.9518  -31.0044  -47.5099 H         1 UNK         0.0716 
     76 H76        21.7538  -29.1861  -47.5528 H         1 UNK         0.0695 
     77 H77        20.8911  -30.1654  -46.4005 H         1 UNK         0.0695 
     78 H78        21.4806  -27.1705  -46.0323 H         1 UNK         0.0983 
     79 H79        19.6592  -28.8572  -44.6827 H         1 UNK         0.3095 
     80 H80        18.6437  -28.4698  -42.8793 H         1 UNK         0.0454 
     81 H81        20.2571  -28.3796  -41.0365 H         1 UNK         0.0851 
     82 H82        18.7088  -27.7651  -40.5039 H         1 UNK         0.0851 
     83 H83        20.0278  -26.6454  -40.8562 H         1 UNK         0.0851 
     84 H84        17.6611  -26.1433  -41.9076 H         1 UNK         0.2976 
     85 H85        23.6239  -27.9051  -46.8230 H         1 UNK         0.3116 
     86 H86        25.7736  -28.3864  -46.6172 H         1 UNK         0.0646 
     87 H87        24.6778  -30.9085  -45.2479 H         1 UNK         0.0847 
     88 H88        26.2983  -30.7371  -45.9241 H         1 UNK         0.0847 
     89 H89        24.8984  -30.6596  -46.9721 H         1 UNK         0.0847 
     90 H90        25.8881  -30.2155  -43.7549 H         1 UNK         0.3040 
     91 H91        27.6189  -28.3208  -42.4327 H         1 UNK         0.1015 
     92 H92        26.4708  -31.0095  -41.4937 H         1 UNK         0.0786 
     93 H93        27.7988  -30.1428  -40.7374 H         1 UNK         0.0786 
     94 H94        27.9944  -30.7898  -42.3565 H         1 UNK         0.0786 
     95 H95        24.2289  -28.6338  -42.4330 H         1 UNK         0.3172 
     96 H96        22.5508  -27.7610  -41.3811 H         1 UNK         0.0595 
     97 H97        24.4914  -25.9479  -39.8620 H         1 UNK         0.0839 
     98 H98        22.7546  -25.7276  -40.0001 H         1 UNK         0.0839 
     99 H99        23.7623  -25.6092  -41.4326 H         1 UNK         0.0839 
    100 H100       25.0902  -28.5662  -39.0205 H         1 UNK         0.2998 
    101 H101       23.4302  -29.1745  -36.7717 H         1 UNK         0.0822 
    102 H102       25.8679  -28.8130  -36.5679 H         1 UNK         0.0787 
    103 H103       25.4669  -30.4245  -35.9942 H         1 UNK         0.0787 
    104 H104       26.2017  -30.2177  -37.5788 H         1 UNK         0.0787 
    105 H105       21.6921  -30.4203  -37.2017 H         1 UNK         0.3055 
    106 H106       20.3038  -32.0403  -37.8133 H         1 UNK         0.1106 
    107 H107       20.9639  -34.4002  -37.5098 H         1 UNK         0.0828 
    108 H108       22.6683  -33.9740  -37.5325 H         1 UNK         0.0828 
    109 H109       21.6379  -33.4394  -36.2053 H         1 UNK         0.0828 
    110 H110       21.6605  -30.5419  -39.8154 H         1 UNK         0.2931 
    111 H111       22.4535  -30.3616  -41.7866 H         1 UNK         0.0412 
    112 H112       24.7968  -33.2460  -41.6460 H         1 UNK         0.3472 
    113 H113       24.0086  -32.3529  -40.3669 H         1 UNK         0.3472 
    114 H114       21.1359  -31.0816  -43.7514 H         1 UNK         0.0970 
    115 H115       20.2542  -30.2674  -42.5105 H         1 UNK         0.0970 
    116 H116       18.0945  -30.9396  -41.6613 H         1 UNK         0.0612 
    117 H117       17.2141  -32.3359  -42.2270 H         1 UNK         0.0612 
@<TRIPOS>BOND
     1    1    2 1    
     2    1   62 1    
     3    1   63 1    
     4    1   64 1    
     5    2    3 2    
     6    2    4 am   BACKBONE|DICT|INTERRES
     7    4    5 1    
     8    4   65 1    
     9    5    6 1    
    10    5   25 1    
    11    5   66 1    
    12    6    7 1    
    13    6   67 1    
    14    6   68 1    
    15    7    8 1    
    16    8    9 1    
    17    8   69 1    
    18    8   70 1    
    19    9   10 ar   
    20    9   14 ar   
    21   10   11 ar   
    22   10   71 1    
    23   11   12 ar   
    24   11   61 1    
    25   12   13 ar   
    26   12   72 1    
    27   13   14 ar   
    28   13   15 1    
    29   14   73 1    
    30   15   16 1    
    31   15   74 1    
    32   15   75 1    
    33   16   17 1    
    34   17   18 1    
    35   17   76 1    
    36   17   77 1    
    37   18   19 1    
    38   18   27 1    
    39   18   78 1    
    40   19   20 am   BACKBONE|DICT|INTERRES
    41   19   79 1    
    42   20   21 2    
    43   20   22 1    
    44   22   23 1    
    45   22   24 1    
    46   22   80 1    
    47   23   81 1    
    48   23   82 1    
    49   23   83 1    
    50   24   25 am   BACKBONE|DICT|INTERRES
    51   24   84 1    
    52   25   26 2    
    53   27   28 2    
    54   27   29 am   BACKBONE|DICT|INTERRES
    55   29   30 1    
    56   29   85 1    
    57   30   31 1    
    58   30   32 1    
    59   30   86 1    
    60   31   87 1    
    61   31   88 1    
    62   31   89 1    
    63   32   33 2    
    64   32   34 am   BACKBONE|DICT|INTERRES
    65   34   35 1    
    66   34   90 1    
    67   35   36 1    
    68   35   37 1    
    69   35   91 1    
    70   36   92 1    
    71   36   93 1    
    72   36   94 1    
    73   37   38 2    
    74   37   39 am   BACKBONE|DICT|INTERRES
    75   39   40 1    
    76   39   95 1    
    77   40   41 1    
    78   40   42 1    
    79   40   96 1    
    80   41   97 1    
    81   41   98 1    
    82   41   99 1    
    83   42   43 2    
    84   42   44 am   BACKBONE|DICT|INTERRES
    85   44   45 1    
    86   44  100 1    
    87   45   46 1    
    88   45   47 1    
    89   45  101 1    
    90   46  102 1    
    91   46  103 1    
    92   46  104 1    
    93   47   48 2    
    94   47   49 am   BACKBONE|DICT|INTERRES
    95   49   50 1    
    96   49  105 1    
    97   50   51 1    
    98   50   52 1    
    99   50  106 1    
   100   51  107 1    
   101   51  108 1    
   102   51  109 1    
   103   52   53 2    
   104   52   54 am   BACKBONE|DICT|INTERRES
   105   54   55 1    
   106   54  110 1    
   107   55   56 1    
   108   55   59 1    
   109   55  111 1    
   110   56   57 am   BACKBONE|DICT|INTERRES
   111   56   58 2    
   112   57  112 1    
   113   57  113 1    
   114   59   60 1    
   115   59  114 1    
   116   59  115 1    
   117   60   61 1    
   118   61  116 1    
   119   61  117 1    
@<TRIPOS>SUBSTRUCTURE
     1 UNK         1 GROUP             0       ****    0 ROOT    
