@<TRIPOS>MOLECULE
3R8
117   119    1
SMALL
USER_CHARGES


@<TRIPOS>ATOM
      1 CA         16.4390  -23.5835  -48.0755 C.3       0 UNK        -0.2013 
      2 C          17.1345  -24.5647  -47.1443 C.2       0 UNK         0.4866 
      3 O          16.7921  -24.6297  -45.9633 O.2       0 UNK        -0.5176 
      4 N          18.1187  -25.3121  -47.6649 N.am      1 UNK        -0.4884 
      5 CA         18.9231  -26.3634  -47.0134 C.3       1 UNK         0.0853 
      6 C6         18.0911  -27.5262  -46.4133 C.3       10 UNK        -0.0849 
      7 S7         16.9800  -28.3467  -47.6080 S.3       10 UNK        -0.2776 
      8 C8         17.2062  -30.1138  -47.1787 C.3       10 UNK         0.0316 
      9 C9         16.9915  -30.4774  -45.7050 C.ar      10 UNK        -0.0863 
     10 C10        17.5450  -31.6653  -45.2174 C.ar      10 UNK        -0.1009 
     11 C11        17.3980  -32.0300  -43.8751 C.ar      10 UNK        -0.0712 
     12 C12        16.7107  -31.1799  -43.0015 C.ar      10 UNK        -0.0894 
     13 C13        16.1394  -29.9944  -43.4745 C.ar      10 UNK        -0.0745 
     14 C14        16.2569  -29.6695  -44.8284 C.ar      10 UNK        -0.0972 
     15 C15        15.3542  -29.0761  -42.5474 C.3       10 UNK         0.0209 
     16 S16        16.0454  -27.3866  -42.4964 S.3       10 UNK        -0.2568 
     17 C17        17.2244  -27.4616  -41.1048 C.3       10 UNK        -0.0983 
     18 CA         18.7107  -27.3068  -41.5220 C.3       3 UNK         0.0876 
     19 N          18.9385  -26.1255  -42.3623 N.am      3 UNK        -0.4424 
     20 C          20.1177  -25.6837  -42.8244 C.2       2 UNK         0.4918 
     21 O          21.2062  -26.1966  -42.5588 O.2       2 UNK        -0.4875 
     22 CA         20.0326  -24.5008  -43.8067 C.3       2 UNK         0.0481 
     23 CB         21.3830  -23.7913  -44.0392 C.3       2 UNK        -0.1831 
     24 N          19.4269  -24.9434  -45.0666 N.am      2 UNK        -0.4498 
     25 C          19.9035  -25.8426  -45.9410 C.2       1 UNK         0.5027 
     26 O          21.0486  -26.2942  -45.9173 O.2       1 UNK        -0.4969 
     27 C          19.6116  -27.3079  -40.2676 C.2       3 UNK         0.5005 
     28 O          19.4566  -26.4397  -39.4055 O.2       3 UNK        -0.5279 
     29 N          20.5331  -28.2772  -40.2078 N.am      4 UNK        -0.4463 
     30 CA         21.5102  -28.5265  -39.1411 C.3       4 UNK         0.0283 
     31 CB         20.8117  -28.8326  -37.7991 C.3       4 UNK        -0.1875 
     32 C          22.6111  -27.4545  -39.0115 C.2       4 UNK         0.4949 
     33 O          23.2861  -27.4115  -37.9822 O.2       4 UNK        -0.5039 
     34 N          22.8263  -26.6434  -40.0589 N.am      5 UNK        -0.4663 
     35 CA         23.9622  -25.7153  -40.1548 C.3       5 UNK         0.0242 
     36 CB         23.5910  -24.5518  -41.0875 C.3       5 UNK        -0.1982 
     37 C          25.2529  -26.4048  -40.6421 C.2       5 UNK         0.5017 
     38 O          26.3139  -25.7793  -40.6232 O.2       5 UNK        -0.5012 
     39 N          25.1412  -27.6652  -41.0745 N.am      6 UNK        -0.4439 
     40 CA         26.2203  -28.5373  -41.5248 C.3       6 UNK         0.0297 
     41 CB         26.2545  -28.5370  -43.0649 C.3       6 UNK        -0.2006 
     42 C          25.9898  -29.9451  -40.9517 C.2       6 UNK         0.4892 
     43 O          25.0156  -30.1610  -40.2239 O.2       6 UNK        -0.5089 
     44 N          26.8979  -30.8731  -41.2846 N.am      7 UNK        -0.4243 
     45 CA         26.8690  -32.2806  -40.8733 C.3       7 UNK         0.0196 
     46 CB         28.1162  -32.9898  -41.4255 C.3       7 UNK        -0.2007 
     47 C          25.5942  -33.0146  -41.3262 C.2       7 UNK         0.5020 
     48 O          25.0582  -32.7105  -42.3968 O.2       7 UNK        -0.5147 
     49 N          25.1444  -33.9674  -40.4962 N.am      8 UNK        -0.4734 
     50 CA         23.8981  -34.7454  -40.5829 C.3       8 UNK         0.0238 
     51 CB         23.8486  -35.6214  -41.8527 C.3       8 UNK        -0.1912 
     52 C          22.6458  -33.8644  -40.4327 C.2       8 UNK         0.5038 
     53 O          21.9422  -33.9724  -39.4277 O.2       8 UNK        -0.5046 
     54 N          22.4252  -32.9892  -41.4138 N.am      9 UNK        -0.4200 
     55 CA         21.4089  -31.9349  -41.4311 C.3       9 UNK         0.0839 
     56 C          21.7807  -30.7424  -42.3566 C.2       9 UNK         0.5513 
     57 N          22.9670  -30.6825  -42.9521 N.am      9 UNK        -0.7519 
     58 O          20.9824  -29.8226  -42.5063 O.2       9 UNK        -0.4960 
     59 C59        19.9689  -32.4708  -41.6583 C.3       10 UNK        -0.0876 
     60 S60        19.7592  -33.3602  -43.2374 S.3       10 UNK        -0.2414 
     61 C61        17.9468  -33.3655  -43.3898 C.3       10 UNK         0.0169 
     62 H62        16.5558  -22.5660  -47.7035 H         1 UNK         0.0903 
     63 H63        16.8418  -23.6235  -49.0874 H         1 UNK         0.0903 
     64 H64        15.3738  -23.8077  -48.1260 H         1 UNK         0.0903 
     65 H65        18.3505  -25.1691  -48.6386 H         1 UNK         0.3096 
     66 H66        19.5426  -26.7857  -47.8068 H         1 UNK         0.1121 
     67 H67        17.4867  -27.1701  -45.5772 H         1 UNK         0.0849 
     68 H68        18.7615  -28.2793  -45.9928 H         1 UNK         0.0849 
     69 H69        16.5208  -30.7070  -47.7853 H         1 UNK         0.0865 
     70 H70        18.2136  -30.4058  -47.4800 H         1 UNK         0.0865 
     71 H71        18.0916  -32.3172  -45.8857 H         1 UNK         0.1346 
     72 H72        16.5991  -31.4537  -41.9613 H         1 UNK         0.1412 
     73 H73        15.7851  -28.7650  -45.1847 H         1 UNK         0.1426 
     74 H74        14.3290  -29.0151  -42.9150 H         1 UNK         0.0716 
     75 H75        15.2872  -29.4879  -41.5395 H         1 UNK         0.0716 
     76 H76        17.0853  -28.3988  -40.5630 H         1 UNK         0.0695 
     77 H77        16.9407  -26.6700  -40.4083 H         1 UNK         0.0695 
     78 H78        18.9661  -28.1710  -42.1383 H         1 UNK         0.0983 
     79 H79        18.0994  -25.6452  -42.6527 H         1 UNK         0.3095 
     80 H80        19.3492  -23.7681  -43.3748 H         1 UNK         0.0454 
     81 H81        22.1559  -24.4750  -44.3910 H         1 UNK         0.0851 
     82 H82        21.7449  -23.3434  -43.1138 H         1 UNK         0.0851 
     83 H83        21.2882  -22.9889  -44.7704 H         1 UNK         0.0851 
     84 H84        18.4550  -24.6726  -45.2100 H         1 UNK         0.2976 
     85 H85        20.6287  -28.8715  -41.0315 H         1 UNK         0.3116 
     86 H86        22.0392  -29.4327  -39.4371 H         1 UNK         0.0646 
     87 H87        20.0582  -29.6120  -37.9114 H         1 UNK         0.0847 
     88 H88        21.5283  -29.1842  -37.0559 H         1 UNK         0.0847 
     89 H89        20.3247  -27.9499  -37.3839 H         1 UNK         0.0847 
     90 H90        22.2180  -26.7017  -40.8716 H         1 UNK         0.3040 
     91 H91        24.1684  -25.3004  -39.1656 H         1 UNK         0.1015 
     92 H92        23.4835  -24.8863  -42.1197 H         1 UNK         0.0786 
     93 H93        24.3634  -23.7817  -41.0766 H         1 UNK         0.0786 
     94 H94        22.6565  -24.0794  -40.7843 H         1 UNK         0.0786 
     95 H95        24.2481  -28.1263  -40.9647 H         1 UNK         0.3172 
     96 H96        27.1762  -28.1769  -41.1393 H         1 UNK         0.0595 
     97 H97        25.3408  -28.9551  -43.4881 H         1 UNK         0.0839 
     98 H98        27.0903  -29.1229  -43.4482 H         1 UNK         0.0839 
     99 H99        26.3692  -27.5260  -43.4562 H         1 UNK         0.0839 
    100 H100       27.6502  -30.6066  -41.9023 H         1 UNK         0.2998 
    101 H101       26.9102  -32.2985  -39.7822 H         1 UNK         0.0822 
    102 H102       28.1440  -34.0348  -41.1133 H         1 UNK         0.0787 
    103 H103       28.1365  -32.9759  -42.5162 H         1 UNK         0.0787 
    104 H104       29.0330  -32.5223  -41.0654 H         1 UNK         0.0787 
    105 H105       25.6705  -34.1208  -39.6461 H         1 UNK         0.3055 
    106 H106       23.9036  -35.4221  -39.7263 H         1 UNK         0.1106 
    107 H107       22.9429  -36.2291  -41.8680 H         1 UNK         0.0828 
    108 H108       23.8556  -35.0327  -42.7700 H         1 UNK         0.0828 
    109 H109       24.6965  -36.3051  -41.8917 H         1 UNK         0.0828 
    110 H110       23.1073  -32.9540  -42.1624 H         1 UNK         0.2931 
    111 H111       21.4193  -31.4974  -40.4318 H         1 UNK         0.0412 
    112 H112       23.1556  -29.8946  -43.5497 H         1 UNK         0.3472 
    113 H113       23.6911  -31.3743  -42.7946 H         1 UNK         0.3472 
    114 H114       19.2511  -31.6507  -41.6069 H         1 UNK         0.0970 
    115 H115       19.6946  -33.1488  -40.8490 H         1 UNK         0.0970 
    116 H116       17.5016  -33.6478  -42.4344 H         1 UNK         0.0612 
    117 H117       17.6612  -34.1444  -44.0982 H         1 UNK         0.0612 
@<TRIPOS>BOND
     1    1    2 1    
     2    1   62 1    
     3    1   63 1    
     4    1   64 1    
     5    2    3 2    
     6    2    4 am   BACKBONE|DICT|INTERRES
     7    4    5 1    
     8    4   65 1    
     9    5    6 1    
    10    5   25 1    
    11    5   66 1    
    12    6    7 1    
    13    6   67 1    
    14    6   68 1    
    15    7    8 1    
    16    8    9 1    
    17    8   69 1    
    18    8   70 1    
    19    9   10 ar   
    20    9   14 ar   
    21   10   11 ar   
    22   10   71 1    
    23   11   12 ar   
    24   11   61 1    
    25   12   13 ar   
    26   12   72 1    
    27   13   14 ar   
    28   13   15 1    
    29   14   73 1    
    30   15   16 1    
    31   15   74 1    
    32   15   75 1    
    33   16   17 1    
    34   17   18 1    
    35   17   76 1    
    36   17   77 1    
    37   18   19 1    
    38   18   27 1    
    39   18   78 1    
    40   19   20 am   BACKBONE|DICT|INTERRES
    41   19   79 1    
    42   20   21 2    
    43   20   22 1    
    44   22   23 1    
    45   22   24 1    
    46   22   80 1    
    47   23   81 1    
    48   23   82 1    
    49   23   83 1    
    50   24   25 am   BACKBONE|DICT|INTERRES
    51   24   84 1    
    52   25   26 2    
    53   27   28 2    
    54   27   29 am   BACKBONE|DICT|INTERRES
    55   29   30 1    
    56   29   85 1    
    57   30   31 1    
    58   30   32 1    
    59   30   86 1    
    60   31   87 1    
    61   31   88 1    
    62   31   89 1    
    63   32   33 2    
    64   32   34 am   BACKBONE|DICT|INTERRES
    65   34   35 1    
    66   34   90 1    
    67   35   36 1    
    68   35   37 1    
    69   35   91 1    
    70   36   92 1    
    71   36   93 1    
    72   36   94 1    
    73   37   38 2    
    74   37   39 am   BACKBONE|DICT|INTERRES
    75   39   40 1    
    76   39   95 1    
    77   40   41 1    
    78   40   42 1    
    79   40   96 1    
    80   41   97 1    
    81   41   98 1    
    82   41   99 1    
    83   42   43 2    
    84   42   44 am   BACKBONE|DICT|INTERRES
    85   44   45 1    
    86   44  100 1    
    87   45   46 1    
    88   45   47 1    
    89   45  101 1    
    90   46  102 1    
    91   46  103 1    
    92   46  104 1    
    93   47   48 2    
    94   47   49 am   BACKBONE|DICT|INTERRES
    95   49   50 1    
    96   49  105 1    
    97   50   51 1    
    98   50   52 1    
    99   50  106 1    
   100   51  107 1    
   101   51  108 1    
   102   51  109 1    
   103   52   53 2    
   104   52   54 am   BACKBONE|DICT|INTERRES
   105   54   55 1    
   106   54  110 1    
   107   55   56 1    
   108   55   59 1    
   109   55  111 1    
   110   56   57 am   BACKBONE|DICT|INTERRES
   111   56   58 2    
   112   57  112 1    
   113   57  113 1    
   114   59   60 1    
   115   59  114 1    
   116   59  115 1    
   117   60   61 1    
   118   61  116 1    
   119   61  117 1    
@<TRIPOS>SUBSTRUCTURE
     1 UNK         1 GROUP             0       ****    0 ROOT    
