@<TRIPOS>MOLECULE
3R8
117   119    1
SMALL
USER_CHARGES


@<TRIPOS>ATOM
      1 CA         18.0125  -22.9147  -42.3580 C.3       0 UNK        -0.2013 
      2 C          17.2109  -23.0821  -43.6474 C.2       0 UNK         0.4866 
      3 O          16.5874  -22.1167  -44.0839 O.2       0 UNK        -0.5176 
      4 N          17.1722  -24.2541  -44.3008 N.am      1 UNK        -0.4884 
      5 CA         17.8446  -25.5266  -43.9931 C.3       1 UNK         0.0853 
      6 C6         17.4135  -26.1877  -42.6529 C.3       10 UNK        -0.0849 
      7 S7         15.6333  -26.5912  -42.6412 S.3       10 UNK        -0.2776 
      8 C8         15.6304  -28.3475  -42.1225 C.3       10 UNK         0.0316 
      9 C9         16.3446  -29.3219  -43.0635 C.ar      10 UNK        -0.0863 
     10 C10        16.8862  -30.4984  -42.5336 C.ar      10 UNK        -0.1009 
     11 C11        17.5426  -31.4209  -43.3554 C.ar      10 UNK        -0.0712 
     12 C12        17.6631  -31.1608  -44.7229 C.ar      10 UNK        -0.0894 
     13 C13        17.1131  -29.9998  -45.2713 C.ar      10 UNK        -0.0745 
     14 C14        16.4454  -29.0932  -44.4412 C.ar      10 UNK        -0.0972 
     15 C15        17.2010  -29.7347  -46.7654 C.3       10 UNK         0.0209 
     16 S16        18.2888  -28.3256  -47.1364 S.3       10 UNK        -0.2568 
     17 C17        19.9260  -29.1094  -47.4028 C.3       10 UNK        -0.0983 
     18 CA         21.1149  -28.4372  -46.6510 C.3       3 UNK         0.0876 
     19 N          20.8952  -27.0040  -46.4541 N.am      3 UNK        -0.4424 
     20 C          21.7925  -26.0858  -46.0788 C.2       2 UNK         0.4918 
     21 O          23.0010  -26.2965  -46.0008 O.2       2 UNK        -0.4875 
     22 CA         21.2246  -24.7065  -45.6803 C.3       2 UNK         0.0481 
     23 CB         21.3643  -23.7110  -46.8421 C.3       2 UNK        -0.1831 
     24 N          19.8186  -24.7566  -45.2456 N.am      2 UNK        -0.4498 
     25 C          19.3733  -25.4459  -44.1832 C.2       1 UNK         0.5027 
     26 O          20.1259  -26.0327  -43.4050 O.2       1 UNK        -0.4969 
     27 C          21.4887  -29.1823  -45.3478 C.2       3 UNK         0.5005 
     28 O          22.2059  -30.1811  -45.4280 O.2       3 UNK        -0.5279 
     29 N          21.0393  -28.6877  -44.1838 N.am      4 UNK        -0.4463 
     30 CA         21.4522  -29.1792  -42.8668 C.3       4 UNK         0.0283 
     31 CB         20.2992  -29.0399  -41.8615 C.3       4 UNK        -0.1875 
     32 C          22.6838  -28.4205  -42.3601 C.2       4 UNK         0.4949 
     33 O          23.5818  -29.0493  -41.8012 O.2       4 UNK        -0.5039 
     34 N          22.6950  -27.0917  -42.5505 N.am      5 UNK        -0.4663 
     35 CA         23.7433  -26.1139  -42.2182 C.3       5 UNK         0.0242 
     36 CB         25.0374  -26.3892  -43.0108 C.3       5 UNK        -0.1982 
     37 C          24.0356  -25.9763  -40.7130 C.2       5 UNK         0.5017 
     38 O          23.8774  -24.8887  -40.1582 O.2       5 UNK        -0.5012 
     39 N          24.4568  -27.0789  -40.0902 N.am      6 UNK        -0.4439 
     40 CA         24.7912  -27.2164  -38.6759 C.3       6 UNK         0.0297 
     41 CB         26.2561  -26.7997  -38.4372 C.3       6 UNK        -0.2006 
     42 C          24.4831  -28.6537  -38.2258 C.2       6 UNK         0.4892 
     43 O          25.3241  -29.2973  -37.5965 O.2       6 UNK        -0.5089 
     44 N          23.2802  -29.1292  -38.5851 N.am      7 UNK        -0.4243 
     45 CA         22.7349  -30.4682  -38.3255 C.3       7 UNK         0.0196 
     46 CB         22.4939  -30.6794  -36.8150 C.3       7 UNK        -0.2007 
     47 C          23.5591  -31.6033  -38.9680 C.2       7 UNK         0.5020 
     48 O          23.7441  -32.6564  -38.3552 O.2       7 UNK        -0.5147 
     49 N          24.0133  -31.3913  -40.2125 N.am      8 UNK        -0.4734 
     50 CA         24.7773  -32.3655  -41.0047 C.3       8 UNK         0.0238 
     51 CB         25.3955  -31.6535  -42.2197 C.3       8 UNK        -0.1912 
     52 C          23.9596  -33.5911  -41.4593 C.2       8 UNK         0.5038 
     53 O          24.5517  -34.5645  -41.9277 O.2       8 UNK        -0.5046 
     54 N          22.6295  -33.5254  -41.3164 N.am      9 UNK        -0.4200 
     55 CA         21.6725  -34.6035  -41.6085 C.3       9 UNK         0.0839 
     56 C          21.8274  -35.8709  -40.7168 C.2       9 UNK         0.5513 
     57 N          22.4835  -35.7971  -39.5639 N.am      9 UNK        -0.7519 
     58 O          21.3385  -36.9376  -41.0793 O.2       9 UNK        -0.4960 
     59 C59        20.2068  -34.0964  -41.5534 C.3       10 UNK        -0.0876 
     60 S60        19.9091  -32.6161  -42.5761 S.3       10 UNK        -0.2414 
     61 C61        18.1052  -32.7066  -42.7690 C.3       10 UNK         0.0169 
     62 H62        17.4004  -23.1905  -41.5000 H         1 UNK         0.0903 
     63 H63        18.9263  -23.5030  -42.3370 H         1 UNK         0.0903 
     64 H64        18.3029  -21.8717  -42.2334 H         1 UNK         0.0903 
     65 H65        16.5974  -24.2889  -45.1318 H         1 UNK         0.3096 
     66 H66        17.5259  -26.2098  -44.7822 H         1 UNK         0.1121 
     67 H67        17.6423  -25.5568  -41.7950 H         1 UNK         0.0849 
     68 H68        17.9698  -27.1122  -42.4922 H         1 UNK         0.0849 
     69 H69        16.0709  -28.4048  -41.1257 H         1 UNK         0.0865 
     70 H70        14.5946  -28.6726  -42.0175 H         1 UNK         0.0865 
     71 H71        16.7983  -30.6986  -41.4743 H         1 UNK         0.1346 
     72 H72        18.1747  -31.8706  -45.3586 H         1 UNK         0.1412 
     73 H73        16.0060  -28.2077  -44.8782 H         1 UNK         0.1426 
     74 H74        16.2017  -29.5078  -47.1397 H         1 UNK         0.0716 
     75 H75        17.5321  -30.6201  -47.3102 H         1 UNK         0.0716 
     76 H76        20.1177  -29.0515  -48.4753 H         1 UNK         0.0695 
     77 H77        19.8686  -30.1781  -47.1860 H         1 UNK         0.0695 
     78 H78        21.9947  -28.5277  -47.2924 H         1 UNK         0.0983 
     79 H79        19.9304  -26.7191  -46.5416 H         1 UNK         0.3095 
     80 H80        21.8195  -24.3390  -44.8415 H         1 UNK         0.0454 
     81 H81        20.7752  -24.0140  -47.7086 H         1 UNK         0.0851 
     82 H82        22.4032  -23.6335  -47.1660 H         1 UNK         0.0851 
     83 H83        21.0438  -22.7110  -46.5496 H         1 UNK         0.0851 
     84 H84        19.1442  -24.2755  -45.8247 H         1 UNK         0.2976 
     85 H85        20.4901  -27.8374  -44.1902 H         1 UNK         0.3116 
     86 H86        21.7114  -30.2375  -42.9366 H         1 UNK         0.0646 
     87 H87        19.3912  -29.4990  -42.2449 H         1 UNK         0.0847 
     88 H88        20.0743  -27.9996  -41.6274 H         1 UNK         0.0847 
     89 H89        20.5413  -29.5391  -40.9230 H         1 UNK         0.0847 
     90 H90        21.8488  -26.6826  -42.9385 H         1 UNK         0.3040 
     91 H91        23.3595  -25.1472  -42.5493 H         1 UNK         0.1015 
     92 H92        25.4734  -27.3588  -42.7686 H         1 UNK         0.0786 
     93 H93        25.7930  -25.6318  -42.7980 H         1 UNK         0.0786 
     94 H94        24.8549  -26.3684  -44.0846 H         1 UNK         0.0786 
     95 H95        24.4696  -27.9340  -40.6445 H         1 UNK         0.3172 
     96 H96        24.1450  -26.5600  -38.0895 H         1 UNK         0.0595 
     97 H97        26.5191  -26.8786  -37.3815 H         1 UNK         0.0839 
     98 H98        26.4291  -25.7657  -38.7356 H         1 UNK         0.0839 
     99 H99        26.9483  -27.4303  -38.9962 H         1 UNK         0.0839 
    100 H100       22.6798  -28.5098  -39.1111 H         1 UNK         0.2998 
    101 H101       21.7602  -30.4981  -38.8146 H         1 UNK         0.0822 
    102 H102       21.8857  -29.8788  -36.3941 H         1 UNK         0.0787 
    103 H103       21.9664  -31.6161  -36.6300 H         1 UNK         0.0787 
    104 H104       23.4298  -30.7192  -36.2567 H         1 UNK         0.0787 
    105 H105       23.8225  -30.5011  -40.6680 H         1 UNK         0.3055 
    106 H106       25.5899  -32.7405  -40.3786 H         1 UNK         0.1106 
    107 H107       24.6294  -31.2931  -42.9078 H         1 UNK         0.0828 
    108 H108       26.0438  -32.3279  -42.7807 H         1 UNK         0.0828 
    109 H109       26.0019  -30.8000  -41.9162 H         1 UNK         0.0828 
    110 H110       22.2360  -32.6750  -40.9454 H         1 UNK         0.2931 
    111 H111       21.8712  -34.9235  -42.6331 H         1 UNK         0.0412 
    112 H112       22.5786  -36.6239  -38.9953 H         1 UNK         0.3472 
    113 H113       22.8851  -34.9233  -39.2562 H         1 UNK         0.3472 
    114 H114       19.9220  -33.8595  -40.5263 H         1 UNK         0.0970 
    115 H115       19.5281  -34.8857  -41.8834 H         1 UNK         0.0970 
    116 H116       17.8528  -33.5491  -43.4145 H         1 UNK         0.0612 
    117 H117       17.6490  -32.9109  -41.7990 H         1 UNK         0.0612 
@<TRIPOS>BOND
     1    1    2 1    
     2    1   62 1    
     3    1   63 1    
     4    1   64 1    
     5    2    3 2    
     6    2    4 am   BACKBONE|DICT|INTERRES
     7    4    5 1    
     8    4   65 1    
     9    5    6 1    
    10    5   25 1    
    11    5   66 1    
    12    6    7 1    
    13    6   67 1    
    14    6   68 1    
    15    7    8 1    
    16    8    9 1    
    17    8   69 1    
    18    8   70 1    
    19    9   10 ar   
    20    9   14 ar   
    21   10   11 ar   
    22   10   71 1    
    23   11   12 ar   
    24   11   61 1    
    25   12   13 ar   
    26   12   72 1    
    27   13   14 ar   
    28   13   15 1    
    29   14   73 1    
    30   15   16 1    
    31   15   74 1    
    32   15   75 1    
    33   16   17 1    
    34   17   18 1    
    35   17   76 1    
    36   17   77 1    
    37   18   19 1    
    38   18   27 1    
    39   18   78 1    
    40   19   20 am   BACKBONE|DICT|INTERRES
    41   19   79 1    
    42   20   21 2    
    43   20   22 1    
    44   22   23 1    
    45   22   24 1    
    46   22   80 1    
    47   23   81 1    
    48   23   82 1    
    49   23   83 1    
    50   24   25 am   BACKBONE|DICT|INTERRES
    51   24   84 1    
    52   25   26 2    
    53   27   28 2    
    54   27   29 am   BACKBONE|DICT|INTERRES
    55   29   30 1    
    56   29   85 1    
    57   30   31 1    
    58   30   32 1    
    59   30   86 1    
    60   31   87 1    
    61   31   88 1    
    62   31   89 1    
    63   32   33 2    
    64   32   34 am   BACKBONE|DICT|INTERRES
    65   34   35 1    
    66   34   90 1    
    67   35   36 1    
    68   35   37 1    
    69   35   91 1    
    70   36   92 1    
    71   36   93 1    
    72   36   94 1    
    73   37   38 2    
    74   37   39 am   BACKBONE|DICT|INTERRES
    75   39   40 1    
    76   39   95 1    
    77   40   41 1    
    78   40   42 1    
    79   40   96 1    
    80   41   97 1    
    81   41   98 1    
    82   41   99 1    
    83   42   43 2    
    84   42   44 am   BACKBONE|DICT|INTERRES
    85   44   45 1    
    86   44  100 1    
    87   45   46 1    
    88   45   47 1    
    89   45  101 1    
    90   46  102 1    
    91   46  103 1    
    92   46  104 1    
    93   47   48 2    
    94   47   49 am   BACKBONE|DICT|INTERRES
    95   49   50 1    
    96   49  105 1    
    97   50   51 1    
    98   50   52 1    
    99   50  106 1    
   100   51  107 1    
   101   51  108 1    
   102   51  109 1    
   103   52   53 2    
   104   52   54 am   BACKBONE|DICT|INTERRES
   105   54   55 1    
   106   54  110 1    
   107   55   56 1    
   108   55   59 1    
   109   55  111 1    
   110   56   57 am   BACKBONE|DICT|INTERRES
   111   56   58 2    
   112   57  112 1    
   113   57  113 1    
   114   59   60 1    
   115   59  114 1    
   116   59  115 1    
   117   60   61 1    
   118   61  116 1    
   119   61  117 1    
@<TRIPOS>SUBSTRUCTURE
     1 UNK         1 GROUP             0       ****    0 ROOT    
