@<TRIPOS>MOLECULE
3R8
117   119    1
SMALL
USER_CHARGES


@<TRIPOS>ATOM
      1 CA         17.8997  -24.3719  -49.3238 C.3       0 UNK        -0.2013 
      2 C          17.2873  -25.3373  -48.3201 C.2       0 UNK         0.4866 
      3 O          16.7755  -26.3865  -48.7115 O.2       0 UNK        -0.5176 
      4 N          17.3375  -24.9953  -47.0293 N.am      1 UNK        -0.4884 
      5 CA         16.8463  -25.8056  -45.9170 C.3       1 UNK         0.0853 
      6 C6         15.3002  -25.7167  -45.7777 C.3       10 UNK        -0.0849 
      7 S7         14.5138  -26.8128  -44.5396 S.3       10 UNK        -0.2776 
      8 C8         14.8490  -28.4946  -45.1639 C.3       10 UNK         0.0316 
      9 C9         16.1298  -29.0714  -44.5714 C.ar      10 UNK        -0.0863 
     10 C10        16.1980  -29.3763  -43.2071 C.ar      10 UNK        -0.1009 
     11 C11        17.3730  -29.8905  -42.6494 C.ar      10 UNK        -0.0712 
     12 C12        18.4827  -30.0912  -43.4709 C.ar      10 UNK        -0.0894 
     13 C13        18.4355  -29.7931  -44.8375 C.ar      10 UNK        -0.0745 
     14 C14        17.2444  -29.3072  -45.3821 C.ar      10 UNK        -0.0972 
     15 C15        19.6311  -30.0208  -45.7610 C.3       10 UNK         0.0209 
     16 S16        21.2425  -30.1336  -44.9123 S.3       10 UNK        -0.2568 
     17 C17        21.7766  -28.3958  -44.7516 C.3       10 UNK        -0.0983 
     18 CA         21.5352  -27.7152  -43.3776 C.3       3 UNK         0.0876 
     19 N          20.1309  -27.3247  -43.1858 N.am      3 UNK        -0.4424 
     20 C          19.7121  -26.3140  -42.4084 C.2       2 UNK         0.4918 
     21 O          20.4774  -25.5994  -41.7592 O.2       2 UNK        -0.4875 
     22 CA         18.1888  -26.1183  -42.3016 C.3       2 UNK         0.0481 
     23 CB         17.7909  -24.8239  -41.5613 C.3       2 UNK        -0.1831 
     24 N          17.5155  -26.2237  -43.5991 N.am      2 UNK        -0.4498 
     25 C          17.6326  -25.4044  -44.6532 C.2       1 UNK         0.5027 
     26 O          18.3331  -24.3876  -44.6665 O.2       1 UNK        -0.4969 
     27 C          22.1543  -28.4550  -42.1611 C.2       3 UNK         0.5005 
     28 O          23.3048  -28.8949  -42.2249 O.2       3 UNK        -0.5279 
     29 N          21.4194  -28.5112  -41.0372 N.am      4 UNK        -0.4463 
     30 CA         21.8841  -28.9302  -39.7095 C.3       4 UNK         0.0283 
     31 CB         20.7156  -28.8667  -38.7117 C.3       4 UNK        -0.1875 
     32 C          23.0630  -28.0945  -39.1792 C.2       4 UNK         0.4949 
     33 O          23.8587  -28.6139  -38.3992 O.2       4 UNK        -0.5039 
     34 N          23.2006  -26.8479  -39.6561 N.am      5 UNK        -0.4663 
     35 CA         24.3581  -25.9780  -39.4179 C.3       5 UNK         0.0242 
     36 CB         24.0736  -24.5926  -40.0197 C.3       5 UNK        -0.1982 
     37 C          25.6840  -26.5426  -39.9692 C.2       5 UNK         0.5017 
     38 O          26.7427  -26.2120  -39.4351 O.2       5 UNK        -0.5012 
     39 N          25.6008  -27.3967  -40.9996 N.am      6 UNK        -0.4439 
     40 CA         26.7169  -28.1548  -41.5696 C.3       6 UNK         0.0297 
     41 CB         26.6318  -28.0639  -43.1043 C.3       6 UNK        -0.2006 
     42 C          26.7067  -29.6269  -41.1082 C.2       6 UNK         0.4892 
     43 O          27.4987  -30.4160  -41.6243 O.2       6 UNK        -0.5089 
     44 N          25.8002  -29.9797  -40.1798 N.am      7 UNK        -0.4243 
     45 CA         25.4952  -31.3249  -39.6716 C.3       7 UNK         0.0196 
     46 CB         26.7010  -31.9141  -38.9094 C.3       7 UNK        -0.2007 
     47 C          24.9454  -32.2895  -40.7433 C.2       7 UNK         0.5020 
     48 O          24.9727  -33.5038  -40.5386 O.2       7 UNK        -0.5147 
     49 N          24.4433  -31.7496  -41.8621 N.am      8 UNK        -0.4734 
     50 CA         24.0126  -32.5215  -43.0304 C.3       8 UNK         0.0238 
     51 CB         24.3320  -31.7112  -44.2975 C.3       8 UNK        -0.1912 
     52 C          22.5388  -32.9657  -42.9730 C.2       8 UNK         0.5038 
     53 O          22.1266  -33.7625  -43.8172 O.2       8 UNK        -0.5046 
     54 N          21.7804  -32.4781  -41.9794 N.am      9 UNK        -0.4200 
     55 CA         20.4039  -32.9153  -41.6807 C.3       9 UNK         0.0839 
     56 C          20.3032  -34.3868  -41.1728 C.2       9 UNK         0.5513 
     57 N          21.3673  -34.9750  -40.6366 N.am      9 UNK        -0.7519 
     58 O          19.2512  -35.0108  -41.2806 O.2       9 UNK        -0.4960 
     59 C59        19.7041  -31.9248  -40.7085 C.3       10 UNK        -0.0876 
     60 S60        17.8755  -31.9417  -40.8098 S.3       10 UNK        -0.2414 
     61 C61        17.4525  -30.1992  -41.1584 C.3       10 UNK         0.0169 
     62 H62        17.1450  -24.0461  -50.0391 H         1 UNK         0.0903 
     63 H63        18.3116  -23.4868  -48.8391 H         1 UNK         0.0903 
     64 H64        18.7023  -24.8618  -49.8743 H         1 UNK         0.0903 
     65 H65        17.8198  -24.1546  -46.7311 H         1 UNK         0.3096 
     66 H66        17.1232  -26.8316  -46.1413 H         1 UNK         0.1121 
     67 H67        15.0116  -24.6905  -45.5434 H         1 UNK         0.0849 
     68 H68        14.8319  -25.9359  -46.7386 H         1 UNK         0.0849 
     69 H69        14.8815  -28.4871  -46.2548 H         1 UNK         0.0865 
     70 H70        14.0144  -29.1419  -44.8907 H         1 UNK         0.0865 
     71 H71        15.3336  -29.2041  -42.5794 H         1 UNK         0.1346 
     72 H72        19.3840  -30.4929  -43.0378 H         1 UNK         0.1412 
     73 H73        17.1902  -29.1043  -46.4438 H         1 UNK         0.1426 
     74 H74        19.6785  -29.2398  -46.5214 H         1 UNK         0.0716 
     75 H75        19.4674  -30.9581  -46.2941 H         1 UNK         0.0716 
     76 H76        21.3183  -27.8036  -45.5450 H         1 UNK         0.0695 
     77 H77        22.8459  -28.3793  -44.9702 H         1 UNK         0.0695 
     78 H78        22.0996  -26.7808  -43.4241 H         1 UNK         0.0983 
     79 H79        19.4441  -27.8880  -43.6684 H         1 UNK         0.3095 
     80 H80        17.8198  -26.9545  -41.7063 H         1 UNK         0.0454 
     81 H81        16.7079  -24.7207  -41.4967 H         1 UNK         0.0851 
     82 H82        18.1846  -23.9340  -42.0531 H         1 UNK         0.0851 
     83 H83        18.1767  -24.8245  -40.5412 H         1 UNK         0.0851 
     84 H84        16.8861  -27.0122  -43.6950 H         1 UNK         0.2976 
     85 H85        20.5018  -28.0942  -41.0744 H         1 UNK         0.3116 
     86 H86        22.2238  -29.9648  -39.7852 H         1 UNK         0.0646 
     87 H87        21.0377  -29.1763  -37.7162 H         1 UNK         0.0847 
     88 H88        19.8969  -29.5251  -38.9960 H         1 UNK         0.0847 
     89 H89        20.3160  -27.8557  -38.6211 H         1 UNK         0.0847 
     90 H90        22.4832  -26.4882  -40.2713 H         1 UNK         0.3040 
     91 H91        24.4770  -25.8692  -38.3375 H         1 UNK         0.1015 
     92 H92        23.1851  -24.1420  -39.5767 H         1 UNK         0.0786 
     93 H93        23.9210  -24.6442  -41.0986 H         1 UNK         0.0786 
     94 H94        24.9053  -23.9097  -39.8396 H         1 UNK         0.0786 
     95 H95        24.6843  -27.6346  -41.3650 H         1 UNK         0.3172 
     96 H96        27.6691  -27.7235  -41.2548 H         1 UNK         0.0595 
     97 H97        25.7248  -28.5332  -43.4878 H         1 UNK         0.0839 
     98 H98        27.4797  -28.5625  -43.5756 H         1 UNK         0.0839 
     99 H99        26.6411  -27.0273  -43.4414 H         1 UNK         0.0839 
    100 H100       25.2252  -29.2456  -39.7819 H         1 UNK         0.2998 
    101 H101       24.6872  -31.1956  -38.9503 H         1 UNK         0.0822 
    102 H102       27.5294  -32.1480  -39.5786 H         1 UNK         0.0787 
    103 H103       27.0667  -31.2221  -38.1507 H         1 UNK         0.0787 
    104 H104       26.4281  -32.8377  -38.3975 H         1 UNK         0.0787 
    105 H105       24.3966  -30.7395  -41.9457 H         1 UNK         0.3055 
    106 H106       24.5972  -33.4431  -43.0834 H         1 UNK         0.1106 
    107 H107       25.4087  -31.6414  -44.4531 H         1 UNK         0.0828 
    108 H108       23.9059  -32.1741  -45.1887 H         1 UNK         0.0828 
    109 H109       23.9472  -30.6944  -44.2358 H         1 UNK         0.0828 
    110 H110       22.2129  -31.8408  -41.3295 H         1 UNK         0.2931 
    111 H111       19.8658  -32.8804  -42.6302 H         1 UNK         0.0412 
    112 H112       21.2935  -35.9289  -40.3188 H         1 UNK         0.3472 
    113 H113       22.2448  -34.4851  -40.5567 H         1 UNK         0.3472 
    114 H114       20.0007  -32.1183  -39.6758 H         1 UNK         0.0970 
    115 H115       20.0425  -30.9128  -40.9195 H         1 UNK         0.0970 
    116 H116       16.4925  -29.9918  -40.6834 H         1 UNK         0.0612 
    117 H117       18.1704  -29.5300  -40.6844 H         1 UNK         0.0612 
@<TRIPOS>BOND
     1    1    2 1    
     2    1   62 1    
     3    1   63 1    
     4    1   64 1    
     5    2    3 2    
     6    2    4 am   BACKBONE|DICT|INTERRES
     7    4    5 1    
     8    4   65 1    
     9    5    6 1    
    10    5   25 1    
    11    5   66 1    
    12    6    7 1    
    13    6   67 1    
    14    6   68 1    
    15    7    8 1    
    16    8    9 1    
    17    8   69 1    
    18    8   70 1    
    19    9   10 ar   
    20    9   14 ar   
    21   10   11 ar   
    22   10   71 1    
    23   11   12 ar   
    24   11   61 1    
    25   12   13 ar   
    26   12   72 1    
    27   13   14 ar   
    28   13   15 1    
    29   14   73 1    
    30   15   16 1    
    31   15   74 1    
    32   15   75 1    
    33   16   17 1    
    34   17   18 1    
    35   17   76 1    
    36   17   77 1    
    37   18   19 1    
    38   18   27 1    
    39   18   78 1    
    40   19   20 am   BACKBONE|DICT|INTERRES
    41   19   79 1    
    42   20   21 2    
    43   20   22 1    
    44   22   23 1    
    45   22   24 1    
    46   22   80 1    
    47   23   81 1    
    48   23   82 1    
    49   23   83 1    
    50   24   25 am   BACKBONE|DICT|INTERRES
    51   24   84 1    
    52   25   26 2    
    53   27   28 2    
    54   27   29 am   BACKBONE|DICT|INTERRES
    55   29   30 1    
    56   29   85 1    
    57   30   31 1    
    58   30   32 1    
    59   30   86 1    
    60   31   87 1    
    61   31   88 1    
    62   31   89 1    
    63   32   33 2    
    64   32   34 am   BACKBONE|DICT|INTERRES
    65   34   35 1    
    66   34   90 1    
    67   35   36 1    
    68   35   37 1    
    69   35   91 1    
    70   36   92 1    
    71   36   93 1    
    72   36   94 1    
    73   37   38 2    
    74   37   39 am   BACKBONE|DICT|INTERRES
    75   39   40 1    
    76   39   95 1    
    77   40   41 1    
    78   40   42 1    
    79   40   96 1    
    80   41   97 1    
    81   41   98 1    
    82   41   99 1    
    83   42   43 2    
    84   42   44 am   BACKBONE|DICT|INTERRES
    85   44   45 1    
    86   44  100 1    
    87   45   46 1    
    88   45   47 1    
    89   45  101 1    
    90   46  102 1    
    91   46  103 1    
    92   46  104 1    
    93   47   48 2    
    94   47   49 am   BACKBONE|DICT|INTERRES
    95   49   50 1    
    96   49  105 1    
    97   50   51 1    
    98   50   52 1    
    99   50  106 1    
   100   51  107 1    
   101   51  108 1    
   102   51  109 1    
   103   52   53 2    
   104   52   54 am   BACKBONE|DICT|INTERRES
   105   54   55 1    
   106   54  110 1    
   107   55   56 1    
   108   55   59 1    
   109   55  111 1    
   110   56   57 am   BACKBONE|DICT|INTERRES
   111   56   58 2    
   112   57  112 1    
   113   57  113 1    
   114   59   60 1    
   115   59  114 1    
   116   59  115 1    
   117   60   61 1    
   118   61  116 1    
   119   61  117 1    
@<TRIPOS>SUBSTRUCTURE
     1 UNK         1 GROUP             0       ****    0 ROOT    
