@<TRIPOS>MOLECULE
3R8
117   119    1
SMALL
USER_CHARGES


@<TRIPOS>ATOM
      1 CA         14.3823  -24.7742  -42.6685 C.3       0 UNK        -0.2013 
      2 C          15.4424  -25.7814  -43.0866 C.2       0 UNK         0.4866 
      3 O          16.6347  -25.4803  -43.0204 O.2       0 UNK        -0.5176 
      4 N          15.0220  -26.9811  -43.5076 N.am      1 UNK        -0.4884 
      5 CA         15.8818  -28.0812  -43.9660 C.3       1 UNK         0.0853 
      6 C6         15.1167  -29.0409  -44.9125 C.3       10 UNK        -0.0849 
      7 S7         14.7789  -28.2242  -46.5100 S.3       10 UNK        -0.2776 
      8 C8         16.0001  -29.0108  -47.6159 C.3       10 UNK         0.0316 
      9 C9         17.4179  -28.9903  -47.0542 C.ar      10 UNK        -0.0863 
     10 C10        18.0266  -30.1832  -46.6540 C.ar      10 UNK        -0.1009 
     11 C11        19.3266  -30.1850  -46.1404 C.ar      10 UNK        -0.0712 
     12 C12        20.0253  -28.9790  -46.0383 C.ar      10 UNK        -0.0894 
     13 C13        19.4320  -27.7780  -46.4408 C.ar      10 UNK        -0.0745 
     14 C14        18.1277  -27.7901  -46.9482 C.ar      10 UNK        -0.0972 
     15 C15        20.2086  -26.4709  -46.3697 C.3       10 UNK         0.0209 
     16 S16        20.0789  -25.6861  -44.7332 S.3       10 UNK        -0.2568 
     17 C17        21.5146  -26.3994  -43.8612 C.3       10 UNK        -0.0983 
     18 CA         21.2468  -26.5976  -42.3506 C.3       3 UNK         0.0876 
     19 N          20.1123  -27.4898  -42.1093 N.am      3 UNK        -0.4424 
     20 C          19.5132  -27.6746  -40.9257 C.2       2 UNK         0.4918 
     21 O          19.9070  -27.1742  -39.8718 O.2       2 UNK        -0.4875 
     22 CA         18.2264  -28.5136  -40.9480 C.3       2 UNK         0.0481 
     23 CB         17.4346  -28.4573  -39.6281 C.3       2 UNK        -0.1831 
     24 N          17.3949  -28.0627  -42.0586 N.am      2 UNK        -0.4498 
     25 C          16.5522  -28.8061  -42.7802 C.2       1 UNK         0.5027 
     26 O          16.2993  -29.9874  -42.5390 O.2       1 UNK        -0.4969 
     27 C          22.5284  -27.0798  -41.6449 C.2       3 UNK         0.5005 
     28 O          22.8679  -28.2651  -41.7260 O.2       3 UNK        -0.5279 
     29 N          23.2482  -26.1274  -41.0319 N.am      4 UNK        -0.4463 
     30 CA         24.5241  -26.3283  -40.3348 C.3       4 UNK         0.0283 
     31 CB         24.9249  -25.0291  -39.6187 C.3       4 UNK        -0.1875 
     32 C          25.6668  -26.8118  -41.2439 C.2       4 UNK         0.4949 
     33 O          26.5891  -27.4670  -40.7592 O.2       4 UNK        -0.5039 
     34 N          25.5638  -26.5285  -42.5508 N.am      5 UNK        -0.4663 
     35 CA         26.4602  -27.0223  -43.6021 C.3       5 UNK         0.0242 
     36 CB         26.0836  -26.3507  -44.9328 C.3       5 UNK        -0.1982 
     37 C          26.4537  -28.5564  -43.7555 C.2       5 UNK         0.5017 
     38 O          27.4212  -29.1098  -44.2784 O.2       5 UNK        -0.5012 
     39 N          25.3835  -29.2081  -43.2823 N.am      6 UNK        -0.4439 
     40 CA         25.2284  -30.6585  -43.2072 C.3       6 UNK         0.0297 
     41 CB         24.0941  -31.0798  -44.1591 C.3       6 UNK        -0.2006 
     42 C          24.9816  -31.0846  -41.7479 C.2       6 UNK         0.4892 
     43 O          24.1968  -32.0037  -41.5052 O.2       6 UNK        -0.5089 
     44 N          25.6251  -30.3844  -40.7990 N.am      7 UNK        -0.4243 
     45 CA         25.5239  -30.4902  -39.3355 C.3       7 UNK         0.0196 
     46 CB         25.8939  -31.8982  -38.8268 C.3       7 UNK        -0.2007 
     47 C          24.1663  -30.0208  -38.7858 C.2       7 UNK         0.5020 
     48 O          24.1284  -29.1040  -37.9661 O.2       7 UNK        -0.5147 
     49 N          23.0870  -30.6423  -39.2638 N.am      8 UNK        -0.4734 
     50 CA         21.6882  -30.2850  -39.0280 C.3       8 UNK         0.0238 
     51 CB         21.2781  -30.5785  -37.5681 C.3       8 UNK        -0.1912 
     52 C          20.8088  -31.0255  -40.0498 C.2       8 UNK         0.5038 
     53 O          19.7584  -31.5534  -39.6829 O.2       8 UNK        -0.5046 
     54 N          21.2811  -31.0975  -41.3038 N.am      9 UNK        -0.4200 
     55 CA         20.8042  -32.0199  -42.3478 C.3       9 UNK         0.0839 
     56 C          20.8980  -33.5110  -41.9004 C.2       9 UNK         0.5513 
     57 N          22.0852  -33.9608  -41.5131 N.am      9 UNK        -0.7519 
     58 O          19.9179  -34.2514  -41.8790 O.2       9 UNK        -0.4960 
     59 C59        19.4452  -31.5846  -42.9643 C.3       10 UNK        -0.0876 
     60 S60        19.0520  -32.4488  -44.5245 S.3       10 UNK        -0.2414 
     61 C61        19.9976  -31.4971  -45.7571 C.3       10 UNK         0.0169 
     62 H62        14.4615  -23.8735  -43.2767 H         1 UNK         0.0903 
     63 H63        13.3739  -25.1718  -42.7812 H         1 UNK         0.0903 
     64 H64        14.5224  -24.4941  -41.6248 H         1 UNK         0.0903 
     65 H65        14.0306  -27.1745  -43.5267 H         1 UNK         0.3096 
     66 H66        16.7053  -27.6477  -44.5378 H         1 UNK         0.1121 
     67 H67        15.6788  -29.9586  -45.0935 H         1 UNK         0.0849 
     68 H68        14.1729  -29.3566  -44.4646 H         1 UNK         0.0849 
     69 H69        15.6808  -30.0347  -47.8173 H         1 UNK         0.0865 
     70 H70        15.9877  -28.4971  -48.5782 H         1 UNK         0.0865 
     71 H71        17.4910  -31.1186  -46.7444 H         1 UNK         0.1346 
     72 H72        21.0409  -28.9812  -45.6695 H         1 UNK         0.1412 
     73 H73        17.6624  -26.8655  -47.2625 H         1 UNK         0.1426 
     74 H74        21.2564  -26.6348  -46.6262 H         1 UNK         0.0716 
     75 H75        19.8253  -25.7736  -47.1163 H         1 UNK         0.0716 
     76 H76        21.7993  -27.3456  -44.3216 H         1 UNK         0.0695 
     77 H77        22.3564  -25.7220  -44.0175 H         1 UNK         0.0695 
     78 H78        20.9738  -25.6273  -41.9291 H         1 UNK         0.0983 
     79 H79        19.7192  -27.9276  -42.9284 H         1 UNK         0.3095 
     80 H80        18.5219  -29.5469  -41.1245 H         1 UNK         0.0454 
     81 H81        17.1197  -27.4405  -39.3912 H         1 UNK         0.0851 
     82 H82        16.5436  -29.0835  -39.6730 H         1 UNK         0.0851 
     83 H83        18.0395  -28.8184  -38.7953 H         1 UNK         0.0851 
     84 H84        17.4764  -27.0792  -42.3112 H         1 UNK         0.2976 
     85 H85        22.8897  -25.1826  -41.0283 H         1 UNK         0.3116 
     86 H86        24.3646  -27.0962  -39.5785 H         1 UNK         0.0646 
     87 H87        25.8567  -25.1605  -39.0666 H         1 UNK         0.0847 
     88 H88        24.1669  -24.7219  -38.8979 H         1 UNK         0.0847 
     89 H89        25.0762  -24.2084  -40.3210 H         1 UNK         0.0847 
     90 H90        24.7810  -25.9667  -42.8511 H         1 UNK         0.3040 
     91 H91        27.4787  -26.7282  -43.3389 H         1 UNK         0.1015 
     92 H92        26.1632  -25.2653  -44.8673 H         1 UNK         0.0786 
     93 H93        25.0649  -26.5968  -45.2360 H         1 UNK         0.0786 
     94 H94        26.7488  -26.6735  -45.7351 H         1 UNK         0.0786 
     95 H95        24.6430  -28.6696  -42.8431 H         1 UNK         0.3172 
     96 H96        26.1437  -31.1635  -43.5214 H         1 UNK         0.0595 
     97 H97        23.8956  -32.1507  -44.0994 H         1 UNK         0.0839 
     98 H98        24.3525  -30.8598  -45.1949 H         1 UNK         0.0839 
     99 H99        23.1690  -30.5502  -43.9324 H         1 UNK         0.0839 
    100 H100       26.1996  -29.6104  -41.1125 H         1 UNK         0.2998 
    101 H101       26.2723  -29.7988  -38.9439 H         1 UNK         0.0822 
    102 H102       26.8865  -32.1925  -39.1676 H         1 UNK         0.0787 
    103 H103       25.9047  -31.9240  -37.7364 H         1 UNK         0.0787 
    104 H104       25.1877  -32.6594  -39.1588 H         1 UNK         0.0787 
    105 H105       23.2530  -31.3750  -39.9494 H         1 UNK         0.3055 
    106 H106       21.5743  -29.2157  -39.2157 H         1 UNK         0.1106 
    107 H107       20.2364  -30.3069  -37.3924 H         1 UNK         0.0828 
    108 H108       21.3868  -31.6366  -37.3276 H         1 UNK         0.0828 
    109 H109       21.8757  -30.0100  -36.8562 H         1 UNK         0.0828 
    110 H110       22.1332  -30.5962  -41.5184 H         1 UNK         0.2931 
    111 H111       21.5379  -31.9326  -43.1463 H         1 UNK         0.0412 
    112 H112       22.1798  -34.9170  -41.2101 H         1 UNK         0.3472 
    113 H113       22.8964  -33.3477  -41.5270 H         1 UNK         0.3472 
    114 H114       19.4478  -30.5128  -43.1639 H         1 UNK         0.0970 
    115 H115       18.6327  -31.7592  -42.2568 H         1 UNK         0.0970 
    116 H116       21.0107  -31.3301  -45.3894 H         1 UNK         0.0612 
    117 H117       20.0980  -32.1058  -46.6565 H         1 UNK         0.0612 
@<TRIPOS>BOND
     1    1    2 1    
     2    1   62 1    
     3    1   63 1    
     4    1   64 1    
     5    2    3 2    
     6    2    4 am   BACKBONE|DICT|INTERRES
     7    4    5 1    
     8    4   65 1    
     9    5    6 1    
    10    5   25 1    
    11    5   66 1    
    12    6    7 1    
    13    6   67 1    
    14    6   68 1    
    15    7    8 1    
    16    8    9 1    
    17    8   69 1    
    18    8   70 1    
    19    9   10 ar   
    20    9   14 ar   
    21   10   11 ar   
    22   10   71 1    
    23   11   12 ar   
    24   11   61 1    
    25   12   13 ar   
    26   12   72 1    
    27   13   14 ar   
    28   13   15 1    
    29   14   73 1    
    30   15   16 1    
    31   15   74 1    
    32   15   75 1    
    33   16   17 1    
    34   17   18 1    
    35   17   76 1    
    36   17   77 1    
    37   18   19 1    
    38   18   27 1    
    39   18   78 1    
    40   19   20 am   BACKBONE|DICT|INTERRES
    41   19   79 1    
    42   20   21 2    
    43   20   22 1    
    44   22   23 1    
    45   22   24 1    
    46   22   80 1    
    47   23   81 1    
    48   23   82 1    
    49   23   83 1    
    50   24   25 am   BACKBONE|DICT|INTERRES
    51   24   84 1    
    52   25   26 2    
    53   27   28 2    
    54   27   29 am   BACKBONE|DICT|INTERRES
    55   29   30 1    
    56   29   85 1    
    57   30   31 1    
    58   30   32 1    
    59   30   86 1    
    60   31   87 1    
    61   31   88 1    
    62   31   89 1    
    63   32   33 2    
    64   32   34 am   BACKBONE|DICT|INTERRES
    65   34   35 1    
    66   34   90 1    
    67   35   36 1    
    68   35   37 1    
    69   35   91 1    
    70   36   92 1    
    71   36   93 1    
    72   36   94 1    
    73   37   38 2    
    74   37   39 am   BACKBONE|DICT|INTERRES
    75   39   40 1    
    76   39   95 1    
    77   40   41 1    
    78   40   42 1    
    79   40   96 1    
    80   41   97 1    
    81   41   98 1    
    82   41   99 1    
    83   42   43 2    
    84   42   44 am   BACKBONE|DICT|INTERRES
    85   44   45 1    
    86   44  100 1    
    87   45   46 1    
    88   45   47 1    
    89   45  101 1    
    90   46  102 1    
    91   46  103 1    
    92   46  104 1    
    93   47   48 2    
    94   47   49 am   BACKBONE|DICT|INTERRES
    95   49   50 1    
    96   49  105 1    
    97   50   51 1    
    98   50   52 1    
    99   50  106 1    
   100   51  107 1    
   101   51  108 1    
   102   51  109 1    
   103   52   53 2    
   104   52   54 am   BACKBONE|DICT|INTERRES
   105   54   55 1    
   106   54  110 1    
   107   55   56 1    
   108   55   59 1    
   109   55  111 1    
   110   56   57 am   BACKBONE|DICT|INTERRES
   111   56   58 2    
   112   57  112 1    
   113   57  113 1    
   114   59   60 1    
   115   59  114 1    
   116   59  115 1    
   117   60   61 1    
   118   61  116 1    
   119   61  117 1    
@<TRIPOS>SUBSTRUCTURE
     1 UNK         1 GROUP             0       ****    0 ROOT    
