@<TRIPOS>MOLECULE
3R8
117   119    1
SMALL
USER_CHARGES


@<TRIPOS>ATOM
      1 CA         15.1465  -24.2098  -42.1468 C.3       0 UNK        -0.2013 
      2 C          15.5914  -24.4232  -43.5860 C.2       0 UNK         0.4866 
      3 O          15.0560  -23.7859  -44.4933 O.2       0 UNK        -0.5176 
      4 N          16.5641  -25.3140  -43.8017 N.am      1 UNK        -0.4884 
      5 CA         17.1535  -25.6223  -45.1058 C.3       1 UNK         0.0853 
      6 C6         16.1569  -26.4030  -46.0469 C.3       10 UNK        -0.0849 
      7 S7         16.6520  -27.8634  -47.0400 S.3       10 UNK        -0.2776 
      8 C8         15.7640  -29.2234  -46.2102 C.3       10 UNK         0.0316 
      9 C9         16.4267  -29.6328  -44.9016 C.ar      10 UNK        -0.0863 
     10 C10        17.2947  -30.7301  -44.8595 C.ar      10 UNK        -0.1009 
     11 C11        17.8927  -31.1212  -43.6552 C.ar      10 UNK        -0.0712 
     12 C12        17.5980  -30.4120  -42.4879 C.ar      10 UNK        -0.0894 
     13 C13        16.7445  -29.3051  -42.5179 C.ar      10 UNK        -0.0745 
     14 C14        16.1535  -28.9293  -43.7252 C.ar      10 UNK        -0.0972 
     15 C15        16.4479  -28.5178  -41.2497 C.3       10 UNK         0.0209 
     16 S16        17.6437  -27.1653  -40.9985 S.3       10 UNK        -0.2568 
     17 C17        19.1171  -28.0900  -40.4344 C.3       10 UNK        -0.0983 
     18 CA         20.3459  -27.9962  -41.3788 C.3       3 UNK         0.0876 
     19 N          19.9929  -28.0857  -42.8044 N.am      3 UNK        -0.4424 
     20 C          20.8648  -28.1674  -43.8197 C.2       2 UNK         0.4918 
     21 O          22.0638  -28.3846  -43.6586 O.2       2 UNK        -0.4875 
     22 CA         20.3625  -27.8292  -45.2383 C.3       2 UNK         0.0481 
     23 CB         20.4828  -29.0158  -46.2030 C.3       2 UNK        -0.1831 
     24 N          19.0071  -27.2765  -45.3201 N.am      2 UNK        -0.4498 
     25 C          18.5962  -26.1055  -44.8280 C.2       1 UNK         0.5027 
     26 O          19.3282  -25.3943  -44.1349 O.2       1 UNK        -0.4969 
     27 C          21.2265  -26.7709  -41.0322 C.2       3 UNK         0.5005 
     28 O          21.8841  -26.7829  -39.9901 O.2       3 UNK        -0.5279 
     29 N          21.2826  -25.7614  -41.9173 N.am      4 UNK        -0.4463 
     30 CA         22.2715  -24.6786  -41.8916 C.3       4 UNK         0.0283 
     31 CB         21.9354  -23.6613  -42.9928 C.3       4 UNK        -0.1875 
     32 C          23.7275  -25.1702  -42.0414 C.2       4 UNK         0.4949 
     33 O          24.6381  -24.4892  -41.5712 O.2       4 UNK        -0.5039 
     34 N          23.9234  -26.3509  -42.6473 N.am      5 UNK        -0.4663 
     35 CA         25.1970  -27.0673  -42.7379 C.3       5 UNK         0.0242 
     36 CB         25.3939  -27.5557  -44.1848 C.3       5 UNK        -0.1982 
     37 C          25.2481  -28.2117  -41.7038 C.2       5 UNK         0.5017 
     38 O          25.7318  -29.3034  -42.0132 O.2       5 UNK        -0.5012 
     39 N          24.7558  -27.9206  -40.4893 N.am      6 UNK        -0.4439 
     40 CA         24.6793  -28.7711  -39.2957 C.3       6 UNK         0.0297 
     41 CB         26.0852  -29.2588  -38.8788 C.3       6 UNK        -0.2006 
     42 C          23.6815  -29.9369  -39.4278 C.2       6 UNK         0.4892 
     43 O          23.0924  -30.1554  -40.4880 O.2       6 UNK        -0.5089 
     44 N          23.5262  -30.6946  -38.3316 N.am      7 UNK        -0.4243 
     45 CA         22.6731  -31.8879  -38.2295 C.3       7 UNK         0.0196 
     46 CB         22.6705  -32.3796  -36.7728 C.3       7 UNK        -0.2007 
     47 C          23.0649  -33.0333  -39.1847 C.2       7 UNK         0.5020 
     48 O          22.2442  -33.9136  -39.4425 O.2       7 UNK        -0.5147 
     49 N          24.2936  -32.9846  -39.7175 N.am      8 UNK        -0.4734 
     50 CA         24.7869  -33.8364  -40.8007 C.3       8 UNK         0.0238 
     51 CB         26.3081  -33.6461  -40.9234 C.3       8 UNK        -0.1912 
     52 C          24.1041  -33.5750  -42.1591 C.2       8 UNK         0.5038 
     53 O          24.2280  -34.4193  -43.0474 O.2       8 UNK        -0.5046 
     54 N          23.4031  -32.4387  -42.3028 N.am      9 UNK        -0.4200 
     55 CA         22.7059  -32.0113  -43.5242 C.3       9 UNK         0.0839 
     56 C          23.6808  -31.6096  -44.6742 C.2       9 UNK         0.5513 
     57 N          24.8435  -31.0450  -44.3691 N.am      9 UNK        -0.7519 
     58 O          23.3993  -31.8121  -45.8527 O.2       9 UNK        -0.4960 
     59 C59        21.5875  -33.0148  -43.9456 C.3       10 UNK        -0.0876 
     60 S60        20.1986  -32.1946  -44.7976 S.3       10 UNK        -0.2414 
     61 C61        18.8394  -32.3170  -43.5906 C.3       10 UNK         0.0169 
     62 H62        14.0938  -24.4689  -42.0377 H         1 UNK         0.0903 
     63 H63        15.7189  -24.8175  -41.4467 H         1 UNK         0.0903 
     64 H64        15.2713  -23.1642  -41.8668 H         1 UNK         0.0903 
     65 H65        17.0123  -25.7656  -43.0137 H         1 UNK         0.3096 
     66 H66        17.3272  -24.6605  -45.5951 H         1 UNK         0.1121 
     67 H67        15.2648  -26.6821  -45.4867 H         1 UNK         0.0849 
     68 H68        15.7683  -25.6853  -46.7713 H         1 UNK         0.0849 
     69 H69        14.7244  -28.9410  -46.0365 H         1 UNK         0.0865 
     70 H70        15.7286  -30.0771  -46.8888 H         1 UNK         0.0865 
     71 H71        17.5087  -31.2821  -45.7646 H         1 UNK         0.1346 
     72 H72        18.0389  -30.7260  -41.5533 H         1 UNK         0.1412 
     73 H73        15.4754  -28.0883  -43.7426 H         1 UNK         0.1426 
     74 H74        16.4437  -29.1774  -40.3805 H         1 UNK         0.0716 
     75 H75        15.4457  -28.0900  -41.3058 H         1 UNK         0.0716 
     76 H76        19.3640  -27.7461  -39.4277 H         1 UNK         0.0695 
     77 H77        18.8564  -29.1368  -40.2933 H         1 UNK         0.0695 
     78 H78        20.9737  -28.8641  -41.1719 H         1 UNK         0.0983 
     79 H79        19.0197  -27.9261  -43.0208 H         1 UNK         0.3095 
     80 H80        21.0396  -27.0545  -45.6039 H         1 UNK         0.0454 
     81 H81        21.4256  -29.5491  -46.0710 H         1 UNK         0.0851 
     82 H82        19.6734  -29.7284  -46.0598 H         1 UNK         0.0851 
     83 H83        20.4438  -28.6825  -47.2399 H         1 UNK         0.0851 
     84 H84        18.3335  -27.8064  -45.8634 H         1 UNK         0.2976 
     85 H85        20.6570  -25.7810  -42.7183 H         1 UNK         0.3116 
     86 H86        22.1908  -24.1782  -40.9245 H         1 UNK         0.0646 
     87 H87        22.6364  -22.8256  -42.9815 H         1 UNK         0.0847 
     88 H88        20.9357  -23.2472  -42.8593 H         1 UNK         0.0847 
     89 H89        21.9798  -24.1124  -43.9851 H         1 UNK         0.0847 
     90 H90        23.1172  -26.8792  -42.9696 H         1 UNK         0.3040 
     91 H91        26.0252  -26.3964  -42.5000 H         1 UNK         0.1015 
     92 H92        25.3921  -26.7216  -44.8863 H         1 UNK         0.0786 
     93 H93        24.6070  -28.2466  -44.4870 H         1 UNK         0.0786 
     94 H94        26.3474  -28.0726  -44.3003 H         1 UNK         0.0786 
     95 H95        24.3020  -27.0223  -40.3909 H         1 UNK         0.3172 
     96 H96        24.2973  -28.1258  -38.5033 H         1 UNK         0.0595 
     97 H97        26.7938  -28.4315  -38.8370 H         1 UNK         0.0839 
     98 H98        26.4824  -30.0008  -39.5724 H         1 UNK         0.0839 
     99 H99        26.0753  -29.7149  -37.8886 H         1 UNK         0.0839 
    100 H100       24.0378  -30.4427  -37.4979 H         1 UNK         0.2998 
    101 H101       21.6568  -31.5874  -38.4935 H         1 UNK         0.0822 
    102 H102       22.3047  -31.6095  -36.0933 H         1 UNK         0.0787 
    103 H103       22.0199  -33.2475  -36.6543 H         1 UNK         0.0787 
    104 H104       23.6682  -32.6736  -36.4444 H         1 UNK         0.0787 
    105 H105       24.8949  -32.2256  -39.4331 H         1 UNK         0.3055 
    106 H106       24.5858  -34.8764  -40.5338 H         1 UNK         0.1106 
    107 H107       26.5661  -32.6187  -41.1853 H         1 UNK         0.0828 
    108 H108       26.8175  -33.8956  -39.9924 H         1 UNK         0.0828 
    109 H109       26.7215  -34.2924  -41.6990 H         1 UNK         0.0828 
    110 H110       23.3775  -31.7695  -41.5386 H         1 UNK         0.2931 
    111 H111       22.2152  -31.0824  -43.2325 H         1 UNK         0.0412 
    112 H112       25.4740  -30.7953  -45.1132 H         1 UNK         0.3472 
    113 H113       25.0654  -30.7854  -43.4157 H         1 UNK         0.3472 
    114 H114       21.1984  -33.5391  -43.0719 H         1 UNK         0.0970 
    115 H115       21.9894  -33.7957  -44.5936 H         1 UNK         0.0970 
    116 H116       19.2585  -32.4051  -42.5872 H         1 UNK         0.0612 
    117 H117       18.2784  -33.2337  -43.7759 H         1 UNK         0.0612 
@<TRIPOS>BOND
     1    1    2 1    
     2    1   62 1    
     3    1   63 1    
     4    1   64 1    
     5    2    3 2    
     6    2    4 am   BACKBONE|DICT|INTERRES
     7    4    5 1    
     8    4   65 1    
     9    5    6 1    
    10    5   25 1    
    11    5   66 1    
    12    6    7 1    
    13    6   67 1    
    14    6   68 1    
    15    7    8 1    
    16    8    9 1    
    17    8   69 1    
    18    8   70 1    
    19    9   10 ar   
    20    9   14 ar   
    21   10   11 ar   
    22   10   71 1    
    23   11   12 ar   
    24   11   61 1    
    25   12   13 ar   
    26   12   72 1    
    27   13   14 ar   
    28   13   15 1    
    29   14   73 1    
    30   15   16 1    
    31   15   74 1    
    32   15   75 1    
    33   16   17 1    
    34   17   18 1    
    35   17   76 1    
    36   17   77 1    
    37   18   19 1    
    38   18   27 1    
    39   18   78 1    
    40   19   20 am   BACKBONE|DICT|INTERRES
    41   19   79 1    
    42   20   21 2    
    43   20   22 1    
    44   22   23 1    
    45   22   24 1    
    46   22   80 1    
    47   23   81 1    
    48   23   82 1    
    49   23   83 1    
    50   24   25 am   BACKBONE|DICT|INTERRES
    51   24   84 1    
    52   25   26 2    
    53   27   28 2    
    54   27   29 am   BACKBONE|DICT|INTERRES
    55   29   30 1    
    56   29   85 1    
    57   30   31 1    
    58   30   32 1    
    59   30   86 1    
    60   31   87 1    
    61   31   88 1    
    62   31   89 1    
    63   32   33 2    
    64   32   34 am   BACKBONE|DICT|INTERRES
    65   34   35 1    
    66   34   90 1    
    67   35   36 1    
    68   35   37 1    
    69   35   91 1    
    70   36   92 1    
    71   36   93 1    
    72   36   94 1    
    73   37   38 2    
    74   37   39 am   BACKBONE|DICT|INTERRES
    75   39   40 1    
    76   39   95 1    
    77   40   41 1    
    78   40   42 1    
    79   40   96 1    
    80   41   97 1    
    81   41   98 1    
    82   41   99 1    
    83   42   43 2    
    84   42   44 am   BACKBONE|DICT|INTERRES
    85   44   45 1    
    86   44  100 1    
    87   45   46 1    
    88   45   47 1    
    89   45  101 1    
    90   46  102 1    
    91   46  103 1    
    92   46  104 1    
    93   47   48 2    
    94   47   49 am   BACKBONE|DICT|INTERRES
    95   49   50 1    
    96   49  105 1    
    97   50   51 1    
    98   50   52 1    
    99   50  106 1    
   100   51  107 1    
   101   51  108 1    
   102   51  109 1    
   103   52   53 2    
   104   52   54 am   BACKBONE|DICT|INTERRES
   105   54   55 1    
   106   54  110 1    
   107   55   56 1    
   108   55   59 1    
   109   55  111 1    
   110   56   57 am   BACKBONE|DICT|INTERRES
   111   56   58 2    
   112   57  112 1    
   113   57  113 1    
   114   59   60 1    
   115   59  114 1    
   116   59  115 1    
   117   60   61 1    
   118   61  116 1    
   119   61  117 1    
@<TRIPOS>SUBSTRUCTURE
     1 UNK         1 GROUP             0       ****    0 ROOT    
