@<TRIPOS>MOLECULE
3R8
117   119    1
SMALL
USER_CHARGES


@<TRIPOS>ATOM
      1 CA         13.9901  -23.2792  -42.5419 C.3       0 UNK        -0.2013 
      2 C          14.9033  -23.6498  -43.7009 C.2       0 UNK         0.4866 
      3 O          15.1379  -22.8250  -44.5849 O.2       0 UNK        -0.5176 
      4 N          15.4128  -24.8871  -43.7096 N.am      1 UNK        -0.4884 
      5 CA         16.3698  -25.4004  -44.6930 C.3       1 UNK         0.0853 
      6 C6         16.4503  -26.9521  -44.6809 C.3       10 UNK        -0.0849 
      7 S7         16.5071  -27.7160  -43.0161 S.3       10 UNK        -0.2776 
      8 C8         16.5789  -29.4952  -43.4074 C.3       10 UNK         0.0316 
      9 C9         17.9696  -29.9092  -43.8638 C.ar      10 UNK        -0.0863 
     10 C10        18.9188  -30.3597  -42.9400 C.ar      10 UNK        -0.1009 
     11 C11        20.2117  -30.6927  -43.3595 C.ar      10 UNK        -0.0712 
     12 C12        20.5534  -30.5631  -44.7087 C.ar      10 UNK        -0.0894 
     13 C13        19.6103  -30.1187  -45.6374 C.ar      10 UNK        -0.0745 
     14 C14        18.3141  -29.8210  -45.2138 C.ar      10 UNK        -0.0972 
     15 C15        19.9849  -29.9284  -47.0959 C.3       10 UNK         0.0209 
     16 S16        20.0827  -28.1597  -47.5154 S.3       10 UNK        -0.2568 
     17 C17        21.7386  -27.6938  -46.8939 C.3       10 UNK        -0.0983 
     18 CA         21.7597  -26.6693  -45.7222 C.3       3 UNK         0.0876 
     19 N          20.7287  -25.6347  -45.8537 N.am      3 UNK        -0.4424 
     20 C          20.8087  -24.3886  -45.3713 C.2       2 UNK         0.4918 
     21 O          21.7757  -23.9591  -44.7422 O.2       2 UNK        -0.4875 
     22 CA         19.5931  -23.4776  -45.6133 C.3       2 UNK         0.0481 
     23 CB         19.7497  -22.7192  -46.9407 C.3       2 UNK        -0.1831 
     24 N          18.3126  -24.1962  -45.6080 N.am      2 UNK        -0.4498 
     25 C          17.7530  -24.7364  -44.5148 C.2       1 UNK         0.5027 
     26 O          18.2872  -24.7236  -43.4044 O.2       1 UNK        -0.4969 
     27 C          21.8205  -27.3213  -44.3211 C.2       3 UNK         0.5005 
     28 O          22.7061  -28.1483  -44.0933 O.2       3 UNK        -0.5279 
     29 N          20.9569  -26.8975  -43.3799 N.am      4 UNK        -0.4463 
     30 CA         20.9403  -27.3180  -41.9699 C.3       4 UNK         0.0283 
     31 CB         19.8366  -26.5632  -41.2164 C.3       4 UNK        -0.1875 
     32 C          22.2797  -27.1505  -41.2319 C.2       4 UNK         0.4949 
     33 O          22.5556  -27.9128  -40.3059 O.2       4 UNK        -0.5039 
     34 N          23.1050  -26.1970  -41.6880 N.am      5 UNK        -0.4663 
     35 CA         24.4742  -25.9481  -41.2301 C.3       5 UNK         0.0242 
     36 CB         25.0216  -24.7107  -41.9599 C.3       5 UNK        -0.1982 
     37 C          25.4376  -27.1412  -41.3965 C.2       5 UNK         0.5017 
     38 O          26.4632  -27.1664  -40.7151 O.2       5 UNK        -0.5012 
     39 N          25.1026  -28.1096  -42.2662 N.am      6 UNK        -0.4439 
     40 CA         25.8275  -29.3777  -42.4050 C.3       6 UNK         0.0297 
     41 CB         25.3383  -30.1178  -43.6603 C.3       6 UNK        -0.2006 
     42 C          25.7126  -30.2822  -41.1604 C.2       6 UNK         0.4892 
     43 O          26.6540  -31.0276  -40.8857 O.2       6 UNK        -0.5089 
     44 N          24.5907  -30.1609  -40.4294 N.am      7 UNK        -0.4243 
     45 CA         24.2284  -30.8324  -39.1742 C.3       7 UNK         0.0196 
     46 CB         25.2296  -30.4622  -38.0590 C.3       7 UNK        -0.2007 
     47 C          24.0444  -32.3608  -39.2771 C.2       7 UNK         0.5020 
     48 O          24.4319  -32.9882  -40.2633 O.2       7 UNK        -0.5147 
     49 N          23.4404  -32.9297  -38.2216 N.am      8 UNK        -0.4734 
     50 CA         23.2103  -34.3651  -37.9837 C.3       8 UNK         0.0238 
     51 CB         24.5534  -35.1018  -37.7865 C.3       8 UNK        -0.1912 
     52 C          22.3046  -35.0609  -39.0232 C.2       8 UNK         0.5038 
     53 O          22.3980  -36.2786  -39.1909 O.2       8 UNK        -0.5046 
     54 N          21.4356  -34.2888  -39.6879 N.am      9 UNK        -0.4200 
     55 CA         20.5026  -34.7734  -40.7205 C.3       9 UNK         0.0839 
     56 C          19.2280  -35.4718  -40.1634 C.2       9 UNK         0.5513 
     57 N          18.9663  -35.4468  -38.8618 N.am      9 UNK        -0.7519 
     58 O          18.4644  -36.0550  -40.9287 O.2       9 UNK        -0.4960 
     59 C59        20.1313  -33.6612  -41.7361 C.3       10 UNK        -0.0876 
     60 S60        21.6031  -32.9284  -42.5300 S.3       10 UNK        -0.2414 
     61 C61        21.2611  -31.1518  -42.3587 C.3       10 UNK         0.0169 
     62 H62        13.0063  -22.9957  -42.9148 H         1 UNK         0.0903 
     63 H63        13.8626  -24.1058  -41.8430 H         1 UNK         0.0903 
     64 H64        14.4042  -22.4330  -41.9942 H         1 UNK         0.0903 
     65 H65        15.2200  -25.5182  -42.9435 H         1 UNK         0.3096 
     66 H66        15.9963  -25.1107  -45.6781 H         1 UNK         0.1121 
     67 H67        17.3099  -27.2851  -45.2631 H         1 UNK         0.0849 
     68 H68        15.5748  -27.3552  -45.1925 H         1 UNK         0.0849 
     69 H69        15.8360  -29.7387  -44.1686 H         1 UNK         0.0865 
     70 H70        16.2981  -30.0622  -42.5186 H         1 UNK         0.0865 
     71 H71        18.6569  -30.4301  -41.8932 H         1 UNK         0.1346 
     72 H72        21.5616  -30.7904  -45.0276 H         1 UNK         0.1412 
     73 H73        17.5847  -29.4813  -45.9362 H         1 UNK         0.1426 
     74 H74        19.2260  -30.3975  -47.7237 H         1 UNK         0.0716 
     75 H75        20.9272  -30.4242  -47.3339 H         1 UNK         0.0716 
     76 H76        22.2598  -27.2504  -47.7436 H         1 UNK         0.0695 
     77 H77        22.3148  -28.5896  -46.6548 H         1 UNK         0.0695 
     78 H78        22.7221  -26.1579  -45.8009 H         1 UNK         0.0983 
     79 H79        19.9011  -25.9121  -46.3620 H         1 UNK         0.3095 
     80 H80        19.5682  -22.7416  -44.8067 H         1 UNK         0.0454 
     81 H81        19.7604  -23.3953  -47.7966 H         1 UNK         0.0851 
     82 H82        20.6840  -22.1560  -46.9599 H         1 UNK         0.0851 
     83 H83        18.9408  -22.0032  -47.0872 H         1 UNK         0.0851 
     84 H84        17.8113  -24.2308  -46.4845 H         1 UNK         0.2976 
     85 H85        20.2656  -26.2088  -43.6442 H         1 UNK         0.3116 
     86 H86        20.6968  -28.3784  -41.9488 H         1 UNK         0.0646 
     87 H87        18.8561  -26.7680  -41.6419 H         1 UNK         0.0847 
     88 H88        19.9939  -25.4842  -41.2426 H         1 UNK         0.0847 
     89 H89        19.7990  -26.8640  -40.1685 H         1 UNK         0.0847 
     90 H90        22.7780  -25.6268  -42.4553 H         1 UNK         0.3040 
     91 H91        24.4257  -25.7269  -40.1617 H         1 UNK         0.1015 
     92 H92        26.0318  -24.4723  -41.6236 H         1 UNK         0.0786 
     93 H93        24.4044  -23.8319  -41.7713 H         1 UNK         0.0786 
     94 H94        25.0650  -24.8659  -43.0389 H         1 UNK         0.0786 
     95 H95        24.2492  -28.0107  -42.8104 H         1 UNK         0.3172 
     96 H96        26.8847  -29.1423  -42.5447 H         1 UNK         0.0595 
     97 H97        24.2844  -30.3862  -43.5882 H         1 UNK         0.0839 
     98 H98        25.8984  -31.0418  -43.8102 H         1 UNK         0.0839 
     99 H99        25.4669  -29.5103  -44.5562 H         1 UNK         0.0839 
    100 H100       23.9098  -29.4786  -40.7428 H         1 UNK         0.2998 
    101 H101       23.2564  -30.4174  -38.9021 H         1 UNK         0.0822 
    102 H102       25.3558  -29.3818  -37.9845 H         1 UNK         0.0787 
    103 H103       24.8892  -30.8129  -37.0843 H         1 UNK         0.0787 
    104 H104       26.2120  -30.9019  -38.2341 H         1 UNK         0.0787 
    105 H105       23.1390  -32.3214  -37.4718 H         1 UNK         0.3055 
    106 H106       22.6661  -34.4305  -37.0400 H         1 UNK         0.1106 
    107 H107       24.3953  -36.1299  -37.4583 H         1 UNK         0.0828 
    108 H108       25.1665  -34.6145  -37.0284 H         1 UNK         0.0828 
    109 H109       25.1314  -35.1418  -38.7104 H         1 UNK         0.0828 
    110 H110       21.4259  -33.2985  -39.4992 H         1 UNK         0.2931 
    111 H111       21.0263  -35.5459  -41.2874 H         1 UNK         0.0412 
    112 H112       19.5859  -34.9745  -38.2236 H         1 UNK         0.3472 
    113 H113       18.1393  -35.9076  -38.5151 H         1 UNK         0.3472 
    114 H114       19.4965  -34.0604  -42.5295 H         1 UNK         0.0970 
    115 H115       19.5443  -32.8835  -41.2449 H         1 UNK         0.0970 
    116 H116       20.9591  -30.9279  -41.3346 H         1 UNK         0.0612 
    117 H117       22.1835  -30.5958  -42.5285 H         1 UNK         0.0612 
@<TRIPOS>BOND
     1    1    2 1    
     2    1   62 1    
     3    1   63 1    
     4    1   64 1    
     5    2    3 2    
     6    2    4 am   BACKBONE|DICT|INTERRES
     7    4    5 1    
     8    4   65 1    
     9    5    6 1    
    10    5   25 1    
    11    5   66 1    
    12    6    7 1    
    13    6   67 1    
    14    6   68 1    
    15    7    8 1    
    16    8    9 1    
    17    8   69 1    
    18    8   70 1    
    19    9   10 ar   
    20    9   14 ar   
    21   10   11 ar   
    22   10   71 1    
    23   11   12 ar   
    24   11   61 1    
    25   12   13 ar   
    26   12   72 1    
    27   13   14 ar   
    28   13   15 1    
    29   14   73 1    
    30   15   16 1    
    31   15   74 1    
    32   15   75 1    
    33   16   17 1    
    34   17   18 1    
    35   17   76 1    
    36   17   77 1    
    37   18   19 1    
    38   18   27 1    
    39   18   78 1    
    40   19   20 am   BACKBONE|DICT|INTERRES
    41   19   79 1    
    42   20   21 2    
    43   20   22 1    
    44   22   23 1    
    45   22   24 1    
    46   22   80 1    
    47   23   81 1    
    48   23   82 1    
    49   23   83 1    
    50   24   25 am   BACKBONE|DICT|INTERRES
    51   24   84 1    
    52   25   26 2    
    53   27   28 2    
    54   27   29 am   BACKBONE|DICT|INTERRES
    55   29   30 1    
    56   29   85 1    
    57   30   31 1    
    58   30   32 1    
    59   30   86 1    
    60   31   87 1    
    61   31   88 1    
    62   31   89 1    
    63   32   33 2    
    64   32   34 am   BACKBONE|DICT|INTERRES
    65   34   35 1    
    66   34   90 1    
    67   35   36 1    
    68   35   37 1    
    69   35   91 1    
    70   36   92 1    
    71   36   93 1    
    72   36   94 1    
    73   37   38 2    
    74   37   39 am   BACKBONE|DICT|INTERRES
    75   39   40 1    
    76   39   95 1    
    77   40   41 1    
    78   40   42 1    
    79   40   96 1    
    80   41   97 1    
    81   41   98 1    
    82   41   99 1    
    83   42   43 2    
    84   42   44 am   BACKBONE|DICT|INTERRES
    85   44   45 1    
    86   44  100 1    
    87   45   46 1    
    88   45   47 1    
    89   45  101 1    
    90   46  102 1    
    91   46  103 1    
    92   46  104 1    
    93   47   48 2    
    94   47   49 am   BACKBONE|DICT|INTERRES
    95   49   50 1    
    96   49  105 1    
    97   50   51 1    
    98   50   52 1    
    99   50  106 1    
   100   51  107 1    
   101   51  108 1    
   102   51  109 1    
   103   52   53 2    
   104   52   54 am   BACKBONE|DICT|INTERRES
   105   54   55 1    
   106   54  110 1    
   107   55   56 1    
   108   55   59 1    
   109   55  111 1    
   110   56   57 am   BACKBONE|DICT|INTERRES
   111   56   58 2    
   112   57  112 1    
   113   57  113 1    
   114   59   60 1    
   115   59  114 1    
   116   59  115 1    
   117   60   61 1    
   118   61  116 1    
   119   61  117 1    
@<TRIPOS>SUBSTRUCTURE
     1 UNK         1 GROUP             0       ****    0 ROOT    
