@<TRIPOS>MOLECULE
3R8
117   119    1
SMALL
USER_CHARGES


@<TRIPOS>ATOM
      1 CA         12.9685  -24.1756  -42.0960 C.3       0 UNK        -0.2013 
      2 C          14.0661  -24.6314  -43.0459 C.2       0 UNK         0.4866 
      3 O          13.8649  -24.6311  -44.2610 O.2       0 UNK        -0.5176 
      4 N          15.2250  -25.0150  -42.5041 N.am      1 UNK        -0.4884 
      5 CA         16.3944  -25.4845  -43.2458 C.3       1 UNK         0.0853 
      6 C6         16.2743  -26.9623  -43.7164 C.3       10 UNK        -0.0849 
      7 S7         15.7412  -28.1462  -42.4255 S.3       10 UNK        -0.2776 
      8 C8         17.3088  -28.9233  -41.9262 C.3       10 UNK         0.0316 
      9 C9         17.7913  -29.9506  -42.9406 C.ar      10 UNK        -0.0863 
     10 C10        17.2687  -31.2474  -42.9312 C.ar      10 UNK        -0.1009 
     11 C11        17.7321  -32.2042  -43.8383 C.ar      10 UNK        -0.0712 
     12 C12        18.7202  -31.8516  -44.7616 C.ar      10 UNK        -0.0894 
     13 C13        19.2521  -30.5587  -44.7904 C.ar      10 UNK        -0.0745 
     14 C14        18.7860  -29.6153  -43.8646 C.ar      10 UNK        -0.0972 
     15 C15        20.3123  -30.2429  -45.8481 C.3       10 UNK         0.0209 
     16 S16        20.7020  -28.4746  -46.0835 S.3       10 UNK        -0.2568 
     17 C17        22.1656  -28.2956  -45.0157 C.3       10 UNK        -0.0983 
     18 CA         22.4342  -26.8098  -44.6728 C.3       3 UNK         0.0876 
     19 N          21.4663  -26.3098  -43.6948 N.am      3 UNK        -0.4424 
     20 C          21.1547  -25.0230  -43.5236 C.2       2 UNK         0.4918 
     21 O          21.6121  -24.1061  -44.2083 O.2       2 UNK        -0.4875 
     22 CA         20.0887  -24.7308  -42.4617 C.3       2 UNK         0.0481 
     23 CB         20.1474  -23.2783  -41.9455 C.3       2 UNK        -0.1831 
     24 N          18.7870  -25.0145  -43.0615 N.am      2 UNK        -0.4498 
     25 C          17.6477  -25.2238  -42.3925 C.2       1 UNK         0.5027 
     26 O          17.5564  -25.2063  -41.1613 O.2       1 UNK        -0.4969 
     27 C          23.8770  -26.6248  -44.1655 C.2       3 UNK         0.5005 
     28 O          24.1177  -26.6206  -42.9565 O.2       3 UNK        -0.5279 
     29 N          24.8309  -26.5425  -45.1048 N.am      4 UNK        -0.4463 
     30 CA         26.2715  -26.5193  -44.8179 C.3       4 UNK         0.0283 
     31 CB         27.0472  -26.1954  -46.1045 C.3       4 UNK        -0.1875 
     32 C          26.7814  -27.8344  -44.1983 C.2       4 UNK         0.4949 
     33 O          27.7483  -27.8159  -43.4359 O.2       4 UNK        -0.5039 
     34 N          26.0991  -28.9468  -44.5025 N.am      5 UNK        -0.4663 
     35 CA         26.3207  -30.2785  -43.9389 C.3       5 UNK         0.0242 
     36 CB         25.6994  -31.3211  -44.8881 C.3       5 UNK        -0.1982 
     37 C          25.7789  -30.3909  -42.4983 C.2       5 UNK         0.5017 
     38 O          24.8691  -31.1804  -42.2452 O.2       5 UNK        -0.5012 
     39 N          26.3570  -29.5930  -41.5891 N.am      6 UNK        -0.4439 
     40 CA         26.1124  -29.5535  -40.1418 C.3       6 UNK         0.0297 
     41 CB         26.6197  -30.8506  -39.4752 C.3       6 UNK        -0.2006 
     42 C          24.6559  -29.2161  -39.7607 C.2       6 UNK         0.4892 
     43 O          24.0819  -29.8732  -38.8900 O.2       6 UNK        -0.5089 
     44 N          24.0931  -28.1859  -40.4095 N.am      7 UNK        -0.4243 
     45 CA         22.7531  -27.6105  -40.2274 C.3       7 UNK         0.0196 
     46 CB         22.4996  -27.1522  -38.7771 C.3       7 UNK        -0.2007 
     47 C          21.6118  -28.4975  -40.7446 C.2       7 UNK         0.5020 
     48 O          20.7845  -28.0090  -41.5151 O.2       7 UNK        -0.5147 
     49 N          21.5709  -29.7638  -40.3223 N.am      8 UNK        -0.4734 
     50 CA         20.5021  -30.7035  -40.6417 C.3       8 UNK         0.0238 
     51 CB         19.4495  -30.6731  -39.5187 C.3       8 UNK        -0.1912 
     52 C          21.0452  -32.1186  -40.8469 C.2       8 UNK         0.5038 
     53 O          22.1331  -32.4438  -40.3681 O.2       8 UNK        -0.5046 
     54 N          20.2376  -32.9390  -41.5276 N.am      9 UNK        -0.4200 
     55 CA         20.4754  -34.3638  -41.7984 C.3       9 UNK         0.0839 
     56 C          20.4985  -35.2975  -40.5503 C.2       9 UNK         0.5513 
     57 N          20.0499  -34.8622  -39.3787 N.am      9 UNK        -0.7519 
     58 O          20.9402  -36.4394  -40.6502 O.2       9 UNK        -0.4960 
     59 C59        19.5027  -34.8900  -42.8889 C.3       10 UNK        -0.0876 
     60 S60        17.7373  -34.6369  -42.4705 S.3       10 UNK        -0.2414 
     61 C61        17.1394  -33.6072  -43.8490 C.3       10 UNK         0.0169 
     62 H62        12.6883  -23.1450  -42.3124 H         1 UNK         0.0903 
     63 H63        12.0850  -24.8020  -42.2163 H         1 UNK         0.0903 
     64 H64        13.2830  -24.2304  -41.0539 H         1 UNK         0.0903 
     65 H65        15.3716  -24.9779  -41.5023 H         1 UNK         0.3096 
     66 H66        16.4911  -24.8555  -44.1342 H         1 UNK         0.1121 
     67 H67        17.2027  -27.2999  -44.1775 H         1 UNK         0.0849 
     68 H68        15.5314  -27.0143  -44.5136 H         1 UNK         0.0849 
     69 H69        17.1554  -29.4124  -40.9637 H         1 UNK         0.0865 
     70 H70        18.0669  -28.1576  -41.7548 H         1 UNK         0.0865 
     71 H71        16.4984  -31.5120  -42.2191 H         1 UNK         0.1346 
     72 H72        19.0701  -32.5862  -45.4744 H         1 UNK         0.1412 
     73 H73        19.1951  -28.6157  -43.8479 H         1 UNK         0.1426 
     74 H74        19.9648  -30.6256  -46.8089 H         1 UNK         0.0716 
     75 H75        21.2258  -30.7920  -45.6152 H         1 UNK         0.0716 
     76 H76        23.0038  -28.7403  -45.5555 H         1 UNK         0.0695 
     77 H77        22.0366  -28.8870  -44.1063 H         1 UNK         0.0695 
     78 H78        22.3356  -26.2176  -45.5860 H         1 UNK         0.0983 
     79 H79        21.0947  -26.9916  -43.0367 H         1 UNK         0.3095 
     80 H80        20.2534  -25.4031  -41.6176 H         1 UNK         0.0454 
     81 H81        19.9228  -22.5590  -42.7337 H         1 UNK         0.0851 
     82 H82        21.1402  -23.0429  -41.5603 H         1 UNK         0.0851 
     83 H83        19.4402  -23.1144  -41.1325 H         1 UNK         0.0851 
     84 H84        18.7840  -25.0602  -44.0722 H         1 UNK         0.2976 
     85 H85        24.5629  -26.5428  -46.0794 H         1 UNK         0.3116 
     86 H86        26.4585  -25.7219  -44.0954 H         1 UNK         0.0646 
     87 H87        26.8901  -26.9514  -46.8749 H         1 UNK         0.0847 
     88 H88        28.1197  -26.1476  -45.9104 H         1 UNK         0.0847 
     89 H89        26.7521  -25.2294  -46.5146 H         1 UNK         0.0847 
     90 H90        25.3132  -28.8545  -45.1277 H         1 UNK         0.3040 
     91 H91        27.3961  -30.4666  -43.8953 H         1 UNK         0.1015 
     92 H92        24.6212  -31.1876  -44.9874 H         1 UNK         0.0786 
     93 H93        25.8699  -32.3340  -44.5207 H         1 UNK         0.0786 
     94 H94        26.1384  -31.2629  -45.8843 H         1 UNK         0.0786 
     95 H95        27.0519  -28.9398  -41.9418 H         1 UNK         0.3172 
     96 H96        26.7189  -28.7324  -39.7569 H         1 UNK         0.0595 
     97 H97        26.5567  -30.7827  -38.3884 H         1 UNK         0.0839 
     98 H98        27.6623  -31.0460  -39.7256 H         1 UNK         0.0839 
     99 H99        26.0322  -31.7175  -39.7801 H         1 UNK         0.0839 
    100 H100       24.6175  -27.7562  -41.1638 H         1 UNK         0.2998 
    101 H101       22.7373  -26.7067  -40.8366 H         1 UNK         0.0822 
    102 H102       21.5509  -26.6189  -38.7027 H         1 UNK         0.0787 
    103 H103       22.4508  -27.9898  -38.0811 H         1 UNK         0.0787 
    104 H104       23.2806  -26.4740  -38.4335 H         1 UNK         0.0787 
    105 H105       22.3382  -30.1206  -39.7563 H         1 UNK         0.3055 
    106 H106       20.0418  -30.4052  -41.5816 H         1 UNK         0.1106 
    107 H107       18.6036  -31.3216  -39.7500 H         1 UNK         0.0828 
    108 H108       19.8687  -31.0052  -38.5682 H         1 UNK         0.0828 
    109 H109       19.0549  -29.6675  -39.3728 H         1 UNK         0.0828 
    110 H110       19.3538  -32.5869  -41.8678 H         1 UNK         0.2931 
    111 H111       21.4814  -34.4255  -42.2180 H         1 UNK         0.0412 
    112 H112       19.6843  -33.9289  -39.2868 H         1 UNK         0.3472 
    113 H113       20.0750  -35.4771  -38.5805 H         1 UNK         0.3472 
    114 H114       19.6666  -35.9533  -43.0742 H         1 UNK         0.0970 
    115 H115       19.7262  -34.4012  -43.8373 H         1 UNK         0.0970 
    116 H116       16.0528  -33.5353  -43.7828 H         1 UNK         0.0612 
    117 H117       17.3514  -34.1126  -44.7926 H         1 UNK         0.0612 
@<TRIPOS>BOND
     1    1    2 1    
     2    1   62 1    
     3    1   63 1    
     4    1   64 1    
     5    2    3 2    
     6    2    4 am   BACKBONE|DICT|INTERRES
     7    4    5 1    
     8    4   65 1    
     9    5    6 1    
    10    5   25 1    
    11    5   66 1    
    12    6    7 1    
    13    6   67 1    
    14    6   68 1    
    15    7    8 1    
    16    8    9 1    
    17    8   69 1    
    18    8   70 1    
    19    9   10 ar   
    20    9   14 ar   
    21   10   11 ar   
    22   10   71 1    
    23   11   12 ar   
    24   11   61 1    
    25   12   13 ar   
    26   12   72 1    
    27   13   14 ar   
    28   13   15 1    
    29   14   73 1    
    30   15   16 1    
    31   15   74 1    
    32   15   75 1    
    33   16   17 1    
    34   17   18 1    
    35   17   76 1    
    36   17   77 1    
    37   18   19 1    
    38   18   27 1    
    39   18   78 1    
    40   19   20 am   BACKBONE|DICT|INTERRES
    41   19   79 1    
    42   20   21 2    
    43   20   22 1    
    44   22   23 1    
    45   22   24 1    
    46   22   80 1    
    47   23   81 1    
    48   23   82 1    
    49   23   83 1    
    50   24   25 am   BACKBONE|DICT|INTERRES
    51   24   84 1    
    52   25   26 2    
    53   27   28 2    
    54   27   29 am   BACKBONE|DICT|INTERRES
    55   29   30 1    
    56   29   85 1    
    57   30   31 1    
    58   30   32 1    
    59   30   86 1    
    60   31   87 1    
    61   31   88 1    
    62   31   89 1    
    63   32   33 2    
    64   32   34 am   BACKBONE|DICT|INTERRES
    65   34   35 1    
    66   34   90 1    
    67   35   36 1    
    68   35   37 1    
    69   35   91 1    
    70   36   92 1    
    71   36   93 1    
    72   36   94 1    
    73   37   38 2    
    74   37   39 am   BACKBONE|DICT|INTERRES
    75   39   40 1    
    76   39   95 1    
    77   40   41 1    
    78   40   42 1    
    79   40   96 1    
    80   41   97 1    
    81   41   98 1    
    82   41   99 1    
    83   42   43 2    
    84   42   44 am   BACKBONE|DICT|INTERRES
    85   44   45 1    
    86   44  100 1    
    87   45   46 1    
    88   45   47 1    
    89   45  101 1    
    90   46  102 1    
    91   46  103 1    
    92   46  104 1    
    93   47   48 2    
    94   47   49 am   BACKBONE|DICT|INTERRES
    95   49   50 1    
    96   49  105 1    
    97   50   51 1    
    98   50   52 1    
    99   50  106 1    
   100   51  107 1    
   101   51  108 1    
   102   51  109 1    
   103   52   53 2    
   104   52   54 am   BACKBONE|DICT|INTERRES
   105   54   55 1    
   106   54  110 1    
   107   55   56 1    
   108   55   59 1    
   109   55  111 1    
   110   56   57 am   BACKBONE|DICT|INTERRES
   111   56   58 2    
   112   57  112 1    
   113   57  113 1    
   114   59   60 1    
   115   59  114 1    
   116   59  115 1    
   117   60   61 1    
   118   61  116 1    
   119   61  117 1    
@<TRIPOS>SUBSTRUCTURE
     1 UNK         1 GROUP             0       ****    0 ROOT    
