@<TRIPOS>MOLECULE
3R8
117   119    1
SMALL
USER_CHARGES


@<TRIPOS>ATOM
      1 CA         14.7718  -22.9395  -41.7680 C.3       0 UNK        -0.2013 
      2 C          14.9687  -23.7577  -43.0356 C.2       0 UNK         0.4866 
      3 O          14.0696  -23.8107  -43.8757 O.2       0 UNK        -0.5176 
      4 N          16.1364  -24.3914  -43.1810 N.am      1 UNK        -0.4884 
      5 CA         16.4982  -25.2214  -44.3305 C.3       1 UNK         0.0853 
      6 C6         15.8571  -26.6374  -44.3216 C.3       10 UNK        -0.0849 
      7 S7         15.9771  -27.5355  -42.7307 S.3       10 UNK        -0.2776 
      8 C8         14.9935  -29.0238  -43.0947 C.3       10 UNK         0.0316 
      9 C9         15.8765  -30.1954  -43.4993 C.ar      10 UNK        -0.0863 
     10 C10        16.1194  -31.2347  -42.5971 C.ar      10 UNK        -0.1009 
     11 C11        16.9054  -32.3294  -42.9677 C.ar      10 UNK        -0.0712 
     12 C12        17.4769  -32.3665  -44.2443 C.ar      10 UNK        -0.0894 
     13 C13        17.2555  -31.3251  -45.1515 C.ar      10 UNK        -0.0745 
     14 C14        16.4350  -30.2555  -44.7787 C.ar      10 UNK        -0.0972 
     15 C15        17.8596  -31.3784  -46.5500 C.3       10 UNK         0.0209 
     16 S16        18.7622  -29.8567  -46.9930 S.3       10 UNK        -0.2568 
     17 C17        20.3729  -30.1252  -46.1853 C.3       10 UNK        -0.0983 
     18 CA         21.1260  -28.7891  -45.9771 C.3       3 UNK         0.0876 
     19 N          20.5130  -27.9754  -44.9185 N.am      3 UNK        -0.4424 
     20 C          20.7914  -26.6854  -44.6906 C.2       2 UNK         0.4918 
     21 O          21.5036  -25.9981  -45.4258 O.2       2 UNK        -0.4875 
     22 CA         20.1579  -26.0770  -43.4249 C.3       2 UNK         0.0481 
     23 CB         20.8147  -24.7425  -43.0142 C.3       2 UNK        -0.1831 
     24 N          18.7032  -25.9249  -43.5446 N.am      2 UNK        -0.4498 
     25 C          18.0266  -25.2307  -44.4728 C.2       1 UNK         0.5027 
     26 O          18.5492  -24.5806  -45.3788 O.2       1 UNK        -0.4969 
     27 C          22.6355  -29.0198  -45.7318 C.2       3 UNK         0.5005 
     28 O          23.3859  -29.1879  -46.6949 O.2       3 UNK        -0.5279 
     29 N          23.0578  -28.9709  -44.4642 N.am      4 UNK        -0.4463 
     30 CA         24.4419  -28.8550  -44.0182 C.3       4 UNK         0.0283 
     31 CB         24.9254  -30.2172  -43.4995 C.3       4 UNK        -0.1875 
     32 C          24.5083  -27.7863  -42.9176 C.2       4 UNK         0.4949 
     33 O          23.4683  -27.2967  -42.4719 O.2       4 UNK        -0.5039 
     34 N          25.7335  -27.4475  -42.4979 N.am      5 UNK        -0.4663 
     35 CA         26.0153  -26.5078  -41.4108 C.3       5 UNK         0.0242 
     36 CB         27.4424  -25.9484  -41.5851 C.3       5 UNK        -0.1982 
     37 C          25.7705  -27.1672  -40.0398 C.2       5 UNK         0.5017 
     38 O          24.6195  -27.2791  -39.6188 O.2       5 UNK        -0.5012 
     39 N          26.8442  -27.6085  -39.3683 N.am      6 UNK        -0.4439 
     40 CA         26.8114  -28.2189  -38.0324 C.3       6 UNK         0.0297 
     41 CB         28.2503  -28.4369  -37.5372 C.3       6 UNK        -0.2006 
     42 C          26.0117  -29.5333  -37.9538 C.2       6 UNK         0.4892 
     43 O          25.4453  -29.8309  -36.9018 O.2       6 UNK        -0.5089 
     44 N          25.9705  -30.2844  -39.0630 N.am      7 UNK        -0.4243 
     45 CA         25.2019  -31.5243  -39.1969 C.3       7 UNK         0.0196 
     46 CB         25.8389  -32.3928  -40.2950 C.3       7 UNK        -0.2007 
     47 C          23.7058  -31.2948  -39.4843 C.2       7 UNK         0.5020 
     48 O          22.9358  -32.2491  -39.3726 O.2       7 UNK        -0.5147 
     49 N          23.3214  -30.0654  -39.8657 N.am      8 UNK        -0.4734 
     50 CA         21.9792  -29.5807  -40.2269 C.3       8 UNK         0.0238 
     51 CB         21.0143  -29.6472  -39.0270 C.3       8 UNK        -0.1912 
     52 C          21.3653  -30.2434  -41.4738 C.2       8 UNK         0.5038 
     53 O          21.0427  -29.5410  -42.4320 O.2       8 UNK        -0.5046 
     54 N          21.2109  -31.5691  -41.4366 N.am      9 UNK        -0.4200 
     55 CA         20.6590  -32.3927  -42.5202 C.3       9 UNK         0.0839 
     56 C          21.7192  -32.8319  -43.5640 C.2       9 UNK         0.5513 
     57 N          22.9960  -32.9064  -43.2107 N.am      9 UNK        -0.7519 
     58 O          21.3736  -33.1203  -44.7059 O.2       9 UNK        -0.4960 
     59 C59        19.9178  -33.6358  -41.9684 C.3       10 UNK        -0.0876 
     60 S60        18.5166  -33.2028  -40.8835 S.3       10 UNK        -0.2414 
     61 C61        17.1022  -33.4813  -41.9928 C.3       10 UNK         0.0169 
     62 H62        13.9123  -23.3124  -41.2115 H         1 UNK         0.0903 
     63 H63        14.5882  -21.8953  -42.0198 H         1 UNK         0.0903 
     64 H64        15.6428  -22.9829  -41.1143 H         1 UNK         0.0903 
     65 H65        16.8538  -24.2955  -42.4748 H         1 UNK         0.3096 
     66 H66        16.1316  -24.7154  -45.2275 H         1 UNK         0.1121 
     67 H67        14.7977  -26.5398  -44.5641 H         1 UNK         0.0849 
     68 H68        16.2846  -27.2478  -45.1178 H         1 UNK         0.0849 
     69 H69        14.4131  -29.2785  -42.2066 H         1 UNK         0.0865 
     70 H70        14.2629  -28.8193  -43.8787 H         1 UNK         0.0865 
     71 H71        15.6841  -31.2016  -41.6075 H         1 UNK         0.1346 
     72 H72        18.0882  -33.2103  -44.5337 H         1 UNK         0.1412 
     73 H73        16.2381  -29.4664  -45.4896 H         1 UNK         0.1426 
     74 H74        18.5275  -32.2347  -46.6590 H         1 UNK         0.0716 
     75 H75        17.0519  -31.5245  -47.2682 H         1 UNK         0.0716 
     76 H76        20.9446  -30.8083  -46.8170 H         1 UNK         0.0695 
     77 H77        20.2248  -30.6349  -45.2322 H         1 UNK         0.0695 
     78 H78        21.0625  -28.2167  -46.9055 H         1 UNK         0.0983 
     79 H79        19.9534  -28.4775  -44.2421 H         1 UNK         0.3095 
     80 H80        20.3314  -26.7854  -42.6131 H         1 UNK         0.0454 
     81 H81        20.3986  -24.3663  -42.0801 H         1 UNK         0.0851 
     82 H82        20.6867  -23.9713  -43.7743 H         1 UNK         0.0851 
     83 H83        21.8870  -24.8730  -42.8616 H         1 UNK         0.0851 
     84 H84        18.1508  -26.4524  -42.8794 H         1 UNK         0.2976 
     85 H85        22.3663  -28.8179  -43.7331 H         1 UNK         0.3116 
     86 H86        25.0780  -28.5288  -44.8438 H         1 UNK         0.0646 
     87 H87        24.8376  -30.9833  -44.2696 H         1 UNK         0.0847 
     88 H88        25.9730  -30.1826  -43.2000 H         1 UNK         0.0847 
     89 H89        24.3448  -30.5385  -42.6354 H         1 UNK         0.0847 
     90 H90        26.5318  -27.8982  -42.9220 H         1 UNK         0.3040 
     91 H91        25.3195  -25.6682  -41.4824 H         1 UNK         0.1015 
     92 H92        28.1978  -26.7341  -41.6228 H         1 UNK         0.0786 
     93 H93        27.7031  -25.2711  -40.7702 H         1 UNK         0.0786 
     94 H94        27.5230  -25.3750  -42.5090 H         1 UNK         0.0786 
     95 H95        27.7544  -27.4769  -39.7858 H         1 UNK         0.3172 
     96 H96        26.3268  -27.5067  -37.3611 H         1 UNK         0.0595 
     97 H97        28.8031  -29.1187  -38.1848 H         1 UNK         0.0839 
     98 H98        28.2566  -28.8655  -36.5338 H         1 UNK         0.0839 
     99 H99        28.8014  -27.4976  -37.4874 H         1 UNK         0.0839 
    100 H100       26.4805  -29.9678  -39.8746 H         1 UNK         0.2998 
    101 H101       25.2632  -32.0770  -38.2566 H         1 UNK         0.0822 
    102 H102       26.8706  -32.6451  -40.0488 H         1 UNK         0.0787 
    103 H103       25.2996  -33.3338  -40.4138 H         1 UNK         0.0787 
    104 H104       25.8402  -31.8929  -41.2628 H         1 UNK         0.0787 
    105 H105       24.0323  -29.3431  -39.8884 H         1 UNK         0.3055 
    106 H106       22.1086  -28.5255  -40.4753 H         1 UNK         0.1106 
    107 H107       21.4007  -29.0810  -38.1796 H         1 UNK         0.0828 
    108 H108       20.0437  -29.2217  -39.2855 H         1 UNK         0.0828 
    109 H109       20.8396  -30.6705  -38.6936 H         1 UNK         0.0828 
    110 H110       21.5663  -32.0578  -40.6195 H         1 UNK         0.2931 
    111 H111       19.9290  -31.7878  -43.0597 H         1 UNK         0.0412 
    112 H112       23.6757  -33.2070  -43.8908 H         1 UNK         0.3472 
    113 H113       23.2760  -32.7061  -42.2652 H         1 UNK         0.3472 
    114 H114       19.5581  -34.2660  -42.7837 H         1 UNK         0.0970 
    115 H115       20.6056  -34.2604  -41.3951 H         1 UNK         0.0970 
    116 H116       17.2237  -34.4239  -42.5283 H         1 UNK         0.0612 
    117 H117       16.2051  -33.5991  -41.3832 H         1 UNK         0.0612 
@<TRIPOS>BOND
     1    1    2 1    
     2    1   62 1    
     3    1   63 1    
     4    1   64 1    
     5    2    3 2    
     6    2    4 am   BACKBONE|DICT|INTERRES
     7    4    5 1    
     8    4   65 1    
     9    5    6 1    
    10    5   25 1    
    11    5   66 1    
    12    6    7 1    
    13    6   67 1    
    14    6   68 1    
    15    7    8 1    
    16    8    9 1    
    17    8   69 1    
    18    8   70 1    
    19    9   10 ar   
    20    9   14 ar   
    21   10   11 ar   
    22   10   71 1    
    23   11   12 ar   
    24   11   61 1    
    25   12   13 ar   
    26   12   72 1    
    27   13   14 ar   
    28   13   15 1    
    29   14   73 1    
    30   15   16 1    
    31   15   74 1    
    32   15   75 1    
    33   16   17 1    
    34   17   18 1    
    35   17   76 1    
    36   17   77 1    
    37   18   19 1    
    38   18   27 1    
    39   18   78 1    
    40   19   20 am   BACKBONE|DICT|INTERRES
    41   19   79 1    
    42   20   21 2    
    43   20   22 1    
    44   22   23 1    
    45   22   24 1    
    46   22   80 1    
    47   23   81 1    
    48   23   82 1    
    49   23   83 1    
    50   24   25 am   BACKBONE|DICT|INTERRES
    51   24   84 1    
    52   25   26 2    
    53   27   28 2    
    54   27   29 am   BACKBONE|DICT|INTERRES
    55   29   30 1    
    56   29   85 1    
    57   30   31 1    
    58   30   32 1    
    59   30   86 1    
    60   31   87 1    
    61   31   88 1    
    62   31   89 1    
    63   32   33 2    
    64   32   34 am   BACKBONE|DICT|INTERRES
    65   34   35 1    
    66   34   90 1    
    67   35   36 1    
    68   35   37 1    
    69   35   91 1    
    70   36   92 1    
    71   36   93 1    
    72   36   94 1    
    73   37   38 2    
    74   37   39 am   BACKBONE|DICT|INTERRES
    75   39   40 1    
    76   39   95 1    
    77   40   41 1    
    78   40   42 1    
    79   40   96 1    
    80   41   97 1    
    81   41   98 1    
    82   41   99 1    
    83   42   43 2    
    84   42   44 am   BACKBONE|DICT|INTERRES
    85   44   45 1    
    86   44  100 1    
    87   45   46 1    
    88   45   47 1    
    89   45  101 1    
    90   46  102 1    
    91   46  103 1    
    92   46  104 1    
    93   47   48 2    
    94   47   49 am   BACKBONE|DICT|INTERRES
    95   49   50 1    
    96   49  105 1    
    97   50   51 1    
    98   50   52 1    
    99   50  106 1    
   100   51  107 1    
   101   51  108 1    
   102   51  109 1    
   103   52   53 2    
   104   52   54 am   BACKBONE|DICT|INTERRES
   105   54   55 1    
   106   54  110 1    
   107   55   56 1    
   108   55   59 1    
   109   55  111 1    
   110   56   57 am   BACKBONE|DICT|INTERRES
   111   56   58 2    
   112   57  112 1    
   113   57  113 1    
   114   59   60 1    
   115   59  114 1    
   116   59  115 1    
   117   60   61 1    
   118   61  116 1    
   119   61  117 1    
@<TRIPOS>SUBSTRUCTURE
     1 UNK         1 GROUP             0       ****    0 ROOT    
