@<TRIPOS>MOLECULE
3R8
117   119    1
SMALL
USER_CHARGES


@<TRIPOS>ATOM
      1 CA         23.4110  -31.9194  -45.2348 C.3       0 UNK        -0.2013 
      2 C          22.0148  -31.3472  -45.0409 C.2       0 UNK         0.4866 
      3 O          21.0447  -32.1036  -45.0138 O.2       0 UNK        -0.5176 
      4 N          21.9115  -30.0197  -44.9145 N.am      1 UNK        -0.4884 
      5 CA         20.6649  -29.2950  -44.6777 C.3       1 UNK         0.0853 
      6 C6         20.2851  -28.3762  -45.8694 C.3       10 UNK        -0.0849 
      7 S7         19.5712  -29.3207  -47.2546 S.3       10 UNK        -0.2776 
      8 C8         17.8091  -28.8419  -47.1608 C.3       10 UNK         0.0316 
      9 C9         17.1720  -29.1205  -45.8012 C.ar      10 UNK        -0.0863 
     10 C10        17.3214  -30.3675  -45.1869 C.ar      10 UNK        -0.1009 
     11 C11        16.7600  -30.6163  -43.9328 C.ar      10 UNK        -0.0712 
     12 C12        16.0021  -29.6226  -43.3075 C.ar      10 UNK        -0.0894 
     13 C13        15.8137  -28.3819  -43.9245 C.ar      10 UNK        -0.0745 
     14 C14        16.4115  -28.1328  -45.1651 C.ar      10 UNK        -0.0972 
     15 C15        14.9199  -27.3347  -43.2722 C.3       10 UNK         0.0209 
     16 S16        15.7088  -26.5215  -41.8475 S.3       10 UNK        -0.2568 
     17 C17        16.8885  -25.3964  -42.6664 C.3       10 UNK        -0.0983 
     18 CA         18.2412  -25.3107  -41.9180 C.3       3 UNK         0.0876 
     19 N          18.8588  -26.6287  -41.7707 N.am      3 UNK        -0.4424 
     20 C          19.7933  -26.9407  -40.8655 C.2       2 UNK         0.4918 
     21 O          20.1961  -26.1611  -40.0021 O.2       2 UNK        -0.4875 
     22 CA         20.3820  -28.3617  -40.9445 C.3       2 UNK         0.0481 
     23 CB         19.6924  -29.2798  -39.9235 C.3       2 UNK        -0.1831 
     24 N          20.3093  -28.9795  -42.2760 N.am      2 UNK        -0.4498 
     25 C          20.8564  -28.4816  -43.3945 C.2       1 UNK         0.5027 
     26 O          21.4712  -27.4144  -43.4485 O.2       1 UNK        -0.4969 
     27 C          19.1705  -24.2961  -42.6209 C.2       3 UNK         0.5005 
     28 O          18.9508  -23.0927  -42.4714 O.2       3 UNK        -0.5279 
     29 N          20.1562  -24.7776  -43.3943 N.am      4 UNK        -0.4463 
     30 CA         21.0256  -23.9554  -44.2390 C.3       4 UNK         0.0283 
     31 CB         21.0605  -24.5539  -45.6548 C.3       4 UNK        -0.1875 
     32 C          22.4529  -23.8425  -43.6859 C.2       4 UNK         0.4949 
     33 O          23.0686  -22.7877  -43.8445 O.2       4 UNK        -0.5039 
     34 N          22.9675  -24.9132  -43.0706 N.am      5 UNK        -0.4663 
     35 CA         24.3357  -25.0046  -42.5638 C.3       5 UNK         0.0242 
     36 CB         25.2507  -25.5368  -43.6835 C.3       5 UNK        -0.1982 
     37 C          24.3828  -25.9213  -41.3369 C.2       5 UNK         0.5017 
     38 O          23.4196  -26.6387  -41.0630 O.2       5 UNK        -0.5012 
     39 N          25.5215  -25.9111  -40.6329 N.am      6 UNK        -0.4439 
     40 CA         25.8121  -26.7804  -39.4899 C.3       6 UNK         0.0297 
     41 CB         26.9104  -26.1261  -38.6303 C.3       6 UNK        -0.2006 
     42 C          26.1880  -28.2034  -39.9508 C.2       6 UNK         0.4892 
     43 O          27.3347  -28.6249  -39.7870 O.2       6 UNK        -0.5089 
     44 N          25.2158  -28.9043  -40.5404 N.am      7 UNK        -0.4243 
     45 CA         25.3124  -30.2806  -41.0152 C.3       7 UNK         0.0196 
     46 CB         25.4183  -30.2778  -42.5493 C.3       7 UNK        -0.2007 
     47 C          24.0620  -31.0391  -40.5606 C.2       7 UNK         0.5020 
     48 O          22.9949  -30.4367  -40.4355 O.2       7 UNK        -0.5147 
     49 N          24.2051  -32.3475  -40.3285 N.am      8 UNK        -0.4734 
     50 CA         23.0987  -33.2252  -39.9469 C.3       8 UNK         0.0238 
     51 CB         23.6577  -34.4610  -39.2221 C.3       8 UNK        -0.1912 
     52 C          22.2890  -33.6475  -41.1818 C.2       8 UNK         0.5038 
     53 O          22.8847  -34.0133  -42.1979 O.2       8 UNK        -0.5046 
     54 N          20.9582  -33.6282  -41.0527 N.am      9 UNK        -0.4200 
     55 CA         20.0148  -34.1698  -42.0407 C.3       9 UNK         0.0839 
     56 C          20.0812  -35.7196  -42.1089 C.2       9 UNK         0.5513 
     57 N          19.9185  -36.2952  -43.2919 N.am      9 UNK        -0.7519 
     58 O          20.2331  -36.4012  -41.0967 O.2       9 UNK        -0.4960 
     59 C59        18.5688  -33.6939  -41.7483 C.3       10 UNK        -0.0876 
     60 S60        18.3601  -31.9151  -42.0984 S.3       10 UNK        -0.2414 
     61 C61        16.9669  -31.9652  -43.2663 C.3       10 UNK         0.0169 
     62 H62        23.6804  -32.5430  -44.3829 H         1 UNK         0.0903 
     63 H63        23.4411  -32.5377  -46.1315 H         1 UNK         0.0903 
     64 H64        24.1636  -31.1381  -45.3384 H         1 UNK         0.0903 
     65 H65        22.7432  -29.4454  -44.9179 H         1 UNK         0.3096 
     66 H66        19.8476  -29.9933  -44.4966 H         1 UNK         0.1121 
     67 H67        21.1611  -27.8384  -46.2354 H         1 UNK         0.0849 
     68 H68        19.5699  -27.6086  -45.5663 H         1 UNK         0.0849 
     69 H69        17.7239  -27.7848  -47.4176 H         1 UNK         0.0865 
     70 H70        17.2552  -29.3881  -47.9254 H         1 UNK         0.0865 
     71 H71        17.9008  -31.1396  -45.6759 H         1 UNK         0.1346 
     72 H72        15.5505  -29.8175  -42.3441 H         1 UNK         0.1412 
     73 H73        16.2674  -27.1740  -45.6446 H         1 UNK         0.1426 
     74 H74        14.0018  -27.8157  -42.9316 H         1 UNK         0.0716 
     75 H75        14.6118  -26.5785  -43.9960 H         1 UNK         0.0716 
     76 H76        16.4189  -24.4124  -42.7230 H         1 UNK         0.0695 
     77 H77        17.0462  -25.7174  -43.6972 H         1 UNK         0.0695 
     78 H78        18.0458  -24.9168  -40.9178 H         1 UNK         0.0983 
     79 H79        18.5394  -27.3467  -42.4036 H         1 UNK         0.3095 
     80 H80        21.4359  -28.2899  -40.6761 H         1 UNK         0.0454 
     81 H81        19.7629  -28.8661  -38.9167 H         1 UNK         0.0851 
     82 H82        20.1599  -30.2644  -39.8991 H         1 UNK         0.0851 
     83 H83        18.6337  -29.4130  -40.1494 H         1 UNK         0.0851 
     84 H84        19.8327  -29.8708  -42.3232 H         1 UNK         0.2976 
     85 H85        20.3367  -25.7758  -43.4007 H         1 UNK         0.3116 
     86 H86        20.6248  -22.9428  -44.3206 H         1 UNK         0.0646 
     87 H87        20.0597  -24.6344  -46.0794 H         1 UNK         0.0847 
     88 H88        21.5111  -25.5463  -45.6611 H         1 UNK         0.0847 
     89 H89        21.6485  -23.9276  -46.3270 H         1 UNK         0.0847 
     90 H90        22.4108  -25.7566  -42.9513 H         1 UNK         0.3040 
     91 H91        24.6777  -24.0159  -42.2489 H         1 UNK         0.1015 
     92 H92        26.2880  -25.6057  -43.3540 H         1 UNK         0.0786 
     93 H93        25.2346  -24.8808  -44.5541 H         1 UNK         0.0786 
     94 H94        24.9443  -26.5317  -44.0100 H         1 UNK         0.0786 
     95 H95        26.2777  -25.3192  -40.9462 H         1 UNK         0.3172 
     96 H96        24.9156  -26.8635  -38.8712 H         1 UNK         0.0595 
     97 H97        27.8388  -25.9946  -39.1875 H         1 UNK         0.0839 
     98 H98        27.1388  -26.7393  -37.7574 H         1 UNK         0.0839 
     99 H99        26.5976  -25.1484  -38.2633 H         1 UNK         0.0839 
    100 H100       24.2951  -28.4809  -40.6223 H         1 UNK         0.2998 
    101 H101       26.1919  -30.7682  -40.5890 H         1 UNK         0.0822 
    102 H102       24.5459  -29.8118  -43.0094 H         1 UNK         0.0787 
    103 H103       26.3026  -29.7348  -42.8835 H         1 UNK         0.0787 
    104 H104       25.4941  -31.2940  -42.9380 H         1 UNK         0.0787 
    105 H105       25.0966  -32.7889  -40.5042 H         1 UNK         0.3055 
    106 H106       22.4445  -32.6898  -39.2541 H         1 UNK         0.1106 
    107 H107       24.3270  -35.0378  -39.8620 H         1 UNK         0.0828 
    108 H108       22.8520  -35.1277  -38.9112 H         1 UNK         0.0828 
    109 H109       24.2093  -34.1801  -38.3247 H         1 UNK         0.0828 
    110 H110       20.5534  -33.3309  -40.1781 H         1 UNK         0.2931 
    111 H111       20.3081  -33.7857  -43.0197 H         1 UNK         0.0412 
    112 H112       19.9416  -37.3012  -43.3569 H         1 UNK         0.3472 
    113 H113       19.7903  -35.7417  -44.1253 H         1 UNK         0.3472 
    114 H114       17.8523  -34.2587  -42.3480 H         1 UNK         0.0970 
    115 H115       18.2977  -33.8859  -40.7086 H         1 UNK         0.0970 
    116 H116       16.0614  -32.2671  -42.7379 H         1 UNK         0.0612 
    117 H117       17.1543  -32.7271  -44.0249 H         1 UNK         0.0612 
@<TRIPOS>BOND
     1    1    2 1    
     2    1   62 1    
     3    1   63 1    
     4    1   64 1    
     5    2    3 2    
     6    2    4 am   BACKBONE|DICT|INTERRES
     7    4    5 1    
     8    4   65 1    
     9    5    6 1    
    10    5   25 1    
    11    5   66 1    
    12    6    7 1    
    13    6   67 1    
    14    6   68 1    
    15    7    8 1    
    16    8    9 1    
    17    8   69 1    
    18    8   70 1    
    19    9   10 ar   
    20    9   14 ar   
    21   10   11 ar   
    22   10   71 1    
    23   11   12 ar   
    24   11   61 1    
    25   12   13 ar   
    26   12   72 1    
    27   13   14 ar   
    28   13   15 1    
    29   14   73 1    
    30   15   16 1    
    31   15   74 1    
    32   15   75 1    
    33   16   17 1    
    34   17   18 1    
    35   17   76 1    
    36   17   77 1    
    37   18   19 1    
    38   18   27 1    
    39   18   78 1    
    40   19   20 am   BACKBONE|DICT|INTERRES
    41   19   79 1    
    42   20   21 2    
    43   20   22 1    
    44   22   23 1    
    45   22   24 1    
    46   22   80 1    
    47   23   81 1    
    48   23   82 1    
    49   23   83 1    
    50   24   25 am   BACKBONE|DICT|INTERRES
    51   24   84 1    
    52   25   26 2    
    53   27   28 2    
    54   27   29 am   BACKBONE|DICT|INTERRES
    55   29   30 1    
    56   29   85 1    
    57   30   31 1    
    58   30   32 1    
    59   30   86 1    
    60   31   87 1    
    61   31   88 1    
    62   31   89 1    
    63   32   33 2    
    64   32   34 am   BACKBONE|DICT|INTERRES
    65   34   35 1    
    66   34   90 1    
    67   35   36 1    
    68   35   37 1    
    69   35   91 1    
    70   36   92 1    
    71   36   93 1    
    72   36   94 1    
    73   37   38 2    
    74   37   39 am   BACKBONE|DICT|INTERRES
    75   39   40 1    
    76   39   95 1    
    77   40   41 1    
    78   40   42 1    
    79   40   96 1    
    80   41   97 1    
    81   41   98 1    
    82   41   99 1    
    83   42   43 2    
    84   42   44 am   BACKBONE|DICT|INTERRES
    85   44   45 1    
    86   44  100 1    
    87   45   46 1    
    88   45   47 1    
    89   45  101 1    
    90   46  102 1    
    91   46  103 1    
    92   46  104 1    
    93   47   48 2    
    94   47   49 am   BACKBONE|DICT|INTERRES
    95   49   50 1    
    96   49  105 1    
    97   50   51 1    
    98   50   52 1    
    99   50  106 1    
   100   51  107 1    
   101   51  108 1    
   102   51  109 1    
   103   52   53 2    
   104   52   54 am   BACKBONE|DICT|INTERRES
   105   54   55 1    
   106   54  110 1    
   107   55   56 1    
   108   55   59 1    
   109   55  111 1    
   110   56   57 am   BACKBONE|DICT|INTERRES
   111   56   58 2    
   112   57  112 1    
   113   57  113 1    
   114   59   60 1    
   115   59  114 1    
   116   59  115 1    
   117   60   61 1    
   118   61  116 1    
   119   61  117 1    
@<TRIPOS>SUBSTRUCTURE
     1 UNK         1 GROUP             0       ****    0 ROOT    
