@<TRIPOS>MOLECULE
3R8
117   119    1
SMALL
USER_CHARGES


@<TRIPOS>ATOM
      1 CA         18.0903  -27.8883  -41.4554 C.3       0 UNK        -0.2013 
      2 C          16.8519  -27.1645  -41.9579 C.2       0 UNK         0.4866 
      3 O          15.7987  -27.2413  -41.3241 O.2       0 UNK        -0.5176 
      4 N          16.9694  -26.4631  -43.0878 N.am      1 UNK        -0.4884 
      5 CA         15.8987  -25.6824  -43.7045 C.3       1 UNK         0.0853 
      6 C6         14.9184  -26.5503  -44.5483 C.3       10 UNK        -0.0849 
      7 S7         15.6418  -27.4316  -45.9807 S.3       10 UNK        -0.2776 
      8 C8         16.1186  -29.0560  -45.2861 C.3       10 UNK         0.0316 
      9 C9         17.6226  -29.3328  -45.3281 C.ar      10 UNK        -0.0863 
     10 C10        18.2062  -30.1253  -44.3341 C.ar      10 UNK        -0.1009 
     11 C11        19.5718  -30.4237  -44.3677 C.ar      10 UNK        -0.0712 
     12 C12        20.3634  -29.9064  -45.3987 C.ar      10 UNK        -0.0894 
     13 C13        19.8030  -29.1077  -46.4005 C.ar      10 UNK        -0.0745 
     14 C14        18.4270  -28.8506  -46.3682 C.ar      10 UNK        -0.0972 
     15 C15        20.6921  -28.5832  -47.5302 C.3       10 UNK         0.0209 
     16 S16        20.1475  -26.9935  -48.2560 S.3       10 UNK        -0.2568 
     17 C17        21.1480  -25.7436  -47.3697 C.3       10 UNK        -0.0983 
     18 CA         20.4906  -25.1034  -46.1136 C.3       3 UNK         0.0876 
     19 N          19.0938  -24.7407  -46.3175 N.am      3 UNK        -0.4424 
     20 C          18.6095  -23.5446  -46.6552 C.2       2 UNK         0.4918 
     21 O          19.3091  -22.5866  -46.9853 O.2       2 UNK        -0.4875 
     22 CA         17.0760  -23.3845  -46.5932 C.3       2 UNK         0.0481 
     23 CB         16.4743  -23.4586  -48.0053 C.3       2 UNK        -0.1831 
     24 N          16.4201  -24.3852  -45.7406 N.am      2 UNK        -0.4498 
     25 C          16.5334  -24.4664  -44.4072 C.2       1 UNK         0.5027 
     26 O          17.1338  -23.6309  -43.7282 O.2       1 UNK        -0.4969 
     27 C          20.5530  -26.0047  -44.8683 C.2       3 UNK         0.5005 
     28 O          19.5072  -26.3636  -44.3176 O.2       3 UNK        -0.5279 
     29 N          21.7703  -26.3520  -44.4409 N.am      4 UNK        -0.4463 
     30 CA         22.0327  -27.3229  -43.3866 C.3       4 UNK         0.0283 
     31 CB         22.0770  -26.6336  -42.0125 C.3       4 UNK        -0.1875 
     32 C          23.3531  -28.0263  -43.7097 C.2       4 UNK         0.4949 
     33 O          24.2669  -27.3874  -44.2360 O.2       4 UNK        -0.5039 
     34 N          23.4262  -29.3228  -43.3923 N.am      5 UNK        -0.4663 
     35 CA         24.5862  -30.1823  -43.6609 C.3       5 UNK         0.0242 
     36 CB         24.0795  -31.5614  -44.1196 C.3       5 UNK        -0.1982 
     37 C          25.5275  -30.3344  -42.4507 C.2       5 UNK         0.5017 
     38 O          26.5616  -30.9899  -42.5860 O.2       5 UNK        -0.5012 
     39 N          25.1491  -29.7546  -41.3001 N.am      6 UNK        -0.4439 
     40 CA         25.7619  -29.9130  -39.9732 C.3       6 UNK         0.0297 
     41 CB         27.2221  -29.4069  -39.9666 C.3       6 UNK        -0.2006 
     42 C          25.6156  -31.3491  -39.4225 C.2       6 UNK         0.4892 
     43 O          24.8418  -32.1429  -39.9652 O.2       6 UNK        -0.5089 
     44 N          26.3150  -31.6427  -38.3152 N.am      7 UNK        -0.4243 
     45 CA         26.2495  -32.8917  -37.5435 C.3       7 UNK         0.0196 
     46 CB         26.8692  -34.0639  -38.3398 C.3       7 UNK        -0.2007 
     47 C          24.8136  -33.1480  -37.0462 C.2       7 UNK         0.5020 
     48 O          24.3040  -32.3432  -36.2657 O.2       7 UNK        -0.5147 
     49 N          24.1626  -34.2121  -37.5361 N.am      8 UNK        -0.4734 
     50 CA         22.7547  -34.5316  -37.2653 C.3       8 UNK         0.0238 
     51 CB         22.4337  -35.9227  -37.8354 C.3       8 UNK        -0.1912 
     52 C          21.7603  -33.4843  -37.8071 C.2       8 UNK         0.5038 
     53 O          20.6601  -33.3680  -37.2663 O.2       8 UNK        -0.5046 
     54 N          22.1674  -32.7385  -38.8423 N.am      9 UNK        -0.4200 
     55 CA         21.4543  -31.5747  -39.3862 C.3       9 UNK         0.0839 
     56 C          21.7552  -30.2551  -38.6027 C.2       9 UNK         0.5513 
     57 N          22.6368  -30.2421  -37.6082 N.am      9 UNK        -0.7519 
     58 O          21.1625  -29.2169  -38.8789 O.2       9 UNK        -0.4960 
     59 C59        21.7298  -31.4649  -40.9113 C.3       10 UNK        -0.0876 
     60 S60        20.5998  -30.3550  -41.8133 S.3       10 UNK        -0.2414 
     61 C61        20.1891  -31.3153  -43.2989 C.3       10 UNK         0.0169 
     62 H62        18.4355  -27.4491  -40.5201 H         1 UNK         0.0903 
     63 H63        17.8653  -28.9392  -41.2769 H         1 UNK         0.0903 
     64 H64        18.9068  -27.8389  -42.1756 H         1 UNK         0.0903 
     65 H65        17.8754  -26.4196  -43.5591 H         1 UNK         0.3096 
     66 H66        15.3071  -25.2412  -42.8988 H         1 UNK         0.1121 
     67 H67        14.4267  -27.2767  -43.8998 H         1 UNK         0.0849 
     68 H68        14.1073  -25.9224  -44.9213 H         1 UNK         0.0849 
     69 H69        15.7542  -29.1388  -44.2614 H         1 UNK         0.0865 
     70 H70        15.6108  -29.8364  -45.8539 H         1 UNK         0.0865 
     71 H71        17.5963  -30.5214  -43.5336 H         1 UNK         0.1346 
     72 H72        21.4197  -30.1334  -45.4269 H         1 UNK         0.1412 
     73 H73        17.9779  -28.2687  -47.1594 H         1 UNK         0.1426 
     74 H74        20.6982  -29.3316  -48.3235 H         1 UNK         0.0716 
     75 H75        21.7247  -28.4908  -47.1906 H         1 UNK         0.0716 
     76 H76        21.3389  -24.9467  -48.0899 H         1 UNK         0.0695 
     77 H77        22.1334  -26.1544  -47.1449 H         1 UNK         0.0695 
     78 H78        21.0493  -24.2010  -45.8550 H         1 UNK         0.0983 
     79 H79        18.4496  -25.4525  -45.9999 H         1 UNK         0.3095 
     80 H80        16.8637  -22.3961  -46.1807 H         1 UNK         0.0454 
     81 H81        16.6460  -24.4322  -48.4664 H         1 UNK         0.0851 
     82 H82        16.9183  -22.7062  -48.6587 H         1 UNK         0.0851 
     83 H83        15.3994  -23.2778  -47.9900 H         1 UNK         0.0851 
     84 H84        15.9354  -25.1396  -46.2118 H         1 UNK         0.2976 
     85 H85        22.5974  -26.0463  -44.9392 H         1 UNK         0.3116 
     86 H86        21.2331  -28.0639  -43.3883 H         1 UNK         0.0646 
     87 H87        22.2439  -27.3603  -41.2162 H         1 UNK         0.0847 
     88 H88        21.1354  -26.1300  -41.7934 H         1 UNK         0.0847 
     89 H89        22.8754  -25.8927  -41.9576 H         1 UNK         0.0847 
     90 H90        22.6201  -29.7614  -42.9650 H         1 UNK         0.3040 
     91 H91        25.1806  -29.7567  -44.4729 H         1 UNK         0.1015 
     92 H92        23.4334  -31.4799  -44.9933 H         1 UNK         0.0786 
     93 H93        23.5249  -32.0725  -43.3324 H         1 UNK         0.0786 
     94 H94        24.9116  -32.2094  -44.3986 H         1 UNK         0.0786 
     95 H95        24.2842  -29.2356  -41.3182 H         1 UNK         0.3172 
     96 H96        25.1850  -29.2721  -39.3048 H         1 UNK         0.0595 
     97 H97        27.8948  -30.0960  -40.4787 H         1 UNK         0.0839 
     98 H98        27.5972  -29.2811  -38.9508 H         1 UNK         0.0839 
     99 H99        27.3062  -28.4362  -40.4553 H         1 UNK         0.0839 
    100 H100       26.8903  -30.9160  -37.9132 H         1 UNK         0.2998 
    101 H101       26.8577  -32.7414  -36.6501 H         1 UNK         0.0822 
    102 H102       26.3393  -34.2640  -39.2717 H         1 UNK         0.0787 
    103 H103       27.9071  -33.8513  -38.5964 H         1 UNK         0.0787 
    104 H104       26.8702  -34.9829  -37.7520 H         1 UNK         0.0787 
    105 H105       24.6480  -34.8057  -38.1938 H         1 UNK         0.3055 
    106 H106       22.6235  -34.5653  -36.1813 H         1 UNK         0.1106 
    107 H107       22.5660  -35.9566  -38.9175 H         1 UNK         0.0828 
    108 H108       23.0694  -36.6902  -37.3936 H         1 UNK         0.0828 
    109 H109       21.4001  -36.2016  -37.6251 H         1 UNK         0.0828 
    110 H110       23.1113  -32.8675  -39.1928 H         1 UNK         0.2931 
    111 H111       20.3846  -31.7563  -39.2666 H         1 UNK         0.0412 
    112 H112       23.1127  -31.0834  -37.3047 H         1 UNK         0.3472 
    113 H113       22.7909  -29.3789  -37.1123 H         1 UNK         0.3472 
    114 H114       22.7515  -31.1361  -41.0889 H         1 UNK         0.0970 
    115 H115       21.6570  -32.4564  -41.3613 H         1 UNK         0.0970 
    116 H116       21.0869  -31.7966  -43.6880 H         1 UNK         0.0612 
    117 H117       19.4989  -32.1166  -43.0311 H         1 UNK         0.0612 
@<TRIPOS>BOND
     1    1    2 1    
     2    1   62 1    
     3    1   63 1    
     4    1   64 1    
     5    2    3 2    
     6    2    4 am   BACKBONE|DICT|INTERRES
     7    4    5 1    
     8    4   65 1    
     9    5    6 1    
    10    5   25 1    
    11    5   66 1    
    12    6    7 1    
    13    6   67 1    
    14    6   68 1    
    15    7    8 1    
    16    8    9 1    
    17    8   69 1    
    18    8   70 1    
    19    9   10 ar   
    20    9   14 ar   
    21   10   11 ar   
    22   10   71 1    
    23   11   12 ar   
    24   11   61 1    
    25   12   13 ar   
    26   12   72 1    
    27   13   14 ar   
    28   13   15 1    
    29   14   73 1    
    30   15   16 1    
    31   15   74 1    
    32   15   75 1    
    33   16   17 1    
    34   17   18 1    
    35   17   76 1    
    36   17   77 1    
    37   18   19 1    
    38   18   27 1    
    39   18   78 1    
    40   19   20 am   BACKBONE|DICT|INTERRES
    41   19   79 1    
    42   20   21 2    
    43   20   22 1    
    44   22   23 1    
    45   22   24 1    
    46   22   80 1    
    47   23   81 1    
    48   23   82 1    
    49   23   83 1    
    50   24   25 am   BACKBONE|DICT|INTERRES
    51   24   84 1    
    52   25   26 2    
    53   27   28 2    
    54   27   29 am   BACKBONE|DICT|INTERRES
    55   29   30 1    
    56   29   85 1    
    57   30   31 1    
    58   30   32 1    
    59   30   86 1    
    60   31   87 1    
    61   31   88 1    
    62   31   89 1    
    63   32   33 2    
    64   32   34 am   BACKBONE|DICT|INTERRES
    65   34   35 1    
    66   34   90 1    
    67   35   36 1    
    68   35   37 1    
    69   35   91 1    
    70   36   92 1    
    71   36   93 1    
    72   36   94 1    
    73   37   38 2    
    74   37   39 am   BACKBONE|DICT|INTERRES
    75   39   40 1    
    76   39   95 1    
    77   40   41 1    
    78   40   42 1    
    79   40   96 1    
    80   41   97 1    
    81   41   98 1    
    82   41   99 1    
    83   42   43 2    
    84   42   44 am   BACKBONE|DICT|INTERRES
    85   44   45 1    
    86   44  100 1    
    87   45   46 1    
    88   45   47 1    
    89   45  101 1    
    90   46  102 1    
    91   46  103 1    
    92   46  104 1    
    93   47   48 2    
    94   47   49 am   BACKBONE|DICT|INTERRES
    95   49   50 1    
    96   49  105 1    
    97   50   51 1    
    98   50   52 1    
    99   50  106 1    
   100   51  107 1    
   101   51  108 1    
   102   51  109 1    
   103   52   53 2    
   104   52   54 am   BACKBONE|DICT|INTERRES
   105   54   55 1    
   106   54  110 1    
   107   55   56 1    
   108   55   59 1    
   109   55  111 1    
   110   56   57 am   BACKBONE|DICT|INTERRES
   111   56   58 2    
   112   57  112 1    
   113   57  113 1    
   114   59   60 1    
   115   59  114 1    
   116   59  115 1    
   117   60   61 1    
   118   61  116 1    
   119   61  117 1    
@<TRIPOS>SUBSTRUCTURE
     1 UNK         1 GROUP             0       ****    0 ROOT    
