@<TRIPOS>MOLECULE
3R8
117   119    1
SMALL
USER_CHARGES


@<TRIPOS>ATOM
      1 CA         12.8057  -24.2996  -48.6385 C.3       0 UNK        -0.2013 
      2 C          14.2635  -24.3201  -48.2035 C.2       0 UNK         0.4866 
      3 O          14.9883  -23.3543  -48.4457 O.2       0 UNK        -0.5176 
      4 N          14.7015  -25.4157  -47.5702 N.am      1 UNK        -0.4884 
      5 CA         16.0512  -25.5766  -47.0193 C.3       1 UNK         0.0853 
      6 C6         16.3702  -27.0704  -46.7618 C.3       10 UNK        -0.0849 
      7 S7         18.1569  -27.4338  -46.8425 S.3       10 UNK        -0.2776 
      8 C8         18.1774  -29.2241  -46.4884 C.3       10 UNK         0.0316 
      9 C9         18.4154  -29.4905  -45.0095 C.ar      10 UNK        -0.0863 
     10 C10        19.6840  -29.8581  -44.5514 C.ar      10 UNK        -0.1009 
     11 C11        19.9195  -30.0534  -43.1866 C.ar      10 UNK        -0.0712 
     12 C12        18.8780  -29.8605  -42.2724 C.ar      10 UNK        -0.0894 
     13 C13        17.6091  -29.4774  -42.7211 C.ar      10 UNK        -0.0745 
     14 C14        17.3761  -29.3352  -44.0907 C.ar      10 UNK        -0.0972 
     15 C15        16.5031  -29.1271  -41.7375 C.3       10 UNK         0.0209 
     16 S16        16.1002  -27.3460  -41.8182 S.3       10 UNK        -0.2568 
     17 C17        17.5928  -26.5891  -41.0898 C.3       10 UNK        -0.0983 
     18 CA         18.7100  -26.2676  -42.1258 C.3       3 UNK         0.0876 
     19 N          18.3031  -25.3617  -43.2071 N.am      3 UNK        -0.4424 
     20 C          18.0049  -24.0599  -43.0961 C.2       2 UNK         0.4918 
     21 O          17.9675  -23.4477  -42.0284 O.2       2 UNK        -0.4875 
     22 CA         17.7368  -23.2905  -44.4037 C.3       2 UNK         0.0481 
     23 CB         18.9574  -22.4283  -44.7667 C.3       2 UNK        -0.1831 
     24 N          17.4066  -24.1506  -45.5461 N.am      2 UNK        -0.4498 
     25 C          16.2139  -24.7302  -45.7376 C.2       1 UNK         0.5027 
     26 O          15.2704  -24.6304  -44.9485 O.2       1 UNK        -0.4969 
     27 C          20.0313  -25.8231  -41.4596 C.2       3 UNK         0.5005 
     28 O          20.1344  -25.8011  -40.2305 O.2       3 UNK        -0.5279 
     29 N          21.0305  -25.4834  -42.2881 N.am      4 UNK        -0.4463 
     30 CA         22.4125  -25.2577  -41.8579 C.3       4 UNK         0.0283 
     31 CB         23.2088  -24.6258  -43.0107 C.3       4 UNK        -0.1875 
     32 C          23.0534  -26.5849  -41.4167 C.2       4 UNK         0.4949 
     33 O          22.8041  -27.6113  -42.0507 O.2       4 UNK        -0.5039 
     34 N          23.8495  -26.5443  -40.3417 N.am      5 UNK        -0.4663 
     35 CA         24.4713  -27.7229  -39.7316 C.3       5 UNK         0.0242 
     36 CB         25.1350  -27.3164  -38.4057 C.3       5 UNK        -0.1982 
     37 C          25.4906  -28.4102  -40.6569 C.2       5 UNK         0.5017 
     38 O          26.2884  -27.7288  -41.3059 O.2       5 UNK        -0.5012 
     39 N          25.4585  -29.7439  -40.6642 N.am      6 UNK        -0.4439 
     40 CA         26.3451  -30.6324  -41.4065 C.3       6 UNK         0.0297 
     41 CB         25.6719  -30.9983  -42.7439 C.3       6 UNK        -0.2006 
     42 C          26.6246  -31.8763  -40.5482 C.2       6 UNK         0.4892 
     43 O          26.1325  -31.9771  -39.4219 O.2       6 UNK        -0.5089 
     44 N          27.3987  -32.8223  -41.0939 N.am      7 UNK        -0.4243 
     45 CA         27.6729  -34.1140  -40.4541 C.3       7 UNK         0.0196 
     46 CB         28.8322  -34.8080  -41.1877 C.3       7 UNK        -0.2007 
     47 C          26.4413  -35.0391  -40.4006 C.2       7 UNK         0.5020 
     48 O          26.3426  -35.8600  -39.4885 O.2       7 UNK        -0.5147 
     49 N          25.5389  -34.9028  -41.3816 N.am      8 UNK        -0.4734 
     50 CA         24.3591  -35.7551  -41.5520 C.3       8 UNK         0.0238 
     51 CB         24.1571  -36.0066  -43.0566 C.3       8 UNK        -0.1912 
     52 C          23.0715  -35.1722  -40.9433 C.2       8 UNK         0.5038 
     53 O          22.0918  -35.9111  -40.8309 O.2       8 UNK        -0.5046 
     54 N          23.0608  -33.8797  -40.5956 N.am      9 UNK        -0.4200 
     55 CA         21.8560  -33.1409  -40.1908 C.3       9 UNK         0.0839 
     56 C          22.2035  -31.8375  -39.4309 C.2       9 UNK         0.5513 
     57 N          21.3281  -31.3883  -38.5424 N.am      9 UNK        -0.7519 
     58 O          23.2318  -31.2086  -39.6620 O.2       9 UNK        -0.4960 
     59 C59        20.8787  -32.8828  -41.3773 C.3       10 UNK        -0.0876 
     60 S60        21.6709  -32.1869  -42.8728 S.3       10 UNK        -0.2414 
     61 C61        21.3180  -30.4109  -42.7066 C.3       10 UNK         0.0169 
     62 H62        12.2844  -23.4691  -48.1630 H         1 UNK         0.0903 
     63 H63        12.7380  -24.1710  -49.7184 H         1 UNK         0.0903 
     64 H64        12.2874  -25.2211  -48.3738 H         1 UNK         0.0903 
     65 H65        14.0510  -26.1610  -47.3648 H         1 UNK         0.3096 
     66 H66        16.7467  -25.1977  -47.7724 H         1 UNK         0.1121 
     67 H67        15.8939  -27.6884  -47.5251 H         1 UNK         0.0849 
     68 H68        15.9538  -27.4002  -45.8098 H         1 UNK         0.0849 
     69 H69        17.2442  -29.6889  -46.8101 H         1 UNK         0.0865 
     70 H70        18.9649  -29.6879  -47.0845 H         1 UNK         0.0865 
     71 H71        20.4969  -29.9786  -45.2547 H         1 UNK         0.1346 
     72 H72        19.0666  -29.9653  -41.2127 H         1 UNK         0.1412 
     73 H73        16.3922  -29.0463  -44.4295 H         1 UNK         0.1426 
     74 H74        16.7789  -29.3973  -40.7170 H         1 UNK         0.0716 
     75 H75        15.6105  -29.7050  -41.9806 H         1 UNK         0.0716 
     76 H76        17.9665  -27.2664  -40.3196 H         1 UNK         0.0695 
     77 H77        17.2898  -25.6810  -40.5665 H         1 UNK         0.0695 
     78 H78        18.9714  -27.1947  -42.6300 H         1 UNK         0.0983 
     79 H79        18.2838  -25.7681  -44.1311 H         1 UNK         0.3095 
     80 H80        16.8940  -22.6204  -44.2213 H         1 UNK         0.0454 
     81 H81        19.8395  -23.0373  -44.9683 H         1 UNK         0.0851 
     82 H82        19.2120  -21.7487  -43.9521 H         1 UNK         0.0851 
     83 H83        18.7633  -21.8147  -45.6465 H         1 UNK         0.0851 
     84 H84        18.1329  -24.2892  -46.2350 H         1 UNK         0.2976 
     85 H85        20.8751  -25.5545  -43.2827 H         1 UNK         0.3116 
     86 H86        22.4046  -24.5628  -41.0152 H         1 UNK         0.0646 
     87 H87        23.2496  -25.2820  -43.8812 H         1 UNK         0.0847 
     88 H88        24.2373  -24.4246  -42.7082 H         1 UNK         0.0847 
     89 H89        22.7721  -23.6772  -43.3235 H         1 UNK         0.0847 
     90 H90        24.0306  -25.6551  -39.8988 H         1 UNK         0.3040 
     91 H91        23.6711  -28.4337  -39.5108 H         1 UNK         0.1015 
     92 H92        25.5823  -28.1813  -37.9134 H         1 UNK         0.0786 
     93 H93        24.4105  -26.8899  -37.7116 H         1 UNK         0.0786 
     94 H94        25.9278  -26.5832  -38.5598 H         1 UNK         0.0786 
     95 H95        24.7780  -30.2346  -40.0829 H         1 UNK         0.3172 
     96 H96        27.2986  -30.1354  -41.5962 H         1 UNK         0.0595 
     97 H97        26.3212  -31.6118  -43.3688 H         1 UNK         0.0839 
     98 H98        25.4292  -30.1046  -43.3194 H         1 UNK         0.0839 
     99 H99        24.7436  -31.5499  -42.5882 H         1 UNK         0.0839 
    100 H100       27.7953  -32.6697  -42.0104 H         1 UNK         0.2998 
    101 H101       27.9861  -33.9259  -39.4245 H         1 UNK         0.0822 
    102 H102       29.0759  -35.7616  -40.7169 H         1 UNK         0.0787 
    103 H103       28.5869  -35.0133  -42.2306 H         1 UNK         0.0787 
    104 H104       29.7363  -34.1990  -41.1676 H         1 UNK         0.0787 
    105 H105       25.7043  -34.2050  -42.0920 H         1 UNK         0.3055 
    106 H106       24.5304  -36.7207  -41.0699 H         1 UNK         0.1106 
    107 H107       23.3127  -36.6748  -43.2324 H         1 UNK         0.0828 
    108 H108       23.9563  -35.0811  -43.5981 H         1 UNK         0.0828 
    109 H109       25.0346  -36.4750  -43.5028 H         1 UNK         0.0828 
    110 H110       23.9061  -33.3291  -40.6516 H         1 UNK         0.2931 
    111 H111       21.3341  -33.7720  -39.4681 H         1 UNK         0.0412 
    112 H112       21.5316  -30.5359  -38.0450 H         1 UNK         0.3472 
    113 H113       20.4779  -31.8923  -38.3431 H         1 UNK         0.3472 
    114 H114       20.4212  -33.8281  -41.6717 H         1 UNK         0.0970 
    115 H115       20.0435  -32.2529  -41.0686 H         1 UNK         0.0970 
    116 H116       22.0516  -29.8637  -43.3000 H         1 UNK         0.0612 
    117 H117       21.4690  -30.0904  -41.6752 H         1 UNK         0.0612 
@<TRIPOS>BOND
     1    1    2 1    
     2    1   62 1    
     3    1   63 1    
     4    1   64 1    
     5    2    3 2    
     6    2    4 am   BACKBONE|DICT|INTERRES
     7    4    5 1    
     8    4   65 1    
     9    5    6 1    
    10    5   25 1    
    11    5   66 1    
    12    6    7 1    
    13    6   67 1    
    14    6   68 1    
    15    7    8 1    
    16    8    9 1    
    17    8   69 1    
    18    8   70 1    
    19    9   10 ar   
    20    9   14 ar   
    21   10   11 ar   
    22   10   71 1    
    23   11   12 ar   
    24   11   61 1    
    25   12   13 ar   
    26   12   72 1    
    27   13   14 ar   
    28   13   15 1    
    29   14   73 1    
    30   15   16 1    
    31   15   74 1    
    32   15   75 1    
    33   16   17 1    
    34   17   18 1    
    35   17   76 1    
    36   17   77 1    
    37   18   19 1    
    38   18   27 1    
    39   18   78 1    
    40   19   20 am   BACKBONE|DICT|INTERRES
    41   19   79 1    
    42   20   21 2    
    43   20   22 1    
    44   22   23 1    
    45   22   24 1    
    46   22   80 1    
    47   23   81 1    
    48   23   82 1    
    49   23   83 1    
    50   24   25 am   BACKBONE|DICT|INTERRES
    51   24   84 1    
    52   25   26 2    
    53   27   28 2    
    54   27   29 am   BACKBONE|DICT|INTERRES
    55   29   30 1    
    56   29   85 1    
    57   30   31 1    
    58   30   32 1    
    59   30   86 1    
    60   31   87 1    
    61   31   88 1    
    62   31   89 1    
    63   32   33 2    
    64   32   34 am   BACKBONE|DICT|INTERRES
    65   34   35 1    
    66   34   90 1    
    67   35   36 1    
    68   35   37 1    
    69   35   91 1    
    70   36   92 1    
    71   36   93 1    
    72   36   94 1    
    73   37   38 2    
    74   37   39 am   BACKBONE|DICT|INTERRES
    75   39   40 1    
    76   39   95 1    
    77   40   41 1    
    78   40   42 1    
    79   40   96 1    
    80   41   97 1    
    81   41   98 1    
    82   41   99 1    
    83   42   43 2    
    84   42   44 am   BACKBONE|DICT|INTERRES
    85   44   45 1    
    86   44  100 1    
    87   45   46 1    
    88   45   47 1    
    89   45  101 1    
    90   46  102 1    
    91   46  103 1    
    92   46  104 1    
    93   47   48 2    
    94   47   49 am   BACKBONE|DICT|INTERRES
    95   49   50 1    
    96   49  105 1    
    97   50   51 1    
    98   50   52 1    
    99   50  106 1    
   100   51  107 1    
   101   51  108 1    
   102   51  109 1    
   103   52   53 2    
   104   52   54 am   BACKBONE|DICT|INTERRES
   105   54   55 1    
   106   54  110 1    
   107   55   56 1    
   108   55   59 1    
   109   55  111 1    
   110   56   57 am   BACKBONE|DICT|INTERRES
   111   56   58 2    
   112   57  112 1    
   113   57  113 1    
   114   59   60 1    
   115   59  114 1    
   116   59  115 1    
   117   60   61 1    
   118   61  116 1    
   119   61  117 1    
@<TRIPOS>SUBSTRUCTURE
     1 UNK         1 GROUP             0       ****    0 ROOT    
