@<TRIPOS>MOLECULE
3R8
117   119    1
SMALL
USER_CHARGES


@<TRIPOS>ATOM
      1 CA         17.4012  -22.6804  -41.2484 C.3       0 UNK        -0.2013 
      2 C          17.9351  -23.1156  -42.6048 C.2       0 UNK         0.4866 
      3 O          18.6759  -22.3655  -43.2415 O.2       0 UNK        -0.5176 
      4 N          17.5582  -24.3183  -43.0547 N.am      1 UNK        -0.4884 
      5 CA         18.0519  -24.9538  -44.2804 C.3       1 UNK         0.0853 
      6 C6         17.1445  -26.1266  -44.7395 C.3       10 UNK        -0.0849 
      7 S7         16.6447  -27.2683  -43.4036 S.3       10 UNK        -0.2776 
      8 C8         15.6023  -28.4455  -44.3203 C.3       10 UNK         0.0316 
      9 C9         16.3446  -29.7496  -44.5569 C.ar      10 UNK        -0.0863 
     10 C10        16.2626  -30.7738  -43.6102 C.ar      10 UNK        -0.1009 
     11 C11        16.9626  -31.9690  -43.7915 C.ar      10 UNK        -0.0712 
     12 C12        17.7491  -32.1378  -44.9346 C.ar      10 UNK        -0.0894 
     13 C13        17.8525  -31.1114  -45.8820 C.ar      10 UNK        -0.0745 
     14 C14        17.1325  -29.9264  -45.6979 C.ar      10 UNK        -0.0972 
     15 C15        18.8190  -31.2479  -47.0525 C.3       10 UNK         0.0209 
     16 S16        20.2677  -30.1386  -46.8971 S.3       10 UNK        -0.2568 
     17 C17        20.7781  -30.4098  -45.1619 C.3       10 UNK        -0.0983 
     18 CA         21.7042  -29.3266  -44.5498 C.3       3 UNK         0.0876 
     19 N          21.4159  -27.9675  -45.0189 N.am      3 UNK        -0.4424 
     20 C          22.1886  -26.9029  -44.7640 C.2       2 UNK         0.4918 
     21 O          23.2178  -26.9460  -44.0918 O.2       2 UNK        -0.4875 
     22 CA         21.7177  -25.5505  -45.3211 C.3       2 UNK         0.0481 
     23 CB         22.1958  -25.3749  -46.7709 C.3       2 UNK        -0.1831 
     24 N          20.2689  -25.3310  -45.2505 N.am      2 UNK        -0.4498 
     25 C          19.5272  -25.3808  -44.1335 C.2       1 UNK         0.5027 
     26 O          19.9592  -25.7484  -43.0369 O.2       1 UNK        -0.4969 
     27 C          21.6308  -29.4233  -43.0131 C.2       3 UNK         0.5005 
     28 O          22.4316  -30.1324  -42.4093 O.2       3 UNK        -0.5279 
     29 N          20.6505  -28.7354  -42.4101 N.am      4 UNK        -0.4463 
     30 CA         20.4546  -28.6795  -40.9629 C.3       4 UNK         0.0283 
     31 CB         19.0277  -28.2063  -40.6474 C.3       4 UNK        -0.1875 
     32 C          21.4989  -27.7765  -40.2943 C.2       4 UNK         0.4949 
     33 O          22.0359  -28.1486  -39.2502 O.2       4 UNK        -0.5039 
     34 N          21.7809  -26.6274  -40.9244 N.am      5 UNK        -0.4663 
     35 CA         22.7647  -25.6416  -40.4754 C.3       5 UNK         0.0242 
     36 CB         22.6234  -24.3643  -41.3185 C.3       5 UNK        -0.1982 
     37 C          24.2130  -26.1580  -40.5120 C.2       5 UNK         0.5017 
     38 O          24.9771  -25.8524  -39.5957 O.2       5 UNK        -0.5012 
     39 N          24.5628  -26.9285  -41.5499 N.am      6 UNK        -0.4439 
     40 CA         25.8869  -27.5134  -41.7438 C.3       6 UNK         0.0297 
     41 CB         26.7239  -26.5737  -42.6341 C.3       6 UNK        -0.2006 
     42 C          25.7534  -28.9291  -42.3383 C.2       6 UNK         0.4892 
     43 O          25.9464  -29.0920  -43.5427 O.2       6 UNK        -0.5089 
     44 N          25.4272  -29.9590  -41.5465 N.am      7 UNK        -0.4243 
     45 CA         25.0519  -29.9481  -40.1356 C.3       7 UNK         0.0196 
     46 CB         26.3020  -30.0441  -39.2396 C.3       7 UNK        -0.2007 
     47 C          24.1361  -31.1527  -39.8943 C.2       7 UNK         0.5020 
     48 O          24.4825  -32.2597  -40.3136 O.2       7 UNK        -0.5147 
     49 N          23.0047  -30.9234  -39.2134 N.am      8 UNK        -0.4734 
     50 CA         22.0451  -31.9257  -38.7228 C.3       8 UNK         0.0238 
     51 CB         22.6491  -32.6745  -37.5156 C.3       8 UNK        -0.1912 
     52 C          21.4981  -32.8899  -39.8001 C.2       8 UNK         0.5038 
     53 O          21.2820  -34.0678  -39.5091 O.2       8 UNK        -0.5046 
     54 N          21.2912  -32.3716  -41.0173 N.am      9 UNK        -0.4200 
     55 CA         20.8516  -33.0914  -42.2257 C.3       9 UNK         0.0839 
     56 C          21.9666  -33.9523  -42.8916 C.2       9 UNK         0.5513 
     57 N          23.2224  -33.8772  -42.4661 N.am      9 UNK        -0.7519 
     58 O          21.6949  -34.6837  -43.8402 O.2       9 UNK        -0.4960 
     59 C59        19.5136  -33.8736  -42.0679 C.3       10 UNK        -0.0876 
     60 S60        18.1309  -32.8565  -41.4396 S.3       10 UNK        -0.2414 
     61 C61        16.8697  -33.0630  -42.7391 C.3       10 UNK         0.0169 
     62 H62        18.2275  -22.5037  -40.5604 H         1 UNK         0.0903 
     63 H63        16.8347  -21.7547  -41.3468 H         1 UNK         0.0903 
     64 H64        16.7478  -23.4329  -40.8071 H         1 UNK         0.0903 
     65 H65        16.9745  -24.9114  -42.4809 H         1 UNK         0.3096 
     66 H66        18.0203  -24.1934  -45.0644 H         1 UNK         0.1121 
     67 H67        16.2314  -25.7114  -45.1691 H         1 UNK         0.0849 
     68 H68        17.6120  -26.6973  -45.5444 H         1 UNK         0.0849 
     69 H69        14.6950  -28.6336  -43.7442 H         1 UNK         0.0865 
     70 H70        15.2722  -28.0162  -45.2674 H         1 UNK         0.0865 
     71 H71        15.6653  -30.6339  -42.7192 H         1 UNK         0.1346 
     72 H72        18.3123  -33.0515  -45.0654 H         1 UNK         0.1412 
     73 H73        17.2230  -29.1271  -46.4207 H         1 UNK         0.1426 
     74 H74        18.2966  -31.0241  -47.9836 H         1 UNK         0.0716 
     75 H75        19.1739  -32.2760  -47.1394 H         1 UNK         0.0716 
     76 H76        19.8783  -30.4837  -44.5535 H         1 UNK         0.0695 
     77 H77        21.2591  -31.3875  -45.1010 H         1 UNK         0.0695 
     78 H78        22.7318  -29.5545  -44.8427 H         1 UNK         0.0983 
     79 H79        20.5971  -27.8577  -45.5988 H         1 UNK         0.3095 
     80 H80        22.1868  -24.7707  -44.7183 H         1 UNK         0.0454 
     81 H81        23.2754  -25.5144  -46.8451 H         1 UNK         0.0851 
     82 H82        21.7281  -26.0960  -47.4426 H         1 UNK         0.0851 
     83 H83        21.9762  -24.3747  -47.1446 H         1 UNK         0.0851 
     84 H84        19.8267  -25.0332  -46.1085 H         1 UNK         0.2976 
     85 H85        20.0530  -28.1438  -42.9720 H         1 UNK         0.3116 
     86 H86        20.5663  -29.6852  -40.5555 H         1 UNK         0.0646 
     87 H87        18.8534  -28.1857  -39.5710 H         1 UNK         0.0847 
     88 H88        18.2846  -28.8749  -41.0832 H         1 UNK         0.0847 
     89 H89        18.8368  -27.2020  -41.0275 H         1 UNK         0.0847 
     90 H90        21.2466  -26.3915  -41.7572 H         1 UNK         0.3040 
     91 H91        22.5321  -25.3936  -39.4374 H         1 UNK         0.1015 
     92 H92        22.8397  -24.5515  -42.3706 H         1 UNK         0.0786 
     93 H93        23.3125  -23.5913  -40.9756 H         1 UNK         0.0786 
     94 H94        21.6152  -23.9539  -41.2533 H         1 UNK         0.0786 
     95 H95        23.8911  -27.1010  -42.2951 H         1 UNK         0.3172 
     96 H96        26.4049  -27.5980  -40.7895 H         1 UNK         0.0595 
     97 H97        27.7091  -26.9976  -42.8324 H         1 UNK         0.0839 
     98 H98        26.2420  -26.3964  -43.5967 H         1 UNK         0.0839 
     99 H99        26.8773  -25.6068  -42.1548 H         1 UNK         0.0839 
    100 H100       25.3077  -30.8676  -41.9749 H         1 UNK         0.2998 
    101 H101       24.5022  -29.0382  -39.8979 H         1 UNK         0.0822 
    102 H102       26.0199  -30.0698  -38.1862 H         1 UNK         0.0787 
    103 H103       26.8715  -30.9518  -39.4443 H         1 UNK         0.0787 
    104 H104       26.9751  -29.1985  -39.3683 H         1 UNK         0.0787 
    105 H105       22.7744  -29.9574  -38.9917 H         1 UNK         0.3055 
    106 H106       21.1790  -31.3675  -38.3631 H         1 UNK         0.1106 
    107 H107       23.4982  -33.2923  -37.8104 H         1 UNK         0.0828 
    108 H108       22.9900  -31.9806  -36.7473 H         1 UNK         0.0828 
    109 H109       21.9135  -33.3317  -37.0500 H         1 UNK         0.0828 
    110 H110       21.6140  -31.4258  -41.1956 H         1 UNK         0.2931 
    111 H111       20.6538  -32.3027  -42.9494 H         1 UNK         0.0412 
    112 H112       23.9273  -34.4358  -42.9197 H         1 UNK         0.3472 
    113 H113       23.4807  -33.2792  -41.6875 H         1 UNK         0.3472 
    114 H114       19.6424  -34.7251  -41.3987 H         1 UNK         0.0970 
    115 H115       19.2246  -34.3040  -43.0275 H         1 UNK         0.0970 
    116 H116       15.8858  -33.0310  -42.2685 H         1 UNK         0.0612 
    117 H117       16.9457  -34.0497  -43.1979 H         1 UNK         0.0612 
@<TRIPOS>BOND
     1    1    2 1    
     2    1   62 1    
     3    1   63 1    
     4    1   64 1    
     5    2    3 2    
     6    2    4 am   BACKBONE|DICT|INTERRES
     7    4    5 1    
     8    4   65 1    
     9    5    6 1    
    10    5   25 1    
    11    5   66 1    
    12    6    7 1    
    13    6   67 1    
    14    6   68 1    
    15    7    8 1    
    16    8    9 1    
    17    8   69 1    
    18    8   70 1    
    19    9   10 ar   
    20    9   14 ar   
    21   10   11 ar   
    22   10   71 1    
    23   11   12 ar   
    24   11   61 1    
    25   12   13 ar   
    26   12   72 1    
    27   13   14 ar   
    28   13   15 1    
    29   14   73 1    
    30   15   16 1    
    31   15   74 1    
    32   15   75 1    
    33   16   17 1    
    34   17   18 1    
    35   17   76 1    
    36   17   77 1    
    37   18   19 1    
    38   18   27 1    
    39   18   78 1    
    40   19   20 am   BACKBONE|DICT|INTERRES
    41   19   79 1    
    42   20   21 2    
    43   20   22 1    
    44   22   23 1    
    45   22   24 1    
    46   22   80 1    
    47   23   81 1    
    48   23   82 1    
    49   23   83 1    
    50   24   25 am   BACKBONE|DICT|INTERRES
    51   24   84 1    
    52   25   26 2    
    53   27   28 2    
    54   27   29 am   BACKBONE|DICT|INTERRES
    55   29   30 1    
    56   29   85 1    
    57   30   31 1    
    58   30   32 1    
    59   30   86 1    
    60   31   87 1    
    61   31   88 1    
    62   31   89 1    
    63   32   33 2    
    64   32   34 am   BACKBONE|DICT|INTERRES
    65   34   35 1    
    66   34   90 1    
    67   35   36 1    
    68   35   37 1    
    69   35   91 1    
    70   36   92 1    
    71   36   93 1    
    72   36   94 1    
    73   37   38 2    
    74   37   39 am   BACKBONE|DICT|INTERRES
    75   39   40 1    
    76   39   95 1    
    77   40   41 1    
    78   40   42 1    
    79   40   96 1    
    80   41   97 1    
    81   41   98 1    
    82   41   99 1    
    83   42   43 2    
    84   42   44 am   BACKBONE|DICT|INTERRES
    85   44   45 1    
    86   44  100 1    
    87   45   46 1    
    88   45   47 1    
    89   45  101 1    
    90   46  102 1    
    91   46  103 1    
    92   46  104 1    
    93   47   48 2    
    94   47   49 am   BACKBONE|DICT|INTERRES
    95   49   50 1    
    96   49  105 1    
    97   50   51 1    
    98   50   52 1    
    99   50  106 1    
   100   51  107 1    
   101   51  108 1    
   102   51  109 1    
   103   52   53 2    
   104   52   54 am   BACKBONE|DICT|INTERRES
   105   54   55 1    
   106   54  110 1    
   107   55   56 1    
   108   55   59 1    
   109   55  111 1    
   110   56   57 am   BACKBONE|DICT|INTERRES
   111   56   58 2    
   112   57  112 1    
   113   57  113 1    
   114   59   60 1    
   115   59  114 1    
   116   59  115 1    
   117   60   61 1    
   118   61  116 1    
   119   61  117 1    
@<TRIPOS>SUBSTRUCTURE
     1 UNK         1 GROUP             0       ****    0 ROOT    
