@<TRIPOS>MOLECULE
3R8
117   119    1
SMALL
USER_CHARGES


@<TRIPOS>ATOM
      1 CA         14.9482  -23.6534  -43.8812 C.3       0 UNK        -0.2013 
      2 C          15.6602  -24.7911  -43.1648 C.2       0 UNK         0.4866 
      3 O          15.6960  -24.8077  -41.9346 O.2       0 UNK        -0.5176 
      4 N          16.2350  -25.7312  -43.9292 N.am      1 UNK        -0.4884 
      5 CA         16.9413  -26.9371  -43.4600 C.3       1 UNK         0.0853 
      6 C6         16.0214  -27.9363  -42.6989 C.3       10 UNK        -0.0849 
      7 S7         14.7624  -28.6500  -43.8153 S.3       10 UNK        -0.2776 
      8 C8         15.3238  -30.3806  -43.9999 C.3       10 UNK         0.0316 
      9 C9         16.8050  -30.4962  -44.3445 C.ar      10 UNK        -0.0863 
     10 C10        17.6771  -31.1601  -43.4755 C.ar      10 UNK        -0.1009 
     11 C11        19.0436  -31.2345  -43.7599 C.ar      10 UNK        -0.0712 
     12 C12        19.5402  -30.6335  -44.9203 C.ar      10 UNK        -0.0894 
     13 C13        18.6774  -29.9729  -45.7993 C.ar      10 UNK        -0.0745 
     14 C14        17.3090  -29.9245  -45.5166 C.ar      10 UNK        -0.0972 
     15 C15        19.2175  -29.2970  -47.0485 C.3       10 UNK         0.0209 
     16 S16        19.5643  -27.5372  -46.7433 S.3       10 UNK        -0.2568 
     17 C17        21.2753  -27.6065  -46.1126 C.3       10 UNK        -0.0983 
     18 CA         21.8198  -26.1825  -45.8206 C.3       3 UNK         0.0876 
     19 N          21.0881  -25.5311  -44.7229 N.am      3 UNK        -0.4424 
     20 C          21.2328  -25.7335  -43.4030 C.2       2 UNK         0.4918 
     21 O          22.1156  -26.4196  -42.8887 O.2       2 UNK        -0.4875 
     22 CA         20.1785  -25.0682  -42.5056 C.3       2 UNK         0.0481 
     23 CB         20.3334  -23.5385  -42.4950 C.3       2 UNK        -0.1831 
     24 N          18.8304  -25.4368  -42.9413 N.am      2 UNK        -0.4498 
     25 C          18.2679  -26.6360  -42.7233 C.2       1 UNK         0.5027 
     26 O          18.7796  -27.4974  -42.0068 O.2       1 UNK        -0.4969 
     27 C          23.3556  -26.1277  -45.6479 C.2       3 UNK         0.5005 
     28 O          24.0307  -27.1521  -45.7589 O.2       3 UNK        -0.5279 
     29 N          23.8680  -24.9184  -45.3652 N.am      4 UNK        -0.4463 
     30 CA         25.2770  -24.5942  -45.0986 C.3       4 UNK         0.0283 
     31 CB         26.1494  -24.8229  -46.3524 C.3       4 UNK        -0.1875 
     32 C          25.8213  -25.3048  -43.8425 C.2       4 UNK         0.4949 
     33 O          26.9207  -25.8601  -43.8718 O.2       4 UNK        -0.5039 
     34 N          25.0265  -25.2562  -42.7627 N.am      5 UNK        -0.4663 
     35 CA         25.2652  -25.8603  -41.4458 C.3       5 UNK         0.0242 
     36 CB         26.4851  -25.2167  -40.7507 C.3       5 UNK        -0.1982 
     37 C          25.3380  -27.3983  -41.5054 C.2       5 UNK         0.5017 
     38 O          26.2619  -27.9990  -40.9534 O.2       5 UNK        -0.5012 
     39 N          24.3460  -28.0067  -42.1702 N.am      6 UNK        -0.4439 
     40 CA         24.1796  -29.4592  -42.2778 C.3       6 UNK         0.0297 
     41 CB         23.1914  -29.7737  -43.4110 C.3       6 UNK        -0.2006 
     42 C          23.7190  -30.1141  -40.9617 C.2       6 UNK         0.4892 
     43 O          24.0006  -31.2952  -40.7546 O.2       6 UNK        -0.5089 
     44 N          23.0394  -29.3350  -40.1038 N.am      7 UNK        -0.4243 
     45 CA         22.5122  -29.7064  -38.7851 C.3       7 UNK         0.0196 
     46 CB         23.6709  -29.9550  -37.7916 C.3       7 UNK        -0.2007 
     47 C          21.4954  -30.8625  -38.8719 C.2       7 UNK         0.5020 
     48 O          20.6918  -30.8913  -39.8044 O.2       7 UNK        -0.5147 
     49 N          21.5264  -31.7932  -37.9104 N.am      8 UNK        -0.4734 
     50 CA         20.6902  -32.9959  -37.8806 C.3       8 UNK         0.0238 
     51 CB         20.5362  -33.4597  -36.4195 C.3       8 UNK        -0.1912 
     52 C          21.2814  -34.0887  -38.7915 C.2       8 UNK         0.5038 
     53 O          21.7798  -35.1010  -38.2940 O.2       8 UNK        -0.5046 
     54 N          21.2615  -33.8349  -40.1055 N.am      9 UNK        -0.4200 
     55 CA         21.7895  -34.7252  -41.1479 C.3       9 UNK         0.0839 
     56 C          21.0408  -36.0850  -41.2645 C.2       9 UNK         0.5513 
     57 N          21.6863  -37.0964  -41.8302 N.am      9 UNK        -0.7519 
     58 O          19.8830  -36.2275  -40.8743 O.2       9 UNK        -0.4960 
     59 C59        21.9340  -33.9848  -42.5057 C.3       10 UNK        -0.0876 
     60 S60        20.3718  -33.6228  -43.3862 S.3       10 UNK        -0.2414 
     61 C61        19.9887  -31.9449  -42.8054 C.3       10 UNK         0.0169 
     62 H62        15.3985  -22.6987  -43.6105 H         1 UNK         0.0903 
     63 H63        14.9982  -23.7570  -44.9650 H         1 UNK         0.0903 
     64 H64        13.8979  -23.6286  -43.5920 H         1 UNK         0.0903 
     65 H65        16.1603  -25.6512  -44.9346 H         1 UNK         0.3096 
     66 H66        17.2768  -27.4391  -44.3678 H         1 UNK         0.1121 
     67 H67        16.5931  -28.7507  -42.2520 H         1 UNK         0.0849 
     68 H68        15.5179  -27.4467  -41.8647 H         1 UNK         0.0849 
     69 H69        15.0993  -30.9183  -43.0773 H         1 UNK         0.0865 
     70 H70        14.7365  -30.8624  -44.7828 H         1 UNK         0.0865 
     71 H71        17.2962  -31.6105  -42.5690 H         1 UNK         0.1346 
     72 H72        20.5988  -30.6789  -45.1359 H         1 UNK         0.1412 
     73 H73        16.6388  -29.4074  -46.1903 H         1 UNK         0.1426 
     74 H74        18.4848  -29.3753  -47.8531 H         1 UNK         0.0716 
     75 H75        20.1159  -29.8024  -47.4064 H         1 UNK         0.0716 
     76 H76        21.8825  -28.1119  -46.8659 H         1 UNK         0.0695 
     77 H77        21.3073  -28.2242  -45.2146 H         1 UNK         0.0695 
     78 H78        21.6276  -25.5790  -46.7097 H         1 UNK         0.0983 
     79 H79        20.3256  -24.9416  -45.0213 H         1 UNK         0.3095 
     80 H80        20.3286  -25.4256  -41.4845 H         1 UNK         0.0454 
     81 H81        21.3357  -23.2511  -42.1742 H         1 UNK         0.0851 
     82 H82        19.6304  -23.0777  -41.8008 H         1 UNK         0.0851 
     83 H83        20.1663  -23.0975  -43.4781 H         1 UNK         0.0851 
     84 H84        18.3293  -24.7794  -43.5207 H         1 UNK         0.2976 
     85 H85        23.2212  -24.1448  -45.2907 H         1 UNK         0.3116 
     86 H86        25.3072  -23.5265  -44.8758 H         1 UNK         0.0646 
     87 H87        26.2210  -25.8794  -46.6121 H         1 UNK         0.0847 
     88 H88        25.7515  -24.2909  -47.2164 H         1 UNK         0.0847 
     89 H89        27.1656  -24.4614  -46.1906 H         1 UNK         0.0847 
     90 H90        24.1245  -24.8149  -42.8747 H         1 UNK         0.3040 
     91 H91        24.3881  -25.6273  -40.8396 H         1 UNK         0.1015 
     92 H92        26.5860  -25.5798  -39.7271 H         1 UNK         0.0786 
     93 H93        26.3869  -24.1324  -40.7005 H         1 UNK         0.0786 
     94 H94        27.4174  -25.4459  -41.2677 H         1 UNK         0.0786 
     95 H95        23.6123  -27.4294  -42.5792 H         1 UNK         0.3172 
     96 H96        25.1465  -29.8928  -42.5417 H         1 UNK         0.0595 
     97 H97        22.2036  -29.3567  -43.2099 H         1 UNK         0.0839 
     98 H98        23.0787  -30.8502  -43.5429 H         1 UNK         0.0839 
     99 H99        23.5387  -29.3712  -44.3620 H         1 UNK         0.0839 
    100 H100       22.8224  -28.3976  -40.4106 H         1 UNK         0.2998 
    101 H101       21.9508  -28.8415  -38.4290 H         1 UNK         0.0822 
    102 H102       23.3063  -30.0528  -36.7683 H         1 UNK         0.0787 
    103 H103       24.3741  -29.1219  -37.7959 H         1 UNK         0.0787 
    104 H104       24.2320  -30.8581  -38.0359 H         1 UNK         0.0787 
    105 H105       22.2368  -31.7196  -37.1963 H         1 UNK         0.3055 
    106 H106       19.6936  -32.7563  -38.2595 H         1 UNK         0.1106 
    107 H107       20.0617  -32.6920  -35.8080 H         1 UNK         0.0828 
    108 H108       19.9117  -34.3520  -36.3580 H         1 UNK         0.0828 
    109 H109       21.4978  -33.7030  -35.9657 H         1 UNK         0.0828 
    110 H110       20.8690  -32.9547  -40.4143 H         1 UNK         0.2931 
    111 H111       22.8037  -34.9699  -40.8247 H         1 UNK         0.0412 
    112 H112       21.2175  -37.9841  -41.9262 H         1 UNK         0.3472 
    113 H113       22.6341  -36.9937  -42.1588 H         1 UNK         0.3472 
    114 H114       22.5474  -34.5861  -43.1788 H         1 UNK         0.0970 
    115 H115       22.4982  -33.0616  -42.3659 H         1 UNK         0.0970 
    116 H116       19.5372  -32.0159  -41.8160 H         1 UNK         0.0612 
    117 H117       20.9006  -31.3608  -42.6900 H         1 UNK         0.0612 
@<TRIPOS>BOND
     1    1    2 1    
     2    1   62 1    
     3    1   63 1    
     4    1   64 1    
     5    2    3 2    
     6    2    4 am   BACKBONE|DICT|INTERRES
     7    4    5 1    
     8    4   65 1    
     9    5    6 1    
    10    5   25 1    
    11    5   66 1    
    12    6    7 1    
    13    6   67 1    
    14    6   68 1    
    15    7    8 1    
    16    8    9 1    
    17    8   69 1    
    18    8   70 1    
    19    9   10 ar   
    20    9   14 ar   
    21   10   11 ar   
    22   10   71 1    
    23   11   12 ar   
    24   11   61 1    
    25   12   13 ar   
    26   12   72 1    
    27   13   14 ar   
    28   13   15 1    
    29   14   73 1    
    30   15   16 1    
    31   15   74 1    
    32   15   75 1    
    33   16   17 1    
    34   17   18 1    
    35   17   76 1    
    36   17   77 1    
    37   18   19 1    
    38   18   27 1    
    39   18   78 1    
    40   19   20 am   BACKBONE|DICT|INTERRES
    41   19   79 1    
    42   20   21 2    
    43   20   22 1    
    44   22   23 1    
    45   22   24 1    
    46   22   80 1    
    47   23   81 1    
    48   23   82 1    
    49   23   83 1    
    50   24   25 am   BACKBONE|DICT|INTERRES
    51   24   84 1    
    52   25   26 2    
    53   27   28 2    
    54   27   29 am   BACKBONE|DICT|INTERRES
    55   29   30 1    
    56   29   85 1    
    57   30   31 1    
    58   30   32 1    
    59   30   86 1    
    60   31   87 1    
    61   31   88 1    
    62   31   89 1    
    63   32   33 2    
    64   32   34 am   BACKBONE|DICT|INTERRES
    65   34   35 1    
    66   34   90 1    
    67   35   36 1    
    68   35   37 1    
    69   35   91 1    
    70   36   92 1    
    71   36   93 1    
    72   36   94 1    
    73   37   38 2    
    74   37   39 am   BACKBONE|DICT|INTERRES
    75   39   40 1    
    76   39   95 1    
    77   40   41 1    
    78   40   42 1    
    79   40   96 1    
    80   41   97 1    
    81   41   98 1    
    82   41   99 1    
    83   42   43 2    
    84   42   44 am   BACKBONE|DICT|INTERRES
    85   44   45 1    
    86   44  100 1    
    87   45   46 1    
    88   45   47 1    
    89   45  101 1    
    90   46  102 1    
    91   46  103 1    
    92   46  104 1    
    93   47   48 2    
    94   47   49 am   BACKBONE|DICT|INTERRES
    95   49   50 1    
    96   49  105 1    
    97   50   51 1    
    98   50   52 1    
    99   50  106 1    
   100   51  107 1    
   101   51  108 1    
   102   51  109 1    
   103   52   53 2    
   104   52   54 am   BACKBONE|DICT|INTERRES
   105   54   55 1    
   106   54  110 1    
   107   55   56 1    
   108   55   59 1    
   109   55  111 1    
   110   56   57 am   BACKBONE|DICT|INTERRES
   111   56   58 2    
   112   57  112 1    
   113   57  113 1    
   114   59   60 1    
   115   59  114 1    
   116   59  115 1    
   117   60   61 1    
   118   61  116 1    
   119   61  117 1    
@<TRIPOS>SUBSTRUCTURE
     1 UNK         1 GROUP             0       ****    0 ROOT    
