@<TRIPOS>MOLECULE
3R8
117   119    1
SMALL
USER_CHARGES


@<TRIPOS>ATOM
      1 CA         14.3328  -24.1476  -47.2122 C.3       0 UNK        -0.2013 
      2 C          15.6050  -24.7538  -46.6404 C.2       0 UNK         0.4866 
      3 O          16.6703  -24.6315  -47.2465 O.2       0 UNK        -0.5176 
      4 N          15.5122  -25.3949  -45.4686 N.am      1 UNK        -0.4884 
      5 CA         16.6094  -26.0783  -44.7675 C.3       1 UNK         0.0853 
      6 C6         16.0753  -27.1842  -43.8186 C.3       10 UNK        -0.0849 
      7 S7         15.2647  -28.5247  -44.7596 S.3       10 UNK        -0.2776 
      8 C8         16.0474  -30.0320  -44.0820 C.3       10 UNK         0.0316 
      9 C9         17.5733  -30.0513  -44.1642 C.ar      10 UNK        -0.0863 
     10 C10        18.3127  -30.5285  -43.0777 C.ar      10 UNK        -0.1009 
     11 C11        19.7137  -30.5531  -43.1104 C.ar      10 UNK        -0.0712 
     12 C12        20.3700  -30.1046  -44.2610 C.ar      10 UNK        -0.0894 
     13 C13        19.6459  -29.6403  -45.3626 C.ar      10 UNK        -0.0745 
     14 C14        18.2490  -29.6238  -45.3113 C.ar      10 UNK        -0.0972 
     15 C15        20.3617  -29.1841  -46.6245 C.3       10 UNK         0.0209 
     16 S16        20.2580  -27.3800  -46.8440 S.3       10 UNK        -0.2568 
     17 C17        21.8585  -26.7817  -46.1842 C.3       10 UNK        -0.0983 
     18 CA         21.7578  -25.9614  -44.8673 C.3       3 UNK         0.0876 
     19 N          20.6418  -25.0172  -44.9162 N.am      3 UNK        -0.4424 
     20 C          20.4867  -23.8866  -44.2182 C.2       2 UNK         0.4918 
     21 O          21.3310  -23.4345  -43.4464 O.2       2 UNK        -0.4875 
     22 CA         19.1291  -23.1748  -44.3813 C.3       2 UNK         0.0481 
     23 CB         19.2409  -22.0259  -45.3950 C.3       2 UNK        -0.1831 
     24 N          18.0654  -24.0944  -44.8057 N.am      2 UNK        -0.4498 
     25 C          17.5544  -25.0817  -44.0560 C.2       1 UNK         0.5027 
     26 O          17.8353  -25.2291  -42.8662 O.2       1 UNK        -0.4969 
     27 C          21.7779  -26.8511  -43.6012 C.2       3 UNK         0.5005 
     28 O          22.5940  -27.7694  -43.5366 O.2       3 UNK        -0.5279 
     29 N          20.9449  -26.5588  -42.5888 N.am      4 UNK        -0.4463 
     30 CA         20.8616  -27.2747  -41.3064 C.3       4 UNK         0.0283 
     31 CB         19.6940  -26.7100  -40.4821 C.3       4 UNK        -0.1875 
     32 C          22.1572  -27.3113  -40.4655 C.2       4 UNK         0.4949 
     33 O          22.2232  -28.0680  -39.4982 O.2       4 UNK        -0.5039 
     34 N          23.1681  -26.5163  -40.8399 N.am      5 UNK        -0.4663 
     35 CA         24.5275  -26.5814  -40.2976 C.3       5 UNK         0.0242 
     36 CB         25.2546  -25.2685  -40.6334 C.3       5 UNK        -0.1982 
     37 C          25.3380  -27.7937  -40.8068 C.2       5 UNK         0.5017 
     38 O          26.3790  -28.0956  -40.2206 O.2       5 UNK        -0.5012 
     39 N          24.8820  -28.4451  -41.8880 N.am      6 UNK        -0.4439 
     40 CA         25.5021  -29.6286  -42.4903 C.3       6 UNK         0.0297 
     41 CB         25.0060  -29.7582  -43.9438 C.3       6 UNK        -0.2006 
     42 C          25.2319  -30.9201  -41.6902 C.2       6 UNK         0.4892 
     43 O          24.5980  -30.8900  -40.6328 O.2       6 UNK        -0.5089 
     44 N          25.7304  -32.0422  -42.2282 N.am      7 UNK        -0.4243 
     45 CA         25.5598  -33.4018  -41.7064 C.3       7 UNK         0.0196 
     46 CB         26.4090  -34.3606  -42.5594 C.3       7 UNK        -0.2007 
     47 C          24.0909  -33.8687  -41.6684 C.2       7 UNK         0.5020 
     48 O          23.2223  -33.2544  -42.2896 O.2       7 UNK        -0.5147 
     49 N          23.8475  -34.9563  -40.9241 N.am      8 UNK        -0.4734 
     50 CA         22.5565  -35.5977  -40.6154 C.3       8 UNK         0.0238 
     51 CB         21.7516  -35.9506  -41.8829 C.3       8 UNK        -0.1912 
     52 C          21.7014  -34.8163  -39.6013 C.2       8 UNK         0.5038 
     53 O          21.0610  -35.4424  -38.7554 O.2       8 UNK        -0.5046 
     54 N          21.7342  -33.4813  -39.6685 N.am      9 UNK        -0.4200 
     55 CA         21.2225  -32.5716  -38.6362 C.3       9 UNK         0.0839 
     56 C          22.0623  -32.6440  -37.3303 C.2       9 UNK         0.5513 
     57 N          21.4471  -32.3725  -36.1874 N.am      9 UNK        -0.7519 
     58 O          23.2631  -32.9093  -37.3428 O.2       9 UNK        -0.4960 
     59 C59        21.1531  -31.1178  -39.1647 C.3       10 UNK        -0.0876 
     60 S60        19.7581  -30.8574  -40.3061 S.3       10 UNK        -0.2414 
     61 C61        20.5463  -31.0781  -41.9384 C.3       10 UNK         0.0169 
     62 H62        14.1242  -24.5724  -48.1937 H         1 UNK         0.0903 
     63 H63        13.4697  -24.3318  -46.5727 H         1 UNK         0.0903 
     64 H64        14.4484  -23.0699  -47.3246 H         1 UNK         0.0903 
     65 H65        14.6130  -25.4498  -45.0109 H         1 UNK         0.3096 
     66 H66        17.2300  -26.5755  -45.5174 H         1 UNK         0.1121 
     67 H67        15.3639  -26.7709  -43.1016 H         1 UNK         0.0849 
     68 H68        16.8867  -27.6092  -43.2249 H         1 UNK         0.0849 
     69 H69        15.7206  -30.1447  -43.0469 H         1 UNK         0.0865 
     70 H70        15.6604  -30.8983  -44.6199 H         1 UNK         0.0865 
     71 H71        17.7878  -30.8841  -42.2024 H         1 UNK         0.1346 
     72 H72        21.4507  -30.1209  -44.3005 H         1 UNK         0.1412 
     73 H73        17.6888  -29.2700  -46.1661 H         1 UNK         0.1426 
     74 H74        19.8937  -29.6633  -47.4857 H         1 UNK         0.0716 
     75 H75        21.4019  -29.5124  -46.6291 H         1 UNK         0.0716 
     76 H76        22.5694  -27.6052  -46.0978 H         1 UNK         0.0695 
     77 H77        22.2797  -26.1363  -46.9565 H         1 UNK         0.0695 
     78 H78        22.6722  -25.3682  -44.7959 H         1 UNK         0.0983 
     79 H79        19.8903  -25.2980  -45.5298 H         1 UNK         0.3095 
     80 H80        18.8533  -22.7542  -43.4121 H         1 UNK         0.0454 
     81 H81        20.0108  -21.3138  -45.0945 H         1 UNK         0.0851 
     82 H82        19.5018  -22.3879  -46.3904 H         1 UNK         0.0851 
     83 H83        18.3042  -21.4740  -45.4737 H         1 UNK         0.0851 
     84 H84        17.7572  -24.0430  -45.7739 H         1 UNK         0.2976 
     85 H85        20.3008  -25.7896  -42.7099 H         1 UNK         0.3116 
     86 H86        20.6255  -28.3100  -41.5457 H         1 UNK         0.0646 
     87 H87        19.6182  -27.2074  -39.5141 H         1 UNK         0.0847 
     88 H88        18.7425  -26.8652  -40.9901 H         1 UNK         0.0847 
     89 H89        19.8095  -25.6420  -40.2948 H         1 UNK         0.0847 
     90 H90        23.0231  -25.9121  -41.6353 H         1 UNK         0.3040 
     91 H91        24.4632  -26.6707  -39.2107 H         1 UNK         0.1015 
     92 H92        24.7285  -24.4065  -40.2225 H         1 UNK         0.0786 
     93 H93        25.3498  -25.1237  -41.7103 H         1 UNK         0.0786 
     94 H94        26.2616  -25.2610  -40.2135 H         1 UNK         0.0786 
     95 H95        24.0059  -28.1439  -42.3088 H         1 UNK         0.3172 
     96 H96        26.5825  -29.4719  -42.5111 H         1 UNK         0.0595 
     97 H97        25.5728  -30.5059  -44.4988 H         1 UNK         0.0839 
     98 H98        25.1090  -28.8177  -44.4857 H         1 UNK         0.0839 
     99 H99        23.9559  -30.0507  -43.9829 H         1 UNK         0.0839 
    100 H100       26.2169  -31.9674  -43.1090 H         1 UNK         0.2998 
    101 H101       25.9394  -33.4083  -40.6824 H         1 UNK         0.0822 
    102 H102       27.4598  -34.0697  -42.5580 H         1 UNK         0.0787 
    103 H103       26.3609  -35.3816  -42.1785 H         1 UNK         0.0787 
    104 H104       26.0684  -34.3849  -43.5956 H         1 UNK         0.0787 
    105 H105       24.6381  -35.3694  -40.4469 H         1 UNK         0.3055 
    106 H106       22.8136  -36.5404  -40.1288 H         1 UNK         0.1106 
    107 H107       21.3758  -35.0636  -42.3934 H         1 UNK         0.0828 
    108 H108       22.3542  -36.5179  -42.5920 H         1 UNK         0.0828 
    109 H109       20.8853  -36.5632  -41.6302 H         1 UNK         0.0828 
    110 H110       22.2822  -33.0626  -40.4098 H         1 UNK         0.2931 
    111 H111       20.2101  -32.8971  -38.3870 H         1 UNK         0.0412 
    112 H112       20.4642  -32.1472  -36.1650 H         1 UNK         0.3472 
    113 H113       21.9736  -32.4010  -35.3279 H         1 UNK         0.3472 
    114 H114       21.0078  -30.4135  -38.3430 H         1 UNK         0.0970 
    115 H115       22.0927  -30.8242  -39.6360 H         1 UNK         0.0970 
    116 H116       21.5188  -30.5818  -41.9295 H         1 UNK         0.0612 
    117 H117       20.7373  -32.1399  -42.0955 H         1 UNK         0.0612 
@<TRIPOS>BOND
     1    1    2 1    
     2    1   62 1    
     3    1   63 1    
     4    1   64 1    
     5    2    3 2    
     6    2    4 am   BACKBONE|DICT|INTERRES
     7    4    5 1    
     8    4   65 1    
     9    5    6 1    
    10    5   25 1    
    11    5   66 1    
    12    6    7 1    
    13    6   67 1    
    14    6   68 1    
    15    7    8 1    
    16    8    9 1    
    17    8   69 1    
    18    8   70 1    
    19    9   10 ar   
    20    9   14 ar   
    21   10   11 ar   
    22   10   71 1    
    23   11   12 ar   
    24   11   61 1    
    25   12   13 ar   
    26   12   72 1    
    27   13   14 ar   
    28   13   15 1    
    29   14   73 1    
    30   15   16 1    
    31   15   74 1    
    32   15   75 1    
    33   16   17 1    
    34   17   18 1    
    35   17   76 1    
    36   17   77 1    
    37   18   19 1    
    38   18   27 1    
    39   18   78 1    
    40   19   20 am   BACKBONE|DICT|INTERRES
    41   19   79 1    
    42   20   21 2    
    43   20   22 1    
    44   22   23 1    
    45   22   24 1    
    46   22   80 1    
    47   23   81 1    
    48   23   82 1    
    49   23   83 1    
    50   24   25 am   BACKBONE|DICT|INTERRES
    51   24   84 1    
    52   25   26 2    
    53   27   28 2    
    54   27   29 am   BACKBONE|DICT|INTERRES
    55   29   30 1    
    56   29   85 1    
    57   30   31 1    
    58   30   32 1    
    59   30   86 1    
    60   31   87 1    
    61   31   88 1    
    62   31   89 1    
    63   32   33 2    
    64   32   34 am   BACKBONE|DICT|INTERRES
    65   34   35 1    
    66   34   90 1    
    67   35   36 1    
    68   35   37 1    
    69   35   91 1    
    70   36   92 1    
    71   36   93 1    
    72   36   94 1    
    73   37   38 2    
    74   37   39 am   BACKBONE|DICT|INTERRES
    75   39   40 1    
    76   39   95 1    
    77   40   41 1    
    78   40   42 1    
    79   40   96 1    
    80   41   97 1    
    81   41   98 1    
    82   41   99 1    
    83   42   43 2    
    84   42   44 am   BACKBONE|DICT|INTERRES
    85   44   45 1    
    86   44  100 1    
    87   45   46 1    
    88   45   47 1    
    89   45  101 1    
    90   46  102 1    
    91   46  103 1    
    92   46  104 1    
    93   47   48 2    
    94   47   49 am   BACKBONE|DICT|INTERRES
    95   49   50 1    
    96   49  105 1    
    97   50   51 1    
    98   50   52 1    
    99   50  106 1    
   100   51  107 1    
   101   51  108 1    
   102   51  109 1    
   103   52   53 2    
   104   52   54 am   BACKBONE|DICT|INTERRES
   105   54   55 1    
   106   54  110 1    
   107   55   56 1    
   108   55   59 1    
   109   55  111 1    
   110   56   57 am   BACKBONE|DICT|INTERRES
   111   56   58 2    
   112   57  112 1    
   113   57  113 1    
   114   59   60 1    
   115   59  114 1    
   116   59  115 1    
   117   60   61 1    
   118   61  116 1    
   119   61  117 1    
@<TRIPOS>SUBSTRUCTURE
     1 UNK         1 GROUP             0       ****    0 ROOT    
