@<TRIPOS>MOLECULE
3R8
117   119    1
SMALL
USER_CHARGES


@<TRIPOS>ATOM
      1 CA         18.7899  -22.1631  -46.8118 C.3       0 UNK        -0.2013 
      2 C          19.1679  -23.6213  -47.0260 C.2       0 UNK         0.4866 
      3 O          20.1419  -23.9048  -47.7247 O.2       0 UNK        -0.5176 
      4 N          18.4010  -24.5481  -46.4377 N.am      1 UNK        -0.4884 
      5 CA         18.6637  -25.9907  -46.4738 C.3       1 UNK         0.0853 
      6 C6         17.3745  -26.7998  -46.1747 C.3       10 UNK        -0.0849 
      7 S7         17.3920  -28.4396  -46.9745 S.3       10 UNK        -0.2776 
      8 C8         15.9768  -29.2534  -46.1690 C.3       10 UNK         0.0316 
      9 C9         16.3226  -29.7494  -44.7719 C.ar      10 UNK        -0.0863 
     10 C10        17.0273  -30.9452  -44.6093 C.ar      10 UNK        -0.1009 
     11 C11        17.3347  -31.4334  -43.3300 C.ar      10 UNK        -0.0712 
     12 C12        16.9164  -30.7016  -42.2140 C.ar      10 UNK        -0.0894 
     13 C13        16.2247  -29.4954  -42.3623 C.ar      10 UNK        -0.0745 
     14 C14        15.9247  -29.0281  -43.6446 C.ar      10 UNK        -0.0972 
     15 C15        15.8015  -28.6883  -41.1413 C.3       10 UNK         0.0209 
     16 S16        17.2092  -28.1881  -40.0948 S.3       10 UNK        -0.2568 
     17 C17        18.3304  -27.3746  -41.2861 C.3       10 UNK        -0.0983 
     18 CA         19.6562  -28.1627  -41.4505 C.3       3 UNK         0.0876 
     19 N          20.2957  -27.8510  -42.7254 N.am      3 UNK        -0.4424 
     20 C          20.7965  -28.7401  -43.5884 C.2       2 UNK         0.4918 
     21 O          20.7472  -29.9592  -43.4260 O.2       2 UNK        -0.4875 
     22 CA         21.4203  -28.1632  -44.8735 C.3       2 UNK         0.0481 
     23 CB         22.1756  -29.2331  -45.6843 C.3       2 UNK        -0.1831 
     24 N          20.3998  -27.5517  -45.7267 N.am      2 UNK        -0.4498 
     25 C          19.8077  -26.3705  -45.5081 C.2       1 UNK         0.5027 
     26 O          20.1042  -25.6242  -44.5693 O.2       1 UNK        -0.4969 
     27 C          20.6273  -27.8289  -40.3044 C.2       3 UNK         0.5005 
     28 O          21.3457  -26.8284  -40.3882 O.2       3 UNK        -0.5279 
     29 N          20.5798  -28.6343  -39.2321 N.am      4 UNK        -0.4463 
     30 CA         21.2633  -28.4422  -37.9470 C.3       4 UNK         0.0283 
     31 CB         20.5069  -27.3785  -37.1180 C.3       4 UNK        -0.1875 
     32 C          22.7719  -28.1598  -38.1053 C.2       4 UNK         0.4949 
     33 O          23.5075  -29.0380  -38.5617 O.2       4 UNK        -0.5039 
     34 N          23.1923  -26.9374  -37.7507 N.am      5 UNK        -0.4663 
     35 CA         24.5658  -26.4367  -37.8302 C.3       5 UNK         0.0242 
     36 CB         24.6423  -25.0760  -37.1187 C.3       5 UNK        -0.1982 
     37 C          25.1250  -26.3272  -39.2600 C.2       5 UNK         0.5017 
     38 O          26.3461  -26.2972  -39.4122 O.2       5 UNK        -0.5012 
     39 N          24.2556  -26.3134  -40.2820 N.am      6 UNK        -0.4439 
     40 CA         24.6308  -26.3495  -41.6996 C.3       6 UNK         0.0297 
     41 CB         23.5966  -25.5604  -42.5248 C.3       6 UNK        -0.2006 
     42 C          24.8223  -27.7931  -42.2131 C.2       6 UNK         0.4892 
     43 O          24.5358  -28.0601  -43.3798 O.2       6 UNK        -0.5089 
     44 N          25.3138  -28.6842  -41.3371 N.am      7 UNK        -0.4243 
     45 CA         25.5989  -30.1061  -41.5457 C.3       7 UNK         0.0196 
     46 CB         26.7407  -30.2930  -42.5686 C.3       7 UNK        -0.2007 
     47 C          24.3320  -30.8994  -41.9056 C.2       7 UNK         0.5020 
     48 O          24.2155  -31.3667  -43.0385 O.2       7 UNK        -0.5147 
     49 N          23.4266  -31.0142  -40.9189 N.am      8 UNK        -0.4734 
     50 CA         22.1138  -31.6844  -40.9168 C.3       8 UNK         0.0238 
     51 CB         21.7696  -32.0660  -39.4647 C.3       8 UNK        -0.1912 
     52 C          21.9790  -32.9114  -41.8438 C.2       8 UNK         0.5038 
     53 O          22.2213  -34.0376  -41.4034 O.2       8 UNK        -0.5046 
     54 N          21.5999  -32.6610  -43.1047 N.am      9 UNK        -0.4200 
     55 CA         21.4475  -33.6498  -44.1856 C.3       9 UNK         0.0839 
     56 C          22.7323  -34.4800  -44.5010 C.2       9 UNK         0.5513 
     57 N          23.9246  -33.9571  -44.2431 N.am      9 UNK        -0.7519 
     58 O          22.6585  -35.5925  -45.0175 O.2       9 UNK        -0.4960 
     59 C59        20.1544  -34.5027  -44.0102 C.3       10 UNK        -0.0876 
     60 S60        18.6850  -33.5943  -44.5942 S.3       10 UNK        -0.2414 
     61 C61        18.1283  -32.7216  -43.0892 C.3       10 UNK         0.0169 
     62 H62        17.9013  -22.0586  -46.1896 H         1 UNK         0.0903 
     63 H63        19.6080  -21.6317  -46.3262 H         1 UNK         0.0903 
     64 H64        18.5916  -21.6821  -47.7693 H         1 UNK         0.0903 
     65 H65        17.6386  -24.2543  -45.8438 H         1 UNK         0.3096 
     66 H66        18.9968  -26.2280  -47.4875 H         1 UNK         0.1121 
     67 H67        16.5002  -26.2745  -46.5634 H         1 UNK         0.0849 
     68 H68        17.2087  -26.9027  -45.1006 H         1 UNK         0.0849 
     69 H69        15.1255  -28.5712  -46.1418 H         1 UNK         0.0865 
     70 H70        15.6636  -30.0992  -46.7831 H         1 UNK         0.0865 
     71 H71        17.3333  -31.4811  -45.4956 H         1 UNK         0.1346 
     72 H72        17.1472  -31.0613  -41.2204 H         1 UNK         0.1412 
     73 H73        15.3818  -28.1006  -43.7665 H         1 UNK         0.1426 
     74 H74        15.1107  -29.2838  -40.5431 H         1 UNK         0.0716 
     75 H75        15.2555  -27.7916  -41.4384 H         1 UNK         0.0716 
     76 H76        18.5074  -26.3456  -40.9659 H         1 UNK         0.0695 
     77 H77        17.8220  -27.2894  -42.2473 H         1 UNK         0.0695 
     78 H78        19.4331  -29.2315  -41.4237 H         1 UNK         0.0983 
     79 H79        20.3733  -26.8668  -42.9577 H         1 UNK         0.3095 
     80 H80        22.1400  -27.3967  -44.5812 H         1 UNK         0.0454 
     81 H81        21.5113  -30.0251  -46.0323 H         1 UNK         0.0851 
     82 H82        22.9511  -29.7023  -45.0762 H         1 UNK         0.0851 
     83 H83        22.6685  -28.7983  -46.5535 H         1 UNK         0.0851 
     84 H84        20.0432  -28.1294  -46.4757 H         1 UNK         0.2976 
     85 H85        19.9430  -29.4180  -39.2620 H         1 UNK         0.3116 
     86 H86        21.1887  -29.3854  -37.4046 H         1 UNK         0.0646 
     87 H87        20.4781  -26.4086  -37.6163 H         1 UNK         0.0847 
     88 H88        20.9611  -27.2409  -36.1356 H         1 UNK         0.0847 
     89 H89        19.4744  -27.6833  -36.9465 H         1 UNK         0.0847 
     90 H90        22.4983  -26.2830  -37.4194 H         1 UNK         0.3040 
     91 H91        25.2041  -27.1417  -37.2930 H         1 UNK         0.1015 
     92 H92        24.0055  -24.3326  -37.6002 H         1 UNK         0.0786 
     93 H93        25.6614  -24.6865  -37.1276 H         1 UNK         0.0786 
     94 H94        24.3384  -25.1551  -36.0746 H         1 UNK         0.0786 
     95 H95        23.2610  -26.4007  -40.0843 H         1 UNK         0.3172 
     96 H96        25.5912  -25.8455  -41.8257 H         1 UNK         0.0595 
     97 H97        23.9089  -25.4742  -43.5663 H         1 UNK         0.0839 
     98 H98        23.4708  -24.5477  -42.1420 H         1 UNK         0.0839 
     99 H99        22.6205  -26.0432  -42.5202 H         1 UNK         0.0839 
    100 H100       25.4901  -28.3451  -40.4015 H         1 UNK         0.2998 
    101 H101       25.9533  -30.4957  -40.5899 H         1 UNK         0.0822 
    102 H102       27.0011  -31.3473  -42.6704 H         1 UNK         0.0787 
    103 H103       26.4653  -29.9316  -43.5600 H         1 UNK         0.0787 
    104 H104       27.6416  -29.7642  -42.2580 H         1 UNK         0.0787 
    105 H105       23.6402  -30.5192  -40.0587 H         1 UNK         0.3055 
    106 H106       21.3793  -30.9462  -41.2327 H         1 UNK         0.1106 
    107 H107       22.4899  -32.7749  -39.0542 H         1 UNK         0.0828 
    108 H108       21.7593  -31.1978  -38.8103 H         1 UNK         0.0828 
    109 H109       20.7842  -32.5300  -39.4032 H         1 UNK         0.0828 
    110 H110       21.4267  -31.6933  -43.3671 H         1 UNK         0.2931 
    111 H111       21.3244  -33.0527  -45.0902 H         1 UNK         0.0412 
    112 H112       24.7565  -34.4832  -44.4564 H         1 UNK         0.3472 
    113 H113       23.9979  -33.0296  -43.8282 H         1 UNK         0.3472 
    114 H114       20.0207  -34.8270  -42.9771 H         1 UNK         0.0970 
    115 H115       20.1930  -35.4177  -44.6028 H         1 UNK         0.0970 
    116 H116       18.9952  -32.4691  -42.4799 H         1 UNK         0.0612 
    117 H117       17.5239  -33.4101  -42.4973 H         1 UNK         0.0612 
@<TRIPOS>BOND
     1    1    2 1    
     2    1   62 1    
     3    1   63 1    
     4    1   64 1    
     5    2    3 2    
     6    2    4 am   BACKBONE|DICT|INTERRES
     7    4    5 1    
     8    4   65 1    
     9    5    6 1    
    10    5   25 1    
    11    5   66 1    
    12    6    7 1    
    13    6   67 1    
    14    6   68 1    
    15    7    8 1    
    16    8    9 1    
    17    8   69 1    
    18    8   70 1    
    19    9   10 ar   
    20    9   14 ar   
    21   10   11 ar   
    22   10   71 1    
    23   11   12 ar   
    24   11   61 1    
    25   12   13 ar   
    26   12   72 1    
    27   13   14 ar   
    28   13   15 1    
    29   14   73 1    
    30   15   16 1    
    31   15   74 1    
    32   15   75 1    
    33   16   17 1    
    34   17   18 1    
    35   17   76 1    
    36   17   77 1    
    37   18   19 1    
    38   18   27 1    
    39   18   78 1    
    40   19   20 am   BACKBONE|DICT|INTERRES
    41   19   79 1    
    42   20   21 2    
    43   20   22 1    
    44   22   23 1    
    45   22   24 1    
    46   22   80 1    
    47   23   81 1    
    48   23   82 1    
    49   23   83 1    
    50   24   25 am   BACKBONE|DICT|INTERRES
    51   24   84 1    
    52   25   26 2    
    53   27   28 2    
    54   27   29 am   BACKBONE|DICT|INTERRES
    55   29   30 1    
    56   29   85 1    
    57   30   31 1    
    58   30   32 1    
    59   30   86 1    
    60   31   87 1    
    61   31   88 1    
    62   31   89 1    
    63   32   33 2    
    64   32   34 am   BACKBONE|DICT|INTERRES
    65   34   35 1    
    66   34   90 1    
    67   35   36 1    
    68   35   37 1    
    69   35   91 1    
    70   36   92 1    
    71   36   93 1    
    72   36   94 1    
    73   37   38 2    
    74   37   39 am   BACKBONE|DICT|INTERRES
    75   39   40 1    
    76   39   95 1    
    77   40   41 1    
    78   40   42 1    
    79   40   96 1    
    80   41   97 1    
    81   41   98 1    
    82   41   99 1    
    83   42   43 2    
    84   42   44 am   BACKBONE|DICT|INTERRES
    85   44   45 1    
    86   44  100 1    
    87   45   46 1    
    88   45   47 1    
    89   45  101 1    
    90   46  102 1    
    91   46  103 1    
    92   46  104 1    
    93   47   48 2    
    94   47   49 am   BACKBONE|DICT|INTERRES
    95   49   50 1    
    96   49  105 1    
    97   50   51 1    
    98   50   52 1    
    99   50  106 1    
   100   51  107 1    
   101   51  108 1    
   102   51  109 1    
   103   52   53 2    
   104   52   54 am   BACKBONE|DICT|INTERRES
   105   54   55 1    
   106   54  110 1    
   107   55   56 1    
   108   55   59 1    
   109   55  111 1    
   110   56   57 am   BACKBONE|DICT|INTERRES
   111   56   58 2    
   112   57  112 1    
   113   57  113 1    
   114   59   60 1    
   115   59  114 1    
   116   59  115 1    
   117   60   61 1    
   118   61  116 1    
   119   61  117 1    
@<TRIPOS>SUBSTRUCTURE
     1 UNK         1 GROUP             0       ****    0 ROOT    
