@<TRIPOS>MOLECULE
3R8
117   119    1
SMALL
USER_CHARGES


@<TRIPOS>ATOM
      1 CA         15.5749  -23.5838  -43.0237 C.3       0 UNK        -0.2013 
      2 C          16.4125  -24.7431  -43.5407 C.2       0 UNK         0.4866 
      3 O          16.6833  -24.8199  -44.7394 O.2       0 UNK        -0.5176 
      4 N          16.8432  -25.6422  -42.6474 N.am      1 UNK        -0.4884 
      5 CA         17.6248  -26.8503  -42.9465 C.3       1 UNK         0.0853 
      6 C6         17.4385  -27.9265  -41.8475 C.3       10 UNK        -0.0849 
      7 S7         15.7247  -28.5087  -41.6015 S.3       10 UNK        -0.2776 
      8 C8         15.1973  -29.0630  -43.2637 C.3       10 UNK         0.0316 
      9 C9         16.2328  -29.8954  -44.0184 C.ar      10 UNK        -0.0863 
     10 C10        16.8950  -30.9657  -43.4053 C.ar      10 UNK        -0.1009 
     11 C11        17.8564  -31.7031  -44.1053 C.ar      10 UNK        -0.0712 
     12 C12        18.1271  -31.3884  -45.4397 C.ar      10 UNK        -0.0894 
     13 C13        17.4643  -30.3305  -46.0681 C.ar      10 UNK        -0.0745 
     14 C14        16.5187  -29.5908  -45.3534 C.ar      10 UNK        -0.0972 
     15 C15        17.7613  -29.9869  -47.5209 C.3       10 UNK         0.0209 
     16 S16        18.8172  -28.5113  -47.6706 S.3       10 UNK        -0.2568 
     17 C17        20.4189  -29.1635  -47.0918 C.3       10 UNK        -0.0983 
     18 CA         21.4483  -28.0482  -46.7889 C.3       3 UNK         0.0876 
     19 N          20.9150  -27.0684  -45.8308 N.am      3 UNK        -0.4424 
     20 C          21.5456  -26.0060  -45.3100 C.2       2 UNK         0.4918 
     21 O          22.7341  -25.7524  -45.5059 O.2       2 UNK        -0.4875 
     22 CA         20.7271  -25.0583  -44.4116 C.3       2 UNK         0.0481 
     23 CB         20.5855  -23.6792  -45.0755 C.3       2 UNK        -0.1831 
     24 N          19.3912  -25.5508  -44.0622 N.am      2 UNK        -0.4498 
     25 C          19.1207  -26.5466  -43.2089 C.2       1 UNK         0.5027 
     26 O          19.9987  -27.2101  -42.6550 O.2       1 UNK        -0.4969 
     27 C          22.7927  -28.6852  -46.3755 C.2       3 UNK         0.5005 
     28 O          23.6201  -28.9605  -47.2463 O.2       3 UNK        -0.5279 
     29 N          22.9882  -28.8918  -45.0668 N.am      4 UNK        -0.4463 
     30 CA         24.2293  -29.3886  -44.4675 C.3       4 UNK         0.0283 
     31 CB         24.0131  -30.8295  -43.9708 C.3       4 UNK        -0.1875 
     32 C          24.7139  -28.4496  -43.3488 C.2       4 UNK         0.4949 
     33 O          25.4037  -28.9035  -42.4341 O.2       4 UNK        -0.5039 
     34 N          24.3360  -27.1631  -43.4282 N.am      5 UNK        -0.4663 
     35 CA         24.5733  -26.0743  -42.4705 C.3       5 UNK         0.0242 
     36 CB         26.0738  -25.7286  -42.3690 C.3       5 UNK        -0.1982 
     37 C          23.9371  -26.3291  -41.0921 C.2       5 UNK         0.5017 
     38 O          22.9505  -25.6773  -40.7499 O.2       5 UNK        -0.5012 
     39 N          24.5156  -27.2704  -40.3406 N.am      6 UNK        -0.4439 
     40 CA         24.0571  -27.7395  -39.0338 C.3       6 UNK         0.0297 
     41 CB         24.5528  -26.7794  -37.9341 C.3       6 UNK        -0.2006 
     42 C          24.4782  -29.1961  -38.7509 C.2       6 UNK         0.4892 
     43 O          24.2843  -29.6595  -37.6255 O.2       6 UNK        -0.5089 
     44 N          25.0654  -29.8984  -39.7341 N.am      7 UNK        -0.4243 
     45 CA         25.5120  -31.2840  -39.5979 C.3       7 UNK         0.0196 
     46 CB         26.6311  -31.5623  -40.6163 C.3       7 UNK        -0.2007 
     47 C          24.3183  -32.2273  -39.7933 C.2       7 UNK         0.5020 
     48 O          23.8951  -32.4421  -40.9300 O.2       7 UNK        -0.5147 
     49 N          23.7737  -32.7343  -38.6788 N.am      8 UNK        -0.4734 
     50 CA         22.5976  -33.6103  -38.5413 C.3       8 UNK         0.0238 
     51 CB         22.7827  -34.9434  -39.2937 C.3       8 UNK        -0.1912 
     52 C          21.2629  -32.9382  -38.9134 C.2       8 UNK         0.5038 
     53 O          20.3124  -33.0225  -38.1347 O.2       8 UNK        -0.5046 
     54 N          21.2168  -32.2826  -40.0770 N.am      9 UNK        -0.4200 
     55 CA         20.1041  -31.4550  -40.5539 C.3       9 UNK         0.0839 
     56 C          19.9041  -30.2009  -39.6622 C.2       9 UNK         0.5513 
     57 N          18.6727  -29.9019  -39.2728 N.am      9 UNK        -0.7519 
     58 O          20.8521  -29.4849  -39.3497 O.2       9 UNK        -0.4960 
     59 C59        20.3046  -31.0448  -42.0343 C.3       10 UNK        -0.0876 
     60 S60        20.3731  -32.4701  -43.1713 S.3       10 UNK        -0.2414 
     61 C61        18.6039  -32.8414  -43.4235 C.3       10 UNK         0.0169 
     62 H62        16.0694  -22.6375  -43.2412 H         1 UNK         0.0903 
     63 H63        14.6005  -23.5795  -43.5115 H         1 UNK         0.0903 
     64 H64        15.4149  -23.6441  -41.9474 H         1 UNK         0.0903 
     65 H65        16.6034  -25.5193  -41.6735 H         1 UNK         0.3096 
     66 H66        17.2543  -27.2625  -43.8856 H         1 UNK         0.1121 
     67 H67        18.0414  -28.8035  -42.0688 H         1 UNK         0.0849 
     68 H68        17.8070  -27.5531  -40.8903 H         1 UNK         0.0849 
     69 H69        14.2850  -29.6518  -43.1611 H         1 UNK         0.0865 
     70 H70        14.9212  -28.1794  -43.8415 H         1 UNK         0.0865 
     71 H71        16.6752  -31.2097  -42.3750 H         1 UNK         0.1346 
     72 H72        18.8658  -31.9618  -45.9831 H         1 UNK         0.1412 
     73 H73        16.0093  -28.7715  -45.8430 H         1 UNK         0.1426 
     74 H74        16.8234  -29.8028  -48.0469 H         1 UNK         0.0716 
     75 H75        18.2360  -30.8269  -48.0307 H         1 UNK         0.0716 
     76 H76        20.2538  -29.7667  -46.1979 H         1 UNK         0.0695 
     77 H77        20.7996  -29.8427  -47.8575 H         1 UNK         0.0695 
     78 H78        21.6367  -27.5002  -47.7145 H         1 UNK         0.0983 
     79 H79        19.9339  -27.1736  -45.6197 H         1 UNK         0.3095 
     80 H80        21.2910  -24.9317  -43.4848 H         1 UNK         0.0454 
     81 H81        21.5619  -23.2552  -45.3142 H         1 UNK         0.0851 
     82 H82        20.0184  -23.7357  -46.0055 H         1 UNK         0.0851 
     83 H83        20.0813  -22.9714  -44.4172 H         1 UNK         0.0851 
     84 H84        18.5959  -25.0800  -44.4863 H         1 UNK         0.2976 
     85 H85        22.2525  -28.6284  -44.4247 H         1 UNK         0.3116 
     86 H86        25.0284  -29.4048  -45.2111 H         1 UNK         0.0646 
     87 H87        23.3128  -30.8692  -43.1373 H         1 UNK         0.0847 
     88 H88        24.9485  -31.2710  -43.6270 H         1 UNK         0.0847 
     89 H89        23.6274  -31.4717  -44.7624 H         1 UNK         0.0847 
     90 H90        23.7966  -26.8869  -44.2433 H         1 UNK         0.3040 
     91 H91        24.0692  -25.1987  -42.8843 H         1 UNK         0.1015 
     92 H92        26.4683  -25.4145  -43.3354 H         1 UNK         0.0786 
     93 H93        26.6763  -26.5694  -42.0250 H         1 UNK         0.0786 
     94 H94        26.2368  -24.9056  -41.6717 H         1 UNK         0.0786 
     95 H95        25.2896  -27.7711  -40.7624 H         1 UNK         0.3172 
     96 H96        22.9653  -27.7347  -39.0301 H         1 UNK         0.0595 
     97 H97        24.1945  -25.7634  -38.1000 H         1 UNK         0.0839 
     98 H98        25.6421  -26.7484  -37.8915 H         1 UNK         0.0839 
     99 H99        24.1950  -27.0866  -36.9506 H         1 UNK         0.0839 
    100 H100       25.1279  -29.5144  -40.6725 H         1 UNK         0.2998 
    101 H101       25.9300  -31.4359  -38.6000 H         1 UNK         0.0822 
    102 H102       26.2969  -31.4066  -41.6421 H         1 UNK         0.0787 
    103 H103       27.4910  -30.9145  -40.4456 H         1 UNK         0.0787 
    104 H104       26.9791  -32.5932  -40.5400 H         1 UNK         0.0787 
    105 H105       24.1663  -32.4207  -37.8003 H         1 UNK         0.3055 
    106 H106       22.5334  -33.8478  -37.4777 H         1 UNK         0.1106 
    107 H107       23.6944  -35.4522  -38.9808 H         1 UNK         0.0828 
    108 H108       21.9500  -35.6191  -39.0941 H         1 UNK         0.0828 
    109 H109       22.8305  -34.8039  -40.3740 H         1 UNK         0.0828 
    110 H110       22.0667  -32.2690  -40.6344 H         1 UNK         0.2931 
    111 H111       19.2005  -32.0644  -40.4909 H         1 UNK         0.0412 
    112 H112       18.5281  -29.0878  -38.6970 H         1 UNK         0.3472 
    113 H113       17.8885  -30.4842  -39.5208 H         1 UNK         0.3472 
    114 H114       21.2268  -30.4724  -42.1431 H         1 UNK         0.0970 
    115 H115       19.5129  -30.3783  -42.3680 H         1 UNK         0.0970 
    116 H116       18.5201  -33.7394  -44.0370 H         1 UNK         0.0612 
    117 H117       18.1485  -33.0861  -42.4629 H         1 UNK         0.0612 
@<TRIPOS>BOND
     1    1    2 1    
     2    1   62 1    
     3    1   63 1    
     4    1   64 1    
     5    2    3 2    
     6    2    4 am   BACKBONE|DICT|INTERRES
     7    4    5 1    
     8    4   65 1    
     9    5    6 1    
    10    5   25 1    
    11    5   66 1    
    12    6    7 1    
    13    6   67 1    
    14    6   68 1    
    15    7    8 1    
    16    8    9 1    
    17    8   69 1    
    18    8   70 1    
    19    9   10 ar   
    20    9   14 ar   
    21   10   11 ar   
    22   10   71 1    
    23   11   12 ar   
    24   11   61 1    
    25   12   13 ar   
    26   12   72 1    
    27   13   14 ar   
    28   13   15 1    
    29   14   73 1    
    30   15   16 1    
    31   15   74 1    
    32   15   75 1    
    33   16   17 1    
    34   17   18 1    
    35   17   76 1    
    36   17   77 1    
    37   18   19 1    
    38   18   27 1    
    39   18   78 1    
    40   19   20 am   BACKBONE|DICT|INTERRES
    41   19   79 1    
    42   20   21 2    
    43   20   22 1    
    44   22   23 1    
    45   22   24 1    
    46   22   80 1    
    47   23   81 1    
    48   23   82 1    
    49   23   83 1    
    50   24   25 am   BACKBONE|DICT|INTERRES
    51   24   84 1    
    52   25   26 2    
    53   27   28 2    
    54   27   29 am   BACKBONE|DICT|INTERRES
    55   29   30 1    
    56   29   85 1    
    57   30   31 1    
    58   30   32 1    
    59   30   86 1    
    60   31   87 1    
    61   31   88 1    
    62   31   89 1    
    63   32   33 2    
    64   32   34 am   BACKBONE|DICT|INTERRES
    65   34   35 1    
    66   34   90 1    
    67   35   36 1    
    68   35   37 1    
    69   35   91 1    
    70   36   92 1    
    71   36   93 1    
    72   36   94 1    
    73   37   38 2    
    74   37   39 am   BACKBONE|DICT|INTERRES
    75   39   40 1    
    76   39   95 1    
    77   40   41 1    
    78   40   42 1    
    79   40   96 1    
    80   41   97 1    
    81   41   98 1    
    82   41   99 1    
    83   42   43 2    
    84   42   44 am   BACKBONE|DICT|INTERRES
    85   44   45 1    
    86   44  100 1    
    87   45   46 1    
    88   45   47 1    
    89   45  101 1    
    90   46  102 1    
    91   46  103 1    
    92   46  104 1    
    93   47   48 2    
    94   47   49 am   BACKBONE|DICT|INTERRES
    95   49   50 1    
    96   49  105 1    
    97   50   51 1    
    98   50   52 1    
    99   50  106 1    
   100   51  107 1    
   101   51  108 1    
   102   51  109 1    
   103   52   53 2    
   104   52   54 am   BACKBONE|DICT|INTERRES
   105   54   55 1    
   106   54  110 1    
   107   55   56 1    
   108   55   59 1    
   109   55  111 1    
   110   56   57 am   BACKBONE|DICT|INTERRES
   111   56   58 2    
   112   57  112 1    
   113   57  113 1    
   114   59   60 1    
   115   59  114 1    
   116   59  115 1    
   117   60   61 1    
   118   61  116 1    
   119   61  117 1    
@<TRIPOS>SUBSTRUCTURE
     1 UNK         1 GROUP             0       ****    0 ROOT    
