@<TRIPOS>MOLECULE
3R8
117   119    1
SMALL
USER_CHARGES


@<TRIPOS>ATOM
      1 CA         15.8633  -23.2065  -44.8522 C.3       0 UNK        -0.2013 
      2 C          15.2228  -24.5865  -44.8368 C.2       0 UNK         0.4866 
      3 O          14.0001  -24.6864  -44.9320 O.2       0 UNK        -0.5176 
      4 N          16.0489  -25.6353  -44.7287 N.am      1 UNK        -0.4884 
      5 CA         15.6893  -27.0530  -44.6061 C.3       1 UNK         0.0853 
      6 C6         14.8331  -27.5758  -45.7930 C.3       10 UNK        -0.0849 
      7 S7         14.9864  -29.3824  -46.0117 S.3       10 UNK        -0.2776 
      8 C8         16.2710  -29.4988  -47.2994 C.3       10 UNK         0.0316 
      9 C9         17.6350  -29.0804  -46.7700 C.ar      10 UNK        -0.0863 
     10 C10        18.4264  -29.9942  -46.0666 C.ar      10 UNK        -0.1009 
     11 C11        19.6736  -29.6100  -45.5665 C.ar      10 UNK        -0.0712 
     12 C12        20.1273  -28.3057  -45.7745 C.ar      10 UNK        -0.0894 
     13 C13        19.3351  -27.3754  -46.4528 C.ar      10 UNK        -0.0745 
     14 C14        18.0982  -27.7750  -46.9661 C.ar      10 UNK        -0.0972 
     15 C15        19.8080  -25.9397  -46.6317 C.3       10 UNK         0.0209 
     16 S16        19.4153  -24.9068  -45.1795 S.3       10 UNK        -0.2568 
     17 C17        20.7854  -25.3230  -44.0460 C.3       10 UNK        -0.0983 
     18 CA         20.3469  -25.8211  -42.6404 C.3       3 UNK         0.0876 
     19 N          19.3390  -26.8817  -42.6817 N.am      3 UNK        -0.4424 
     20 C          18.0865  -26.7653  -42.2356 C.2       2 UNK         0.4918 
     21 O          17.5857  -25.7083  -41.8465 O.2       2 UNK        -0.4875 
     22 CA         17.2670  -28.0660  -42.1830 C.3       2 UNK         0.0481 
     23 CB         17.5962  -28.8285  -40.8894 C.3       2 UNK        -0.1831 
     24 N          15.8197  -27.8269  -42.2180 N.am      2 UNK        -0.4498 
     25 C          15.0618  -27.3539  -43.2212 C.2       1 UNK         0.5027 
     26 O          13.8581  -27.1588  -43.0511 O.2       1 UNK        -0.4969 
     27 C          21.5651  -26.3925  -41.8964 C.2       3 UNK         0.5005 
     28 O          21.7396  -27.6138  -41.8612 O.2       3 UNK        -0.5279 
     29 N          22.4470  -25.5195  -41.3921 N.am      4 UNK        -0.4463 
     30 CA         23.7288  -25.8843  -40.7697 C.3       4 UNK         0.0283 
     31 CB         24.1962  -24.7254  -39.8692 C.3       4 UNK        -0.1875 
     32 C          24.8001  -26.2991  -41.8061 C.2       4 UNK         0.4949 
     33 O          25.9399  -25.8370  -41.7403 O.2       4 UNK        -0.5039 
     34 N          24.4055  -27.1472  -42.7628 N.am      5 UNK        -0.4663 
     35 CA         25.2346  -27.6396  -43.8637 C.3       5 UNK         0.0242 
     36 CB         24.3154  -28.0684  -45.0198 C.3       5 UNK        -0.1982 
     37 C          26.1469  -28.8030  -43.4445 C.2       5 UNK         0.5017 
     38 O          27.2100  -28.9805  -44.0401 O.2       5 UNK        -0.5012 
     39 N          25.7171  -29.5710  -42.4378 N.am      6 UNK        -0.4439 
     40 CA         26.4074  -30.7224  -41.8696 C.3       6 UNK         0.0297 
     41 CB         26.2982  -31.9336  -42.8169 C.3       6 UNK        -0.2006 
     42 C          25.7581  -31.0399  -40.5211 C.2       6 UNK         0.4892 
     43 O          24.5880  -30.7032  -40.3172 O.2       6 UNK        -0.5089 
     44 N          26.5017  -31.7313  -39.6480 N.am      7 UNK        -0.4243 
     45 CA         26.0390  -32.1801  -38.3281 C.3       7 UNK         0.0196 
     46 CB         27.2270  -32.7610  -37.5442 C.3       7 UNK        -0.2007 
     47 C          24.8830  -33.1968  -38.3856 C.2       7 UNK         0.5020 
     48 O          24.0963  -33.2703  -37.4420 O.2       7 UNK        -0.5147 
     49 N          24.7887  -33.9469  -39.4929 N.am      8 UNK        -0.4734 
     50 CA         23.6808  -34.8598  -39.7868 C.3       8 UNK         0.0238 
     51 CB         24.1001  -35.8155  -40.9159 C.3       8 UNK        -0.1912 
     52 C          22.3783  -34.1268  -40.1594 C.2       8 UNK         0.5038 
     53 O          21.3000  -34.6809  -39.9422 O.2       8 UNK        -0.5046 
     54 N          22.4996  -32.9126  -40.7124 N.am      9 UNK        -0.4200 
     55 CA         21.3793  -32.0158  -41.0177 C.3       9 UNK         0.0839 
     56 C          21.0008  -31.1628  -39.7773 C.2       9 UNK         0.5513 
     57 N          21.9641  -30.5228  -39.1250 N.am      9 UNK        -0.7519 
     58 O          19.8375  -31.1054  -39.3888 O.2       9 UNK        -0.4960 
     59 C59        21.6892  -31.1435  -42.2620 C.3       10 UNK        -0.0876 
     60 S60        20.1874  -30.4191  -43.0011 S.3       10 UNK        -0.2414 
     61 C61        20.5284  -30.5862  -44.7767 C.3       10 UNK         0.0169 
     62 H62        15.3623  -22.5519  -44.1395 H         1 UNK         0.0903 
     63 H63        16.9195  -23.2430  -44.5866 H         1 UNK         0.0903 
     64 H64        15.7755  -22.7626  -45.8435 H         1 UNK         0.0903 
     65 H65        17.0413  -25.4482  -44.6524 H         1 UNK         0.3096 
     66 H66        16.6404  -27.5737  -44.6688 H         1 UNK         0.1121 
     67 H67        13.7790  -27.3218  -45.6683 H         1 UNK         0.0849 
     68 H68        15.1368  -27.0883  -46.7201 H         1 UNK         0.0849 
     69 H69        16.3189  -30.5284  -47.6571 H         1 UNK         0.0865 
     70 H70        15.9873  -28.8939  -48.1622 H         1 UNK         0.0865 
     71 H71        18.0662  -31.0000  -45.8974 H         1 UNK         0.1346 
     72 H72        21.0931  -28.0179  -45.3873 H         1 UNK         0.1412 
     73 H73        17.4845  -27.0608  -47.4982 H         1 UNK         0.1426 
     74 H74        20.8799  -25.9134  -46.8336 H         1 UNK         0.0716 
     75 H75        19.3290  -25.4989  -47.5074 H         1 UNK         0.0716 
     76 H76        21.4422  -26.0456  -44.5287 H         1 UNK         0.0695 
     77 H77        21.3917  -24.4219  -43.9389 H         1 UNK         0.0695 
     78 H78        19.9739  -24.9710  -42.0648 H         1 UNK         0.0983 
     79 H79        19.7116  -27.8007  -42.8891 H         1 UNK         0.3095 
     80 H80        17.5452  -28.7012  -43.0258 H         1 UNK         0.0454 
     81 H81        17.1083  -29.8030  -40.8657 H         1 UNK         0.0851 
     82 H82        18.6683  -29.0079  -40.7978 H         1 UNK         0.0851 
     83 H83        17.2883  -28.2747  -40.0017 H         1 UNK         0.0851 
     84 H84        15.3512  -27.9792  -41.3375 H         1 UNK         0.2976 
     85 H85        22.2692  -24.5305  -41.4988 H         1 UNK         0.3116 
     86 H86        23.5645  -26.7519  -40.1267 H         1 UNK         0.0646 
     87 H87        25.1107  -24.9880  -39.3354 H         1 UNK         0.0847 
     88 H88        23.4471  -24.4793  -39.1165 H         1 UNK         0.0847 
     89 H89        24.4034  -23.8234  -40.4463 H         1 UNK         0.0847 
     90 H90        23.4508  -27.4920  -42.7021 H         1 UNK         0.3040 
     91 H91        25.8752  -26.8270  -44.2142 H         1 UNK         0.1015 
     92 H92        23.7129  -27.2334  -45.3778 H         1 UNK         0.0786 
     93 H93        23.6374  -28.8690  -44.7210 H         1 UNK         0.0786 
     94 H94        24.8977  -28.4329  -45.8673 H         1 UNK         0.0786 
     95 H95        24.8521  -29.3355  -41.9664 H         1 UNK         0.3172 
     96 H96        27.4563  -30.4662  -41.7067 H         1 UNK         0.0595 
     97 H97        25.2585  -32.2038  -43.0070 H         1 UNK         0.0839 
     98 H98        26.7937  -32.8100  -42.3977 H         1 UNK         0.0839 
     99 H99        26.7697  -31.7327  -43.7789 H         1 UNK         0.0839 
    100 H100       27.4498  -31.9728  -39.9004 H         1 UNK         0.2998 
    101 H101       25.6697  -31.3033  -37.7913 H         1 UNK         0.0822 
    102 H102       28.0181  -32.0220  -37.4157 H         1 UNK         0.0787 
    103 H103       26.9186  -33.0786  -36.5470 H         1 UNK         0.0787 
    104 H104       27.6555  -33.6304  -38.0448 H         1 UNK         0.0787 
    105 H105       25.4992  -33.8428  -40.2024 H         1 UNK         0.3055 
    106 H106       23.4762  -35.4529  -38.8922 H         1 UNK         0.1106 
    107 H107       23.3032  -36.5260  -41.1408 H         1 UNK         0.0828 
    108 H108       24.3274  -35.2793  -41.8381 H         1 UNK         0.0828 
    109 H109       24.9796  -36.3968  -40.6384 H         1 UNK         0.0828 
    110 H110       23.4196  -32.4982  -40.7678 H         1 UNK         0.2931 
    111 H111       20.5143  -32.6347  -41.2663 H         1 UNK         0.0412 
    112 H112       21.7333  -29.9753  -38.3122 H         1 UNK         0.3472 
    113 H113       22.9215  -30.5550  -39.4634 H         1 UNK         0.3472 
    114 H114       22.1824  -31.7544  -43.0196 H         1 UNK         0.0970 
    115 H115       22.3890  -30.3410  -42.0215 H         1 UNK         0.0970 
    116 H116       21.5841  -30.3909  -44.9711 H         1 UNK         0.0612 
    117 H117       20.3357  -31.6131  -45.0906 H         1 UNK         0.0612 
@<TRIPOS>BOND
     1    1    2 1    
     2    1   62 1    
     3    1   63 1    
     4    1   64 1    
     5    2    3 2    
     6    2    4 am   BACKBONE|DICT|INTERRES
     7    4    5 1    
     8    4   65 1    
     9    5    6 1    
    10    5   25 1    
    11    5   66 1    
    12    6    7 1    
    13    6   67 1    
    14    6   68 1    
    15    7    8 1    
    16    8    9 1    
    17    8   69 1    
    18    8   70 1    
    19    9   10 ar   
    20    9   14 ar   
    21   10   11 ar   
    22   10   71 1    
    23   11   12 ar   
    24   11   61 1    
    25   12   13 ar   
    26   12   72 1    
    27   13   14 ar   
    28   13   15 1    
    29   14   73 1    
    30   15   16 1    
    31   15   74 1    
    32   15   75 1    
    33   16   17 1    
    34   17   18 1    
    35   17   76 1    
    36   17   77 1    
    37   18   19 1    
    38   18   27 1    
    39   18   78 1    
    40   19   20 am   BACKBONE|DICT|INTERRES
    41   19   79 1    
    42   20   21 2    
    43   20   22 1    
    44   22   23 1    
    45   22   24 1    
    46   22   80 1    
    47   23   81 1    
    48   23   82 1    
    49   23   83 1    
    50   24   25 am   BACKBONE|DICT|INTERRES
    51   24   84 1    
    52   25   26 2    
    53   27   28 2    
    54   27   29 am   BACKBONE|DICT|INTERRES
    55   29   30 1    
    56   29   85 1    
    57   30   31 1    
    58   30   32 1    
    59   30   86 1    
    60   31   87 1    
    61   31   88 1    
    62   31   89 1    
    63   32   33 2    
    64   32   34 am   BACKBONE|DICT|INTERRES
    65   34   35 1    
    66   34   90 1    
    67   35   36 1    
    68   35   37 1    
    69   35   91 1    
    70   36   92 1    
    71   36   93 1    
    72   36   94 1    
    73   37   38 2    
    74   37   39 am   BACKBONE|DICT|INTERRES
    75   39   40 1    
    76   39   95 1    
    77   40   41 1    
    78   40   42 1    
    79   40   96 1    
    80   41   97 1    
    81   41   98 1    
    82   41   99 1    
    83   42   43 2    
    84   42   44 am   BACKBONE|DICT|INTERRES
    85   44   45 1    
    86   44  100 1    
    87   45   46 1    
    88   45   47 1    
    89   45  101 1    
    90   46  102 1    
    91   46  103 1    
    92   46  104 1    
    93   47   48 2    
    94   47   49 am   BACKBONE|DICT|INTERRES
    95   49   50 1    
    96   49  105 1    
    97   50   51 1    
    98   50   52 1    
    99   50  106 1    
   100   51  107 1    
   101   51  108 1    
   102   51  109 1    
   103   52   53 2    
   104   52   54 am   BACKBONE|DICT|INTERRES
   105   54   55 1    
   106   54  110 1    
   107   55   56 1    
   108   55   59 1    
   109   55  111 1    
   110   56   57 am   BACKBONE|DICT|INTERRES
   111   56   58 2    
   112   57  112 1    
   113   57  113 1    
   114   59   60 1    
   115   59  114 1    
   116   59  115 1    
   117   60   61 1    
   118   61  116 1    
   119   61  117 1    
@<TRIPOS>SUBSTRUCTURE
     1 UNK         1 GROUP             0       ****    0 ROOT    
