@<TRIPOS>MOLECULE
3R8
117   119    1
SMALL
USER_CHARGES


@<TRIPOS>ATOM
      1 CA         19.0697  -25.0979  -50.4904 C.3       0 UNK        -0.2013 
      2 C          19.2770  -25.7655  -49.1390 C.2       0 UNK         0.4866 
      3 O          20.3610  -26.2859  -48.8729 O.2       0 UNK        -0.5176 
      4 N          18.2437  -25.7642  -48.2883 N.am      1 UNK        -0.4884 
      5 CA         18.2808  -26.3163  -46.9302 C.3       1 UNK         0.0853 
      6 C6         16.8609  -26.5005  -46.3447 C.3       10 UNK        -0.0849 
      7 S7         15.8352  -27.7103  -47.2506 S.3       10 UNK        -0.2776 
      8 C8         16.5356  -29.3273  -46.7443 C.3       10 UNK         0.0316 
      9 C9         16.6169  -29.5942  -45.2385 C.ar      10 UNK        -0.0863 
     10 C10        17.5496  -30.5264  -44.7710 C.ar      10 UNK        -0.1009 
     11 C11        17.6772  -30.7889  -43.4035 C.ar      10 UNK        -0.0712 
     12 C12        16.8767  -30.0991  -42.4903 C.ar      10 UNK        -0.0894 
     13 C13        15.9500  -29.1570  -42.9402 C.ar      10 UNK        -0.0745 
     14 C14        15.7946  -28.9411  -44.3120 C.ar      10 UNK        -0.0972 
     15 C15        15.1425  -28.3312  -41.9546 C.3       10 UNK         0.0209 
     16 S16        15.8571  -26.6629  -41.7952 S.3       10 UNK        -0.2568 
     17 C17        17.0882  -26.8729  -40.4622 C.3       10 UNK        -0.0983 
     18 CA         18.5327  -27.2014  -40.9320 C.3       3 UNK         0.0876 
     19 N          18.9886  -26.3357  -42.0274 N.am      3 UNK        -0.4424 
     20 C          20.2028  -26.3441  -42.5985 C.2       2 UNK         0.4918 
     21 O          21.1343  -27.0715  -42.2484 O.2       2 UNK        -0.4875 
     22 CA         20.3638  -25.4358  -43.8227 C.3       2 UNK         0.0481 
     23 CB         21.8331  -25.1911  -44.2193 C.3       2 UNK        -0.1831 
     24 N          19.6429  -26.0674  -44.9224 N.am      2 UNK        -0.4498 
     25 C          19.1153  -25.4363  -45.9764 C.2       1 UNK         0.5027 
     26 O          19.2138  -24.2219  -46.1738 O.2       1 UNK        -0.4969 
     27 C          19.4945  -27.1450  -39.7275 C.2       3 UNK         0.5005 
     28 O          19.7073  -26.0587  -39.1833 O.2       3 UNK        -0.5279 
     29 N          20.0898  -28.2921  -39.3670 N.am      4 UNK        -0.4463 
     30 CA         21.0966  -28.5122  -38.3131 C.3       4 UNK         0.0283 
     31 CB         20.5504  -28.1420  -36.9205 C.3       4 UNK        -0.1875 
     32 C          22.4649  -27.8444  -38.5628 C.2       4 UNK         0.4949 
     33 O          23.4861  -28.4206  -38.1897 O.2       4 UNK        -0.5039 
     34 N          22.4838  -26.6737  -39.2125 N.am      5 UNK        -0.4663 
     35 CA         23.6807  -25.9344  -39.6275 C.3       5 UNK         0.0242 
     36 CB         23.2577  -24.5762  -40.2073 C.3       5 UNK        -0.1982 
     37 C          24.5635  -26.7077  -40.6242 C.2       5 UNK         0.5017 
     38 O          25.7824  -26.5375  -40.6082 O.2       5 UNK        -0.5012 
     39 N          23.9428  -27.5822  -41.4283 N.am      6 UNK        -0.4439 
     40 CA         24.6017  -28.5508  -42.3090 C.3       6 UNK         0.0297 
     41 CB         23.6149  -28.9654  -43.4122 C.3       6 UNK        -0.2006 
     42 C          25.1870  -29.7831  -41.5802 C.2       6 UNK         0.4892 
     43 O          25.6297  -30.7119  -42.2592 O.2       6 UNK        -0.5089 
     44 N          25.1872  -29.7868  -40.2363 N.am      7 UNK        -0.4243 
     45 CA         25.7566  -30.7929  -39.3328 C.3       7 UNK         0.0196 
     46 CB         27.2974  -30.8335  -39.4490 C.3       7 UNK        -0.2007 
     47 C          25.0871  -32.1645  -39.5073 C.2       7 UNK         0.5020 
     48 O          24.0308  -32.3972  -38.9192 O.2       7 UNK        -0.5147 
     49 N          25.6928  -33.0354  -40.3266 N.am      8 UNK        -0.4734 
     50 CA         25.1383  -34.3307  -40.7323 C.3       8 UNK         0.0238 
     51 CB         26.2064  -35.1226  -41.5036 C.3       8 UNK        -0.1912 
     52 C          23.8515  -34.2006  -41.5682 C.2       8 UNK         0.5038 
     53 O          23.0192  -35.1073  -41.5278 O.2       8 UNK        -0.5046 
     54 N          23.7020  -33.0710  -42.2770 N.am      9 UNK        -0.4200 
     55 CA         22.4946  -32.6760  -43.0183 C.3       9 UNK         0.0839 
     56 C          22.1775  -33.5510  -44.2704 C.2       9 UNK         0.5513 
     57 N          23.1397  -34.2873  -44.8138 N.am      9 UNK        -0.7519 
     58 O          21.0600  -33.5486  -44.7781 O.2       9 UNK        -0.4960 
     59 C59        21.2820  -32.4587  -42.0613 C.3       10 UNK        -0.0876 
     60 S60        20.2682  -31.0072  -42.5005 S.3       10 UNK        -0.2414 
     61 C61        18.6902  -31.8076  -42.9116 C.3       10 UNK         0.0169 
     62 H62        19.2340  -25.8162  -51.2931 H         1 UNK         0.0903 
     63 H63        18.0624  -24.6956  -50.5967 H         1 UNK         0.0903 
     64 H64        19.7770  -24.2785  -50.6159 H         1 UNK         0.0903 
     65 H65        17.3786  -25.3151  -48.5533 H         1 UNK         0.3096 
     66 H66        18.7666  -27.2931  -46.9826 H         1 UNK         0.1121 
     67 H67        16.3280  -25.5475  -46.3492 H         1 UNK         0.0849 
     68 H68        16.9120  -26.7912  -45.2956 H         1 UNK         0.0849 
     69 H69        15.9328  -30.1155  -47.1971 H         1 UNK         0.0865 
     70 H70        17.5292  -29.4172  -47.1859 H         1 UNK         0.0865 
     71 H71        18.1858  -31.0498  -45.4724 H         1 UNK         0.1346 
     72 H72        16.9923  -30.2802  -41.4304 H         1 UNK         0.1412 
     73 H73        15.0611  -28.2209  -44.6466 H         1 UNK         0.1426 
     74 H74        15.0836  -28.8194  -40.9807 H         1 UNK         0.0716 
     75 H75        14.1160  -28.2417  -42.3132 H         1 UNK         0.0716 
     76 H76        16.7348  -27.6371  -39.7677 H         1 UNK         0.0695 
     77 H77        17.0808  -25.9381  -39.8975 H         1 UNK         0.0695 
     78 H78        18.5395  -28.2172  -41.3288 H         1 UNK         0.0983 
     79 H79        18.2857  -25.7125  -42.3970 H         1 UNK         0.3095 
     80 H80        19.9035  -24.4748  -43.5833 H         1 UNK         0.0454 
     81 H81        22.3201  -26.1082  -44.5475 H         1 UNK         0.0851 
     82 H82        22.4085  -24.7946  -43.3835 H         1 UNK         0.0851 
     83 H83        21.9073  -24.4689  -45.0323 H         1 UNK         0.0851 
     84 H84        19.4945  -27.0628  -44.8178 H         1 UNK         0.2976 
     85 H85        19.8859  -29.1124  -39.9223 H         1 UNK         0.3116 
     86 H86        21.2815  -29.5879  -38.3127 H         1 UNK         0.0646 
     87 H87        20.3667  -27.0718  -36.8231 H         1 UNK         0.0847 
     88 H88        21.2610  -28.4179  -36.1402 H         1 UNK         0.0847 
     89 H89        19.6177  -28.6640  -36.7076 H         1 UNK         0.0847 
     90 H90        21.5818  -26.2596  -39.4324 H         1 UNK         0.3040 
     91 H91        24.2848  -25.7553  -38.7354 H         1 UNK         0.1015 
     92 H92        22.5766  -24.6943  -41.0494 H         1 UNK         0.0786 
     93 H93        24.1223  -24.0107  -40.5582 H         1 UNK         0.0786 
     94 H94        22.7550  -23.9664  -39.4564 H         1 UNK         0.0786 
     95 H95        22.9266  -27.5929  -41.4243 H         1 UNK         0.3172 
     96 H96        25.4447  -28.0526  -42.7917 H         1 UNK         0.0595 
     97 H97        22.7068  -29.3962  -42.9923 H         1 UNK         0.0839 
     98 H98        24.0525  -29.6995  -44.0897 H         1 UNK         0.0839 
     99 H99        23.3230  -28.1108  -44.0197 H         1 UNK         0.0839 
    100 H100       24.7215  -29.0209  -39.7624 H         1 UNK         0.2998 
    101 H101       25.5164  -30.4634  -38.3204 H         1 UNK         0.0822 
    102 H102       27.7319  -29.8738  -39.1690 H         1 UNK         0.0787 
    103 H103       27.7207  -31.5838  -38.7797 H         1 UNK         0.0787 
    104 H104       27.6382  -31.0625  -40.4589 H         1 UNK         0.0787 
    105 H105       26.5366  -32.7324  -40.7930 H         1 UNK         0.3055 
    106 H106       24.8816  -34.8852  -39.8269 H         1 UNK         0.1106 
    107 H107       25.8267  -36.1010  -41.8020 H         1 UNK         0.0828 
    108 H108       26.5192  -34.6038  -42.4106 H         1 UNK         0.0828 
    109 H109       27.0921  -35.2945  -40.8918 H         1 UNK         0.0828 
    110 H110       24.4527  -32.3880  -42.2608 H         1 UNK         0.2931 
    111 H111       22.7630  -31.7085  -43.4385 H         1 UNK         0.0412 
    112 H112       22.9346  -34.8452  -45.6279 H         1 UNK         0.3472 
    113 H113       24.0651  -34.2934  -44.4157 H         1 UNK         0.3472 
    114 H114       21.6322  -32.2753  -41.0439 H         1 UNK         0.0970 
    115 H115       20.6684  -33.3589  -41.9929 H         1 UNK         0.0970 
    116 H116       18.3053  -32.3240  -42.0308 H         1 UNK         0.0612 
    117 H117       18.8511  -32.5713  -43.6732 H         1 UNK         0.0612 
@<TRIPOS>BOND
     1    1    2 1    
     2    1   62 1    
     3    1   63 1    
     4    1   64 1    
     5    2    3 2    
     6    2    4 am   BACKBONE|DICT|INTERRES
     7    4    5 1    
     8    4   65 1    
     9    5    6 1    
    10    5   25 1    
    11    5   66 1    
    12    6    7 1    
    13    6   67 1    
    14    6   68 1    
    15    7    8 1    
    16    8    9 1    
    17    8   69 1    
    18    8   70 1    
    19    9   10 ar   
    20    9   14 ar   
    21   10   11 ar   
    22   10   71 1    
    23   11   12 ar   
    24   11   61 1    
    25   12   13 ar   
    26   12   72 1    
    27   13   14 ar   
    28   13   15 1    
    29   14   73 1    
    30   15   16 1    
    31   15   74 1    
    32   15   75 1    
    33   16   17 1    
    34   17   18 1    
    35   17   76 1    
    36   17   77 1    
    37   18   19 1    
    38   18   27 1    
    39   18   78 1    
    40   19   20 am   BACKBONE|DICT|INTERRES
    41   19   79 1    
    42   20   21 2    
    43   20   22 1    
    44   22   23 1    
    45   22   24 1    
    46   22   80 1    
    47   23   81 1    
    48   23   82 1    
    49   23   83 1    
    50   24   25 am   BACKBONE|DICT|INTERRES
    51   24   84 1    
    52   25   26 2    
    53   27   28 2    
    54   27   29 am   BACKBONE|DICT|INTERRES
    55   29   30 1    
    56   29   85 1    
    57   30   31 1    
    58   30   32 1    
    59   30   86 1    
    60   31   87 1    
    61   31   88 1    
    62   31   89 1    
    63   32   33 2    
    64   32   34 am   BACKBONE|DICT|INTERRES
    65   34   35 1    
    66   34   90 1    
    67   35   36 1    
    68   35   37 1    
    69   35   91 1    
    70   36   92 1    
    71   36   93 1    
    72   36   94 1    
    73   37   38 2    
    74   37   39 am   BACKBONE|DICT|INTERRES
    75   39   40 1    
    76   39   95 1    
    77   40   41 1    
    78   40   42 1    
    79   40   96 1    
    80   41   97 1    
    81   41   98 1    
    82   41   99 1    
    83   42   43 2    
    84   42   44 am   BACKBONE|DICT|INTERRES
    85   44   45 1    
    86   44  100 1    
    87   45   46 1    
    88   45   47 1    
    89   45  101 1    
    90   46  102 1    
    91   46  103 1    
    92   46  104 1    
    93   47   48 2    
    94   47   49 am   BACKBONE|DICT|INTERRES
    95   49   50 1    
    96   49  105 1    
    97   50   51 1    
    98   50   52 1    
    99   50  106 1    
   100   51  107 1    
   101   51  108 1    
   102   51  109 1    
   103   52   53 2    
   104   52   54 am   BACKBONE|DICT|INTERRES
   105   54   55 1    
   106   54  110 1    
   107   55   56 1    
   108   55   59 1    
   109   55  111 1    
   110   56   57 am   BACKBONE|DICT|INTERRES
   111   56   58 2    
   112   57  112 1    
   113   57  113 1    
   114   59   60 1    
   115   59  114 1    
   116   59  115 1    
   117   60   61 1    
   118   61  116 1    
   119   61  117 1    
@<TRIPOS>SUBSTRUCTURE
     1 UNK         1 GROUP             0       ****    0 ROOT    
