@<TRIPOS>MOLECULE
3R8
117   119    1
SMALL
USER_CHARGES


@<TRIPOS>ATOM
      1 CA         16.5847  -22.2106  -47.6105 C.3       0 UNK        -0.2013 
      2 C          17.6117  -23.2935  -47.3149 C.2       0 UNK         0.4866 
      3 O          18.8128  -23.0475  -47.4313 O.2       0 UNK        -0.5176 
      4 N          17.1493  -24.4931  -46.9429 N.am      1 UNK        -0.4884 
      5 CA         17.9821  -25.6315  -46.5427 C.3       1 UNK         0.0853 
      6 C6         17.2051  -26.9729  -46.6024 C.3       10 UNK        -0.0849 
      7 S7         15.5563  -26.9299  -45.8152 S.3       10 UNK        -0.2776 
      8 C8         15.0817  -28.6851  -45.9013 C.3       10 UNK         0.0316 
      9 C9         15.8424  -29.5191  -44.8819 C.ar      10 UNK        -0.0863 
     10 C10        16.8414  -30.4095  -45.2884 C.ar      10 UNK        -0.1009 
     11 C11        17.5439  -31.1746  -44.3511 C.ar      10 UNK        -0.0712 
     12 C12        17.2137  -31.0481  -42.9942 C.ar      10 UNK        -0.0894 
     13 C13        16.2455  -30.1342  -42.5720 C.ar      10 UNK        -0.0745 
     14 C14        15.5508  -29.3849  -43.5228 C.ar      10 UNK        -0.0972 
     15 C15        15.9727  -29.9251  -41.0873 C.3       10 UNK         0.0209 
     16 S16        17.4871  -29.5763  -40.1261 S.3       10 UNK        -0.2568 
     17 C17        18.2539  -28.1984  -41.0532 C.3       10 UNK        -0.0983 
     18 CA         19.5550  -28.6232  -41.8018 C.3       3 UNK         0.0876 
     19 N          19.9260  -27.6581  -42.8424 N.am      3 UNK        -0.4424 
     20 C          20.3937  -26.4190  -42.6325 C.2       2 UNK         0.4918 
     21 O          20.5597  -25.9275  -41.5152 O.2       2 UNK        -0.4875 
     22 CA         20.7609  -25.5895  -43.8743 C.3       2 UNK         0.0481 
     23 CB         22.2187  -25.8509  -44.2793 C.3       2 UNK        -0.1831 
     24 N          19.9025  -25.8340  -45.0365 N.am      2 UNK        -0.4498 
     25 C          18.6448  -25.3896  -45.1676 C.2       1 UNK         0.5027 
     26 O          18.0277  -24.8008  -44.2760 O.2       1 UNK        -0.4969 
     27 C          20.7670  -28.9328  -40.8889 C.2       3 UNK         0.5005 
     28 O          21.7859  -29.4331  -41.3777 O.2       3 UNK        -0.5279 
     29 N          20.6537  -28.6066  -39.5940 N.am      4 UNK        -0.4463 
     30 CA         21.6869  -28.7545  -38.5684 C.3       4 UNK         0.0283 
     31 CB         21.1082  -28.3520  -37.2037 C.3       4 UNK        -0.1875 
     32 C          22.9737  -27.9631  -38.8561 C.2       4 UNK         0.4949 
     33 O          24.0463  -28.4136  -38.4561 O.2       4 UNK        -0.5039 
     34 N          22.8693  -26.8360  -39.5777 N.am      5 UNK        -0.4663 
     35 CA         24.0136  -26.0011  -39.9649 C.3       5 UNK         0.0242 
     36 CB         23.5169  -24.6321  -40.4567 C.3       5 UNK        -0.1982 
     37 C          24.9444  -26.6616  -41.0004 C.2       5 UNK         0.5017 
     38 O          26.0941  -26.2387  -41.1202 O.2       5 UNK        -0.5012 
     39 N          24.4583  -27.7020  -41.6939 N.am      6 UNK        -0.4439 
     40 CA         25.2495  -28.5681  -42.5735 C.3       6 UNK         0.0297 
     41 CB         24.4217  -28.9065  -43.8262 C.3       6 UNK        -0.2006 
     42 C          25.7420  -29.8404  -41.8531 C.2       6 UNK         0.4892 
     43 O          26.1473  -30.7857  -42.5285 O.2       6 UNK        -0.5089 
     44 N          25.6945  -29.8510  -40.5102 N.am      7 UNK        -0.4243 
     45 CA         25.9820  -30.9799  -39.6168 C.3       7 UNK         0.0196 
     46 CB         27.4510  -31.4427  -39.7328 C.3       7 UNK        -0.2007 
     47 C          24.9581  -32.1151  -39.7994 C.2       7 UNK         0.5020 
     48 O          25.3393  -33.2781  -39.9369 O.2       7 UNK        -0.5147 
     49 N          23.6729  -31.7288  -39.7910 N.am      8 UNK        -0.4734 
     50 CA         22.4808  -32.5565  -40.0085 C.3       8 UNK         0.0238 
     51 CB         22.3470  -33.6538  -38.9300 C.3       8 UNK        -0.1912 
     52 C          22.4308  -33.0990  -41.4471 C.2       8 UNK         0.5038 
     53 O          22.5152  -34.3113  -41.6542 O.2       8 UNK        -0.5046 
     54 N          22.2764  -32.1644  -42.3951 N.am      9 UNK        -0.4200 
     55 CA         22.1878  -32.3601  -43.8527 C.3       9 UNK         0.0839 
     56 C          23.5608  -32.6614  -44.5110 C.2       9 UNK         0.5513 
     57 N          23.8320  -32.0595  -45.6615 N.am      9 UNK        -0.7519 
     58 O          24.3548  -33.4670  -44.0334 O.2       9 UNK        -0.4960 
     59 C59        21.1192  -33.3990  -44.3062 C.3       10 UNK        -0.0876 
     60 S60        19.4744  -33.1087  -43.5746 S.3       10 UNK        -0.2414 
     61 C61        18.6793  -32.0724  -44.8503 C.3       10 UNK         0.0169 
     62 H62        16.6917  -21.8617  -48.6372 H         1 UNK         0.0903 
     63 H63        15.5641  -22.5699  -47.4791 H         1 UNK         0.0903 
     64 H64        16.7333  -21.3612  -46.9442 H         1 UNK         0.0903 
     65 H65        16.1554  -24.6367  -46.8263 H         1 UNK         0.3096 
     66 H66        18.7892  -25.6999  -47.2762 H         1 UNK         0.1121 
     67 H67        17.7958  -27.7801  -46.1654 H         1 UNK         0.0849 
     68 H68        17.0587  -27.2516  -47.6472 H         1 UNK         0.0849 
     69 H69        14.0116  -28.7718  -45.7073 H         1 UNK         0.0865 
     70 H70        15.2384  -29.0600  -46.9141 H         1 UNK         0.0865 
     71 H71        17.0848  -30.4974  -46.3388 H         1 UNK         0.1346 
     72 H72        17.7382  -31.6155  -42.2399 H         1 UNK         0.1412 
     73 H73        14.7961  -28.6768  -43.2076 H         1 UNK         0.1426 
     74 H74        15.2708  -29.1038  -40.9344 H         1 UNK         0.0716 
     75 H75        15.4953  -30.8191  -40.6842 H         1 UNK         0.0716 
     76 H76        18.4305  -27.3608  -40.3764 H         1 UNK         0.0695 
     77 H77        17.5268  -27.8217  -41.7743 H         1 UNK         0.0695 
     78 H78        19.3540  -29.5528  -42.3328 H         1 UNK         0.0983 
     79 H79        19.8467  -27.9834  -43.7941 H         1 UNK         0.3095 
     80 H80        20.6723  -24.5364  -43.5986 H         1 UNK         0.0454 
     81 H81        22.5541  -25.1371  -45.0318 H         1 UNK         0.0851 
     82 H82        22.3373  -26.8515  -44.6927 H         1 UNK         0.0851 
     83 H83        22.8964  -25.7645  -43.4303 H         1 UNK         0.0851 
     84 H84        20.3351  -26.3024  -45.8200 H         1 UNK         0.2976 
     85 H85        19.7736  -28.2132  -39.2909 H         1 UNK         0.3116 
     86 H86        21.9529  -29.8111  -38.5201 H         1 UNK         0.0646 
     87 H87        20.2474  -28.9666  -36.9392 H         1 UNK         0.0847 
     88 H88        21.8489  -28.4797  -36.4127 H         1 UNK         0.0847 
     89 H89        20.7939  -27.3076  -37.1892 H         1 UNK         0.0847 
     90 H90        21.9570  -26.5463  -39.9131 H         1 UNK         0.3040 
     91 H91        24.6157  -25.8318  -39.0691 H         1 UNK         0.1015 
     92 H92        22.9047  -24.7158  -41.3529 H         1 UNK         0.0786 
     93 H93        24.3551  -23.9766  -40.6971 H         1 UNK         0.0786 
     94 H94        22.9233  -24.1289  -39.6934 H         1 UNK         0.0786 
     95 H95        23.5074  -28.0022  -41.5113 H         1 UNK         0.3172 
     96 H96        26.1449  -28.0404  -42.9079 H         1 UNK         0.0595 
     97 H97        23.4596  -29.3517  -43.5725 H         1 UNK         0.0839 
     98 H98        24.9467  -29.6077  -44.4759 H         1 UNK         0.0839 
     99 H99        24.2424  -28.0141  -44.4219 H         1 UNK         0.0839 
    100 H100       25.3337  -29.0273  -40.0429 H         1 UNK         0.2998 
    101 H101       25.8418  -30.6063  -38.6011 H         1 UNK         0.0822 
    102 H102       27.6840  -32.1850  -38.9684 H         1 UNK         0.0787 
    103 H103       27.6620  -31.9004  -40.6996 H         1 UNK         0.0787 
    104 H104       28.1412  -30.6101  -39.5971 H         1 UNK         0.0787 
    105 H105       23.4984  -30.7371  -39.7103 H         1 UNK         0.3055 
    106 H106       21.6169  -31.8987  -39.8985 H         1 UNK         0.1106 
    107 H107       21.4082  -34.1965  -39.0470 H         1 UNK         0.0828 
    108 H108       23.1505  -34.3884  -38.9866 H         1 UNK         0.0828 
    109 H109       22.3522  -33.2271  -37.9272 H         1 UNK         0.0828 
    110 H110       22.2275  -31.1958  -42.0938 H         1 UNK         0.2931 
    111 H111       21.8615  -31.3882  -44.2268 H         1 UNK         0.0412 
    112 H112       24.7095  -32.2553  -46.1174 H         1 UNK         0.3472 
    113 H113       23.1819  -31.4162  -46.0849 H         1 UNK         0.3472 
    114 H114       21.4304  -34.4101  -44.0387 H         1 UNK         0.0970 
    115 H115       21.0266  -33.4008  -45.3939 H         1 UNK         0.0970 
    116 H116       18.3068  -32.7239  -45.6420 H         1 UNK         0.0612 
    117 H117       19.4377  -31.4311  -45.3015 H         1 UNK         0.0612 
@<TRIPOS>BOND
     1    1    2 1    
     2    1   62 1    
     3    1   63 1    
     4    1   64 1    
     5    2    3 2    
     6    2    4 am   BACKBONE|DICT|INTERRES
     7    4    5 1    
     8    4   65 1    
     9    5    6 1    
    10    5   25 1    
    11    5   66 1    
    12    6    7 1    
    13    6   67 1    
    14    6   68 1    
    15    7    8 1    
    16    8    9 1    
    17    8   69 1    
    18    8   70 1    
    19    9   10 ar   
    20    9   14 ar   
    21   10   11 ar   
    22   10   71 1    
    23   11   12 ar   
    24   11   61 1    
    25   12   13 ar   
    26   12   72 1    
    27   13   14 ar   
    28   13   15 1    
    29   14   73 1    
    30   15   16 1    
    31   15   74 1    
    32   15   75 1    
    33   16   17 1    
    34   17   18 1    
    35   17   76 1    
    36   17   77 1    
    37   18   19 1    
    38   18   27 1    
    39   18   78 1    
    40   19   20 am   BACKBONE|DICT|INTERRES
    41   19   79 1    
    42   20   21 2    
    43   20   22 1    
    44   22   23 1    
    45   22   24 1    
    46   22   80 1    
    47   23   81 1    
    48   23   82 1    
    49   23   83 1    
    50   24   25 am   BACKBONE|DICT|INTERRES
    51   24   84 1    
    52   25   26 2    
    53   27   28 2    
    54   27   29 am   BACKBONE|DICT|INTERRES
    55   29   30 1    
    56   29   85 1    
    57   30   31 1    
    58   30   32 1    
    59   30   86 1    
    60   31   87 1    
    61   31   88 1    
    62   31   89 1    
    63   32   33 2    
    64   32   34 am   BACKBONE|DICT|INTERRES
    65   34   35 1    
    66   34   90 1    
    67   35   36 1    
    68   35   37 1    
    69   35   91 1    
    70   36   92 1    
    71   36   93 1    
    72   36   94 1    
    73   37   38 2    
    74   37   39 am   BACKBONE|DICT|INTERRES
    75   39   40 1    
    76   39   95 1    
    77   40   41 1    
    78   40   42 1    
    79   40   96 1    
    80   41   97 1    
    81   41   98 1    
    82   41   99 1    
    83   42   43 2    
    84   42   44 am   BACKBONE|DICT|INTERRES
    85   44   45 1    
    86   44  100 1    
    87   45   46 1    
    88   45   47 1    
    89   45  101 1    
    90   46  102 1    
    91   46  103 1    
    92   46  104 1    
    93   47   48 2    
    94   47   49 am   BACKBONE|DICT|INTERRES
    95   49   50 1    
    96   49  105 1    
    97   50   51 1    
    98   50   52 1    
    99   50  106 1    
   100   51  107 1    
   101   51  108 1    
   102   51  109 1    
   103   52   53 2    
   104   52   54 am   BACKBONE|DICT|INTERRES
   105   54   55 1    
   106   54  110 1    
   107   55   56 1    
   108   55   59 1    
   109   55  111 1    
   110   56   57 am   BACKBONE|DICT|INTERRES
   111   56   58 2    
   112   57  112 1    
   113   57  113 1    
   114   59   60 1    
   115   59  114 1    
   116   59  115 1    
   117   60   61 1    
   118   61  116 1    
   119   61  117 1    
@<TRIPOS>SUBSTRUCTURE
     1 UNK         1 GROUP             0       ****    0 ROOT    
