@<TRIPOS>MOLECULE
3R8
117   119    1
SMALL
USER_CHARGES


@<TRIPOS>ATOM
      1 CA         20.5256  -22.9924  -42.0237 C.3       0 UNK        -0.2013 
      2 C          19.9525  -24.1418  -42.8375 C.2       0 UNK         0.4866 
      3 O          20.6109  -25.1705  -42.9926 O.2       0 UNK        -0.5176 
      4 N          18.7372  -23.9578  -43.3758 N.am      1 UNK        -0.4884 
      5 CA         17.9741  -24.9375  -44.1674 C.3       1 UNK         0.0853 
      6 C6         17.4984  -26.1352  -43.2968 C.3       10 UNK        -0.0849 
      7 S7         15.9764  -26.9355  -43.9232 S.3       10 UNK        -0.2776 
      8 C8         15.8935  -28.4701  -42.9220 C.3       10 UNK         0.0316 
      9 C9         17.0464  -29.4644  -43.0981 C.ar      10 UNK        -0.0863 
     10 C10        17.1618  -30.5305  -42.1976 C.ar      10 UNK        -0.1009 
     11 C11        18.2386  -31.4210  -42.2758 C.ar      10 UNK        -0.0712 
     12 C12        19.2158  -31.2347  -43.2568 C.ar      10 UNK        -0.0894 
     13 C13        19.1093  -30.1828  -44.1665 C.ar      10 UNK        -0.0745 
     14 C14        18.0082  -29.3308  -44.1059 C.ar      10 UNK        -0.0972 
     15 C15        20.2150  -29.9046  -45.1663 C.3       10 UNK         0.0209 
     16 S16        21.4731  -28.8528  -44.3848 S.3       10 UNK        -0.2568 
     17 C17        22.5239  -28.4142  -45.8101 C.3       10 UNK        -0.0983 
     18 CA         22.9913  -26.9292  -45.8115 C.3       3 UNK         0.0876 
     19 N          21.9005  -25.9764  -46.0138 N.am      3 UNK        -0.4424 
     20 C          21.3748  -25.6633  -47.2032 C.2       2 UNK         0.4918 
     21 O          21.7184  -26.2032  -48.2568 O.2       2 UNK        -0.4875 
     22 CA         20.3212  -24.5345  -47.2362 C.3       2 UNK         0.0481 
     23 CB         19.4116  -24.6038  -48.4820 C.3       2 UNK        -0.1831 
     24 N          19.5218  -24.4201  -46.0102 N.am      2 UNK        -0.4498 
     25 C          18.6893  -25.3359  -45.4874 C.2       1 UNK         0.5027 
     26 O          18.4745  -26.4276  -46.0132 O.2       1 UNK        -0.4969 
     27 C          23.8161  -26.4993  -44.5814 C.2       3 UNK         0.5005 
     28 O          23.8224  -25.3165  -44.2256 O.2       3 UNK        -0.5279 
     29 N          24.5037  -27.4601  -43.9505 N.am      4 UNK        -0.4463 
     30 CA         25.2967  -27.2946  -42.7334 C.3       4 UNK         0.0283 
     31 CB         26.2607  -28.4895  -42.6049 C.3       4 UNK        -0.1875 
     32 C          24.4028  -27.1316  -41.4896 C.2       4 UNK         0.4949 
     33 O          24.3336  -28.0387  -40.6603 O.2       4 UNK        -0.5039 
     34 N          23.7158  -25.9843  -41.4000 N.am      5 UNK        -0.4663 
     35 CA         22.9000  -25.5137  -40.2700 C.3       5 UNK         0.0242 
     36 CB         23.8184  -25.1011  -39.1001 C.3       5 UNK        -0.1982 
     37 C          21.7937  -26.4964  -39.8306 C.2       5 UNK         0.5017 
     38 O          21.5079  -26.6003  -38.6365 O.2       5 UNK        -0.5012 
     39 N          21.2177  -27.2187  -40.8033 N.am      6 UNK        -0.4439 
     40 CA         20.2288  -28.2935  -40.6506 C.3       6 UNK         0.0297 
     41 CB         18.8990  -27.7349  -40.1025 C.3       6 UNK        -0.2006 
     42 C          20.7271  -29.5077  -39.8334 C.2       6 UNK         0.4892 
     43 O          19.9012  -30.2796  -39.3454 O.2       6 UNK        -0.5089 
     44 N          22.0512  -29.6748  -39.6923 N.am      7 UNK        -0.4243 
     45 CA         22.6720  -30.7808  -38.9546 C.3       7 UNK         0.0196 
     46 CB         23.9018  -30.2514  -38.1981 C.3       7 UNK        -0.2007 
     47 C          23.0683  -31.9529  -39.8680 C.2       7 UNK         0.5020 
     48 O          23.4624  -33.0023  -39.3578 O.2       7 UNK        -0.5147 
     49 N          22.9616  -31.7749  -41.1938 N.am      8 UNK        -0.4734 
     50 CA         23.3959  -32.7335  -42.2197 C.3       8 UNK         0.0238 
     51 CB         23.3217  -32.0631  -43.6013 C.3       8 UNK        -0.1912 
     52 C          22.6512  -34.0845  -42.2198 C.2       8 UNK         0.5038 
     53 O          23.1441  -35.0330  -42.8321 O.2       8 UNK        -0.5046 
     54 N          21.5057  -34.1612  -41.5294 N.am      9 UNK        -0.4200 
     55 CA         20.7750  -35.4104  -41.2552 C.3       9 UNK         0.0839 
     56 C          21.4817  -36.3406  -40.2247 C.2       9 UNK         0.5513 
     57 N          22.4665  -35.8745  -39.4636 N.am      9 UNK        -0.7519 
     58 O          21.1279  -37.5118  -40.1172 O.2       9 UNK        -0.4960 
     59 C59        19.3028  -35.1550  -40.8314 C.3       10 UNK        -0.0876 
     60 S60        18.3654  -34.1824  -42.0579 S.3       10 UNK        -0.2414 
     61 C61        18.3945  -32.5452  -41.2648 C.3       10 UNK         0.0169 
     62 H62        20.0023  -22.0568  -42.2199 H         1 UNK         0.0903 
     63 H63        20.4447  -23.2098  -40.9593 H         1 UNK         0.0903 
     64 H64        21.5774  -22.8452  -42.2682 H         1 UNK         0.0903 
     65 H65        18.2632  -23.0784  -43.2164 H         1 UNK         0.3096 
     66 H66        17.0812  -24.3990  -44.4896 H         1 UNK         0.1121 
     67 H67        18.3061  -26.8564  -43.1688 H         1 UNK         0.0849 
     68 H68        17.2604  -25.7818  -42.2928 H         1 UNK         0.0849 
     69 H69        15.8265  -28.1853  -41.8708 H         1 UNK         0.0865 
     70 H70        14.9605  -28.9818  -43.1613 H         1 UNK         0.0865 
     71 H71        16.4242  -30.6522  -41.4159 H         1 UNK         0.1346 
     72 H72        20.0666  -31.8992  -43.2957 H         1 UNK         0.1412 
     73 H73        17.9434  -28.5285  -44.8233 H         1 UNK         0.1426 
     74 H74        19.8097  -29.4018  -46.0463 H         1 UNK         0.0716 
     75 H75        20.6675  -30.8350  -45.5118 H         1 UNK         0.0716 
     76 H76        21.9791  -28.6186  -46.7328 H         1 UNK         0.0695 
     77 H77        23.3789  -29.0917  -45.8314 H         1 UNK         0.0695 
     78 H78        23.6830  -26.8133  -46.6490 H         1 UNK         0.0983 
     79 H79        21.5951  -25.4899  -45.1790 H         1 UNK         0.3095 
     80 H80        20.8896  -23.6060  -47.3038 H         1 UNK         0.0454 
     81 H81        19.9963  -24.5272  -49.3994 H         1 UNK         0.0851 
     82 H82        18.6892  -23.7879  -48.4932 H         1 UNK         0.0851 
     83 H83        18.8591  -25.5427  -48.5286 H         1 UNK         0.0851 
     84 H84        19.6384  -23.5607  -45.4913 H         1 UNK         0.2976 
     85 H85        24.3986  -28.4069  -44.2848 H         1 UNK         0.3116 
     86 H86        25.8989  -26.3885  -42.8277 H         1 UNK         0.0646 
     87 H87        26.9326  -28.5528  -43.4609 H         1 UNK         0.0847 
     88 H88        25.7262  -29.4371  -42.5257 H         1 UNK         0.0847 
     89 H89        26.8826  -28.3931  -41.7139 H         1 UNK         0.0847 
     90 H90        23.7587  -25.3678  -42.2073 H         1 UNK         0.3040 
     91 H91        22.3863  -24.6181  -40.6159 H         1 UNK         0.1015 
     92 H92        23.2486  -24.6288  -38.2989 H         1 UNK         0.0786 
     93 H93        24.5739  -24.3844  -39.4220 H         1 UNK         0.0786 
     94 H94        24.3332  -25.9618  -38.6711 H         1 UNK         0.0786 
     95 H95        21.4875  -27.0047  -41.7564 H         1 UNK         0.3172 
     96 H96        20.0360  -28.6647  -41.6577 H         1 UNK         0.0595 
     97 H97        18.0993  -28.4701  -40.1973 H         1 UNK         0.0839 
     98 H98        18.5881  -26.8439  -40.6446 H         1 UNK         0.0839 
     99 H99        18.9756  -27.4728  -39.0469 H         1 UNK         0.0839 
    100 H100       22.6877  -28.9896  -40.0918 H         1 UNK         0.2998 
    101 H101       21.9703  -31.1708  -38.2142 H         1 UNK         0.0822 
    102 H102       23.6441  -29.4011  -37.5662 H         1 UNK         0.0787 
    103 H103       24.3221  -31.0219  -37.5505 H         1 UNK         0.0787 
    104 H104       24.6923  -29.9357  -38.8795 H         1 UNK         0.0787 
    105 H105       22.6210  -30.8822  -41.5201 H         1 UNK         0.3055 
    106 H106       24.4439  -32.9650  -42.0163 H         1 UNK         0.1106 
    107 H107       23.9242  -31.1556  -43.6378 H         1 UNK         0.0828 
    108 H108       23.6966  -32.7287  -44.3800 H         1 UNK         0.0828 
    109 H109       22.3000  -31.7982  -43.8677 H         1 UNK         0.0828 
    110 H110       21.1870  -33.3370  -41.0452 H         1 UNK         0.2931 
    111 H111       20.7438  -35.9715  -42.1915 H         1 UNK         0.0412 
    112 H112       22.7692  -34.9084  -39.5278 H         1 UNK         0.3472 
    113 H113       22.9123  -36.4934  -38.8050 H         1 UNK         0.3472 
    114 H114       18.7789  -36.1049  -40.7072 H         1 UNK         0.0970 
    115 H115       19.2596  -34.6648  -39.8569 H         1 UNK         0.0970 
    116 H116       19.3436  -32.4090  -40.7474 H         1 UNK         0.0612 
    117 H117       17.6159  -32.5025  -40.5017 H         1 UNK         0.0612 
@<TRIPOS>BOND
     1    1    2 1    
     2    1   62 1    
     3    1   63 1    
     4    1   64 1    
     5    2    3 2    
     6    2    4 am   BACKBONE|DICT|INTERRES
     7    4    5 1    
     8    4   65 1    
     9    5    6 1    
    10    5   25 1    
    11    5   66 1    
    12    6    7 1    
    13    6   67 1    
    14    6   68 1    
    15    7    8 1    
    16    8    9 1    
    17    8   69 1    
    18    8   70 1    
    19    9   10 ar   
    20    9   14 ar   
    21   10   11 ar   
    22   10   71 1    
    23   11   12 ar   
    24   11   61 1    
    25   12   13 ar   
    26   12   72 1    
    27   13   14 ar   
    28   13   15 1    
    29   14   73 1    
    30   15   16 1    
    31   15   74 1    
    32   15   75 1    
    33   16   17 1    
    34   17   18 1    
    35   17   76 1    
    36   17   77 1    
    37   18   19 1    
    38   18   27 1    
    39   18   78 1    
    40   19   20 am   BACKBONE|DICT|INTERRES
    41   19   79 1    
    42   20   21 2    
    43   20   22 1    
    44   22   23 1    
    45   22   24 1    
    46   22   80 1    
    47   23   81 1    
    48   23   82 1    
    49   23   83 1    
    50   24   25 am   BACKBONE|DICT|INTERRES
    51   24   84 1    
    52   25   26 2    
    53   27   28 2    
    54   27   29 am   BACKBONE|DICT|INTERRES
    55   29   30 1    
    56   29   85 1    
    57   30   31 1    
    58   30   32 1    
    59   30   86 1    
    60   31   87 1    
    61   31   88 1    
    62   31   89 1    
    63   32   33 2    
    64   32   34 am   BACKBONE|DICT|INTERRES
    65   34   35 1    
    66   34   90 1    
    67   35   36 1    
    68   35   37 1    
    69   35   91 1    
    70   36   92 1    
    71   36   93 1    
    72   36   94 1    
    73   37   38 2    
    74   37   39 am   BACKBONE|DICT|INTERRES
    75   39   40 1    
    76   39   95 1    
    77   40   41 1    
    78   40   42 1    
    79   40   96 1    
    80   41   97 1    
    81   41   98 1    
    82   41   99 1    
    83   42   43 2    
    84   42   44 am   BACKBONE|DICT|INTERRES
    85   44   45 1    
    86   44  100 1    
    87   45   46 1    
    88   45   47 1    
    89   45  101 1    
    90   46  102 1    
    91   46  103 1    
    92   46  104 1    
    93   47   48 2    
    94   47   49 am   BACKBONE|DICT|INTERRES
    95   49   50 1    
    96   49  105 1    
    97   50   51 1    
    98   50   52 1    
    99   50  106 1    
   100   51  107 1    
   101   51  108 1    
   102   51  109 1    
   103   52   53 2    
   104   52   54 am   BACKBONE|DICT|INTERRES
   105   54   55 1    
   106   54  110 1    
   107   55   56 1    
   108   55   59 1    
   109   55  111 1    
   110   56   57 am   BACKBONE|DICT|INTERRES
   111   56   58 2    
   112   57  112 1    
   113   57  113 1    
   114   59   60 1    
   115   59  114 1    
   116   59  115 1    
   117   60   61 1    
   118   61  116 1    
   119   61  117 1    
@<TRIPOS>SUBSTRUCTURE
     1 UNK         1 GROUP             0       ****    0 ROOT    
