@<TRIPOS>MOLECULE
3R8
117   119    1
SMALL
USER_CHARGES


@<TRIPOS>ATOM
      1 CA         14.0896  -22.0336  -45.3268 C.3       0 UNK        -0.2013 
      2 C          14.9349  -23.1554  -45.9117 C.2       0 UNK         0.4866 
      3 O          15.5946  -22.9557  -46.9326 O.2       0 UNK        -0.5176 
      4 N          14.9141  -24.3352  -45.2783 N.am      1 UNK        -0.4884 
      5 CA         15.7219  -25.4998  -45.6574 C.3       1 UNK         0.0853 
      6 C6         15.0776  -26.8132  -45.1464 C.3       10 UNK        -0.0849 
      7 S7         15.5080  -28.2406  -46.1997 S.3       10 UNK        -0.2776 
      8 C8         15.3355  -29.6270  -45.0340 C.3       10 UNK         0.0316 
      9 C9         16.4566  -29.6611  -44.0047 C.ar      10 UNK        -0.0863 
     10 C10        17.7318  -30.1010  -44.3703 C.ar      10 UNK        -0.1009 
     11 C11        18.7524  -30.1845  -43.4193 C.ar      10 UNK        -0.0712 
     12 C12        18.4864  -29.8369  -42.0914 C.ar      10 UNK        -0.0894 
     13 C13        17.2248  -29.3586  -41.7185 C.ar      10 UNK        -0.0745 
     14 C14        16.2131  -29.2820  -42.6811 C.ar      10 UNK        -0.0972 
     15 C15        16.9279  -28.9441  -40.2785 C.3       10 UNK         0.0209 
     16 S16        18.1751  -27.8273  -39.5459 S.3       10 UNK        -0.2568 
     17 C17        18.2513  -26.4575  -40.7517 C.3       10 UNK        -0.0983 
     18 CA         19.5333  -26.5416  -41.6248 C.3       3 UNK         0.0876 
     19 N          19.2582  -26.2218  -43.0310 N.am      3 UNK        -0.4424 
     20 C          19.9759  -26.6543  -44.0740 C.2       2 UNK         0.4918 
     21 O          20.9915  -27.3370  -43.9404 O.2       2 UNK        -0.4875 
     22 CA         19.5235  -26.2203  -45.4868 C.3       2 UNK         0.0481 
     23 CB         20.1685  -27.0858  -46.5855 C.3       2 UNK        -0.1831 
     24 N          18.0705  -26.2081  -45.6980 N.am      2 UNK        -0.4498 
     25 C          17.1857  -25.3430  -45.1854 C.2       1 UNK         0.5027 
     26 O          17.4873  -24.4751  -44.3605 O.2       1 UNK        -0.4969 
     27 C          20.7352  -25.7646  -41.0349 C.2       3 UNK         0.5005 
     28 O          21.1096  -26.0004  -39.8858 O.2       3 UNK        -0.5279 
     29 N          21.3529  -24.8854  -41.8381 N.am      4 UNK        -0.4463 
     30 CA         22.6523  -24.2635  -41.5700 C.3       4 UNK         0.0283 
     31 CB         22.8149  -23.0379  -42.4845 C.3       4 UNK        -0.1875 
     32 C          23.8393  -25.2350  -41.7515 C.2       4 UNK         0.4949 
     33 O          24.9497  -24.9011  -41.3360 O.2       4 UNK        -0.5039 
     34 N          23.6027  -26.3994  -42.3762 N.am      5 UNK        -0.4663 
     35 CA         24.5745  -27.4808  -42.5575 C.3       5 UNK         0.0242 
     36 CB         24.0052  -28.4778  -43.5843 C.3       5 UNK        -0.1982 
     37 C          24.9349  -28.1994  -41.2401 C.2       5 UNK         0.5017 
     38 O          24.3276  -27.9500  -40.1955 O.2       5 UNK        -0.5012 
     39 N          25.9229  -29.0988  -41.3313 N.am      6 UNK        -0.4439 
     40 CA         26.3903  -29.9756  -40.2535 C.3       6 UNK         0.0297 
     41 CB         27.7040  -30.6364  -40.7125 C.3       6 UNK        -0.2006 
     42 C          25.3524  -31.0416  -39.8421 C.2       6 UNK         0.4892 
     43 O          24.2803  -31.1417  -40.4445 O.2       6 UNK        -0.5089 
     44 N          25.7070  -31.8431  -38.8263 N.am      7 UNK        -0.4243 
     45 CA         24.9314  -32.9911  -38.3438 C.3       7 UNK         0.0196 
     46 CB         25.6817  -33.6621  -37.1823 C.3       7 UNK        -0.2007 
     47 C          24.6495  -34.0078  -39.4647 C.2       7 UNK         0.5020 
     48 O          25.5500  -34.3132  -40.2505 O.2       7 UNK        -0.5147 
     49 N          23.3927  -34.4691  -39.5403 N.am      8 UNK        -0.4734 
     50 CA         22.8295  -35.3180  -40.6040 C.3       8 UNK         0.0238 
     51 CB         23.4451  -36.7334  -40.5573 C.3       8 UNK        -0.1912 
     52 C          22.9108  -34.6810  -42.0105 C.2       8 UNK         0.5038 
     53 O          22.9538  -35.4055  -43.0064 O.2       8 UNK        -0.5046 
     54 N          22.9413  -33.3412  -42.0574 N.am      9 UNK        -0.4200 
     55 CA         23.1421  -32.5002  -43.2477 C.3       9 UNK         0.0839 
     56 C          24.5815  -32.5739  -43.8428 C.2       9 UNK         0.5513 
     57 N          25.5718  -33.1069  -43.1348 N.am      9 UNK        -0.7519 
     58 O          24.8158  -32.1128  -44.9568 O.2       9 UNK        -0.4960 
     59 C59        22.0285  -32.6539  -44.3247 C.3       10 UNK        -0.0876 
     60 S60        20.3422  -32.4289  -43.6592 S.3       10 UNK        -0.2414 
     61 C61        20.1456  -30.6312  -43.8325 C.3       10 UNK         0.0169 
     62 H62        14.7236  -21.1904  -45.0539 H         1 UNK         0.0903 
     63 H63        13.3620  -21.6895  -46.0614 H         1 UNK         0.0903 
     64 H64        13.5476  -22.3521  -44.4365 H         1 UNK         0.0903 
     65 H65        14.3835  -24.4273  -44.4236 H         1 UNK         0.3096 
     66 H66        15.7417  -25.5300  -46.7499 H         1 UNK         0.1121 
     67 H67        13.9892  -26.7333  -45.1664 H         1 UNK         0.0849 
     68 H68        15.3420  -27.0025  -44.1048 H         1 UNK         0.0849 
     69 H69        14.3597  -29.5741  -44.5484 H         1 UNK         0.0865 
     70 H70        15.3405  -30.5613  -45.5975 H         1 UNK         0.0865 
     71 H71        17.9281  -30.3834  -45.3957 H         1 UNK         0.1346 
     72 H72        19.2708  -29.9158  -41.3513 H         1 UNK         0.1412 
     73 H73        15.2282  -28.9369  -42.3971 H         1 UNK         0.1426 
     74 H74        16.8607  -29.8428  -39.6642 H         1 UNK         0.0716 
     75 H75        15.9548  -28.4548  -40.2126 H         1 UNK         0.0716 
     76 H76        18.1878  -25.5065  -40.2194 H         1 UNK         0.0695 
     77 H77        17.3541  -26.5029  -41.3716 H         1 UNK         0.0695 
     78 H78        19.8725  -27.5780  -41.6240 H         1 UNK         0.0983 
     79 H79        18.4767  -25.6016  -43.2247 H         1 UNK         0.3095 
     80 H80        19.8824  -25.1983  -45.6221 H         1 UNK         0.0454 
     81 H81        19.8737  -28.1322  -46.4954 H         1 UNK         0.0851 
     82 H82        21.2574  -27.0485  -46.5302 H         1 UNK         0.0851 
     83 H83        19.8893  -26.7411  -47.5812 H         1 UNK         0.0851 
     84 H84        17.7081  -26.9382  -46.2969 H         1 UNK         0.2976 
     85 H85        20.9627  -24.7386  -42.7575 H         1 UNK         0.3116 
     86 H86        22.6654  -23.9213  -40.5330 H         1 UNK         0.0646 
     87 H87        22.8156  -23.3165  -43.5390 H         1 UNK         0.0847 
     88 H88        23.7562  -22.5240  -42.2842 H         1 UNK         0.0847 
     89 H89        22.0148  -22.3144  -42.3269 H         1 UNK         0.0847 
     90 H90        22.6609  -26.5973  -42.6903 H         1 UNK         0.3040 
     91 H91        25.4907  -27.0439  -42.9611 H         1 UNK         0.1015 
     92 H92        23.1110  -28.9732  -43.2043 H         1 UNK         0.0786 
     93 H93        24.7263  -29.2565  -43.8349 H         1 UNK         0.0786 
     94 H94        23.7377  -27.9800  -44.5168 H         1 UNK         0.0786 
     95 H95        26.3389  -29.2565  -42.2372 H         1 UNK         0.3172 
     96 H96        26.5955  -29.3550  -39.3789 H         1 UNK         0.0595 
     97 H97        28.1579  -31.2268  -39.9160 H         1 UNK         0.0839 
     98 H98        28.4418  -29.8912  -41.0105 H         1 UNK         0.0839 
     99 H99        27.5422  -31.3056  -41.5589 H         1 UNK         0.0839 
    100 H100       26.6115  -31.7058  -38.4000 H         1 UNK         0.2998 
    101 H101       23.9816  -32.6053  -37.9675 H         1 UNK         0.0822 
    102 H102       25.8419  -32.9679  -36.3571 H         1 UNK         0.0787 
    103 H103       25.1151  -34.5070  -36.7881 H         1 UNK         0.0787 
    104 H104       26.6547  -34.0417  -37.4975 H         1 UNK         0.0787 
    105 H105       22.7287  -34.1522  -38.8459 H         1 UNK         0.3055 
    106 H106       21.7642  -35.4163  -40.3882 H         1 UNK         0.1106 
    107 H107       22.9294  -37.4081  -41.2418 H         1 UNK         0.0828 
    108 H108       24.4979  -36.7273  -40.8415 H         1 UNK         0.0828 
    109 H109       23.3689  -37.1673  -39.5605 H         1 UNK         0.0828 
    110 H110       22.9690  -32.8332  -41.1830 H         1 UNK         0.2931 
    111 H111       23.0667  -31.4794  -42.8731 H         1 UNK         0.0412 
    112 H112       25.4074  -33.4813  -42.2079 H         1 UNK         0.3472 
    113 H113       26.4954  -33.1449  -43.5348 H         1 UNK         0.3472 
    114 H114       22.0830  -33.6397  -44.7884 H         1 UNK         0.0970 
    115 H115       22.1791  -31.9395  -45.1360 H         1 UNK         0.0970 
    116 H116       20.8948  -30.1252  -43.2220 H         1 UNK         0.0612 
    117 H117       20.3395  -30.3369  -44.8652 H         1 UNK         0.0612 
@<TRIPOS>BOND
     1    1    2 1    
     2    1   62 1    
     3    1   63 1    
     4    1   64 1    
     5    2    3 2    
     6    2    4 am   BACKBONE|DICT|INTERRES
     7    4    5 1    
     8    4   65 1    
     9    5    6 1    
    10    5   25 1    
    11    5   66 1    
    12    6    7 1    
    13    6   67 1    
    14    6   68 1    
    15    7    8 1    
    16    8    9 1    
    17    8   69 1    
    18    8   70 1    
    19    9   10 ar   
    20    9   14 ar   
    21   10   11 ar   
    22   10   71 1    
    23   11   12 ar   
    24   11   61 1    
    25   12   13 ar   
    26   12   72 1    
    27   13   14 ar   
    28   13   15 1    
    29   14   73 1    
    30   15   16 1    
    31   15   74 1    
    32   15   75 1    
    33   16   17 1    
    34   17   18 1    
    35   17   76 1    
    36   17   77 1    
    37   18   19 1    
    38   18   27 1    
    39   18   78 1    
    40   19   20 am   BACKBONE|DICT|INTERRES
    41   19   79 1    
    42   20   21 2    
    43   20   22 1    
    44   22   23 1    
    45   22   24 1    
    46   22   80 1    
    47   23   81 1    
    48   23   82 1    
    49   23   83 1    
    50   24   25 am   BACKBONE|DICT|INTERRES
    51   24   84 1    
    52   25   26 2    
    53   27   28 2    
    54   27   29 am   BACKBONE|DICT|INTERRES
    55   29   30 1    
    56   29   85 1    
    57   30   31 1    
    58   30   32 1    
    59   30   86 1    
    60   31   87 1    
    61   31   88 1    
    62   31   89 1    
    63   32   33 2    
    64   32   34 am   BACKBONE|DICT|INTERRES
    65   34   35 1    
    66   34   90 1    
    67   35   36 1    
    68   35   37 1    
    69   35   91 1    
    70   36   92 1    
    71   36   93 1    
    72   36   94 1    
    73   37   38 2    
    74   37   39 am   BACKBONE|DICT|INTERRES
    75   39   40 1    
    76   39   95 1    
    77   40   41 1    
    78   40   42 1    
    79   40   96 1    
    80   41   97 1    
    81   41   98 1    
    82   41   99 1    
    83   42   43 2    
    84   42   44 am   BACKBONE|DICT|INTERRES
    85   44   45 1    
    86   44  100 1    
    87   45   46 1    
    88   45   47 1    
    89   45  101 1    
    90   46  102 1    
    91   46  103 1    
    92   46  104 1    
    93   47   48 2    
    94   47   49 am   BACKBONE|DICT|INTERRES
    95   49   50 1    
    96   49  105 1    
    97   50   51 1    
    98   50   52 1    
    99   50  106 1    
   100   51  107 1    
   101   51  108 1    
   102   51  109 1    
   103   52   53 2    
   104   52   54 am   BACKBONE|DICT|INTERRES
   105   54   55 1    
   106   54  110 1    
   107   55   56 1    
   108   55   59 1    
   109   55  111 1    
   110   56   57 am   BACKBONE|DICT|INTERRES
   111   56   58 2    
   112   57  112 1    
   113   57  113 1    
   114   59   60 1    
   115   59  114 1    
   116   59  115 1    
   117   60   61 1    
   118   61  116 1    
   119   61  117 1    
@<TRIPOS>SUBSTRUCTURE
     1 UNK         1 GROUP             0       ****    0 ROOT    
