@<TRIPOS>MOLECULE
3R8
117   119    1
SMALL
USER_CHARGES


@<TRIPOS>ATOM
      1 CA         17.5743  -22.9442  -47.0532 C.3       0 UNK        -0.2013 
      2 C          18.2719  -24.2812  -47.2523 C.2       0 UNK         0.4866 
      3 O          19.3299  -24.3333  -47.8791 O.2       0 UNK        -0.5176 
      4 N          17.6918  -25.3634  -46.7174 N.am      1 UNK        -0.4884 
      5 CA         18.2082  -26.7371  -46.8127 C.3       1 UNK         0.0853 
      6 C6         17.0646  -27.7812  -46.8239 C.3       10 UNK        -0.0849 
      7 S7         15.9064  -27.6504  -45.4175 S.3       10 UNK        -0.2776 
      8 C8         15.5240  -29.4037  -45.1136 C.3       10 UNK         0.0316 
      9 C9         16.4822  -30.0140  -44.1034 C.ar      10 UNK        -0.0863 
     10 C10        17.6664  -30.6302  -44.5160 C.ar      10 UNK        -0.1009 
     11 C11        18.5356  -31.1971  -43.5786 C.ar      10 UNK        -0.0712 
     12 C12        18.2169  -31.1419  -42.2170 C.ar      10 UNK        -0.0894 
     13 C13        17.0359  -30.5217  -41.7949 C.ar      10 UNK        -0.0745 
     14 C14        16.1714  -29.9688  -42.7436 C.ar      10 UNK        -0.0972 
     15 C15        16.6752  -30.4381  -40.3178 C.3       10 UNK         0.0209 
     16 S16        17.7183  -29.2749  -39.3753 S.3       10 UNK        -0.2568 
     17 C17        17.8695  -27.8110  -40.4629 C.3       10 UNK        -0.0983 
     18 CA         19.3508  -27.6157  -40.8717 C.3       3 UNK         0.0876 
     19 N          19.5212  -27.0548  -42.2186 N.am      3 UNK        -0.4424 
     20 C          20.7192  -26.9856  -42.8187 C.2       2 UNK         0.4918 
     21 O          21.7248  -27.5480  -42.3740 O.2       2 UNK        -0.4875 
     22 CA         20.8445  -26.0618  -44.0437 C.3       2 UNK         0.0481 
     23 CB         22.1703  -26.2610  -44.8121 C.3       2 UNK        -0.1831 
     24 N          19.6907  -26.0801  -44.9500 N.am      2 UNK        -0.4498 
     25 C          19.3226  -27.0618  -45.7886 C.2       1 UNK         0.5027 
     26 O          19.8563  -28.1697  -45.8226 O.2       1 UNK        -0.4969 
     27 C          20.1009  -26.7439  -39.8408 C.2       3 UNK         0.5005 
     28 O          20.1363  -25.5198  -39.9969 O.2       3 UNK        -0.5279 
     29 N          20.7254  -27.3852  -38.8435 N.am      4 UNK        -0.4463 
     30 CA         21.6317  -26.8238  -37.8271 C.3       4 UNK         0.0283 
     31 CB         20.9390  -25.7489  -36.9664 C.3       4 UNK        -0.1875 
     32 C          22.9735  -26.3086  -38.3887 C.2       4 UNK         0.4949 
     33 O          24.0086  -26.5487  -37.7681 O.2       4 UNK        -0.5039 
     34 N          22.9412  -25.6264  -39.5414 N.am      5 UNK        -0.4663 
     35 CA         24.1037  -25.1075  -40.2650 C.3       5 UNK         0.0242 
     36 CB         23.6324  -24.1749  -41.3932 C.3       5 UNK        -0.1982 
     37 C          25.0060  -26.2271  -40.8085 C.2       5 UNK         0.5017 
     38 O          26.2082  -26.2143  -40.5412 O.2       5 UNK        -0.5012 
     39 N          24.4047  -27.1790  -41.5341 N.am      6 UNK        -0.4439 
     40 CA         25.0427  -28.4202  -41.9710 C.3       6 UNK         0.0297 
     41 CB         24.7317  -28.6910  -43.4533 C.3       6 UNK        -0.2006 
     42 C          24.5634  -29.5774  -41.0878 C.2       6 UNK         0.4892 
     43 O          25.3993  -30.3185  -40.5701 O.2       6 UNK        -0.5089 
     44 N          23.2345  -29.7002  -40.9231 N.am      7 UNK        -0.4243 
     45 CA         22.4879  -30.6684  -40.0988 C.3       7 UNK         0.0196 
     46 CB         22.8568  -30.5350  -38.6090 C.3       7 UNK        -0.2007 
     47 C          22.6019  -32.1360  -40.5528 C.2       7 UNK         0.5020 
     48 O          21.5841  -32.8188  -40.6526 O.2       7 UNK        -0.5147 
     49 N          23.8255  -32.5876  -40.8477 N.am      8 UNK        -0.4734 
     50 CA         24.1649  -33.9108  -41.3829 C.3       8 UNK         0.0238 
     51 CB         25.6016  -34.2573  -40.9529 C.3       8 UNK        -0.1912 
     52 C          23.9975  -34.0050  -42.9144 C.2       8 UNK         0.5038 
     53 O          24.4580  -34.9768  -43.5161 O.2       8 UNK        -0.5046 
     54 N          23.3644  -32.9904  -43.5137 N.am      9 UNK        -0.4200 
     55 CA         22.9717  -32.8875  -44.9223 C.3       9 UNK         0.0839 
     56 C          22.0763  -34.0556  -45.4299 C.2       9 UNK         0.5513 
     57 N          22.0462  -34.2808  -46.7366 N.am      9 UNK        -0.7519 
     58 O          21.3906  -34.7356  -44.6695 O.2       9 UNK        -0.4960 
     59 C59        22.3519  -31.4903  -45.2280 C.3       10 UNK        -0.0876 
     60 S60        21.2497  -30.7929  -43.9395 S.3       10 UNK        -0.2414 
     61 C61        19.8044  -31.8886  -44.0487 C.3       10 UNK         0.0169 
     62 H62        16.6547  -23.0451  -46.4770 H         1 UNK         0.0903 
     63 H63        18.2309  -22.2524  -46.5261 H         1 UNK         0.0903 
     64 H64        17.3224  -22.5058  -48.0185 H         1 UNK         0.0903 
     65 H65        16.8211  -25.2712  -46.2107 H         1 UNK         0.3096 
     66 H66        18.7044  -26.8292  -47.7820 H         1 UNK         0.1121 
     67 H67        16.4787  -27.6569  -47.7360 H         1 UNK         0.0849 
     68 H68        17.4739  -28.7903  -46.8855 H         1 UNK         0.0849 
     69 H69        14.5011  -29.4766  -44.7406 H         1 UNK         0.0865 
     70 H70        15.5385  -29.9662  -46.0485 H         1 UNK         0.0865 
     71 H71        17.9156  -30.6711  -45.5670 H         1 UNK         0.1346 
     72 H72        18.8900  -31.5747  -41.4888 H         1 UNK         0.1412 
     73 H73        15.2576  -29.4874  -42.4222 H         1 UNK         0.1426 
     74 H74        16.7609  -31.4290  -39.8699 H         1 UNK         0.0716 
     75 H75        15.6322  -30.1417  -40.1949 H         1 UNK         0.0716 
     76 H76        17.2395  -27.9298  -41.3425 H         1 UNK         0.0695 
     77 H77        17.4671  -26.9374  -39.9457 H         1 UNK         0.0695 
     78 H78        19.8330  -28.5956  -40.9077 H         1 UNK         0.0983 
     79 H79        18.7438  -26.5444  -42.6089 H         1 UNK         0.3095 
     80 H80        20.8694  -25.0507  -43.6353 H         1 UNK         0.0454 
     81 H81        23.0308  -26.0706  -44.1703 H         1 UNK         0.0851 
     82 H82        22.2454  -25.5801  -45.6597 H         1 UNK         0.0851 
     83 H83        22.2712  -27.2794  -45.1884 H         1 UNK         0.0851 
     84 H84        19.1709  -25.2163  -45.0146 H         1 UNK         0.2976 
     85 H85        20.6122  -28.3883  -38.7966 H         1 UNK         0.3116 
     86 H86        21.8711  -27.6531  -37.1600 H         1 UNK         0.0646 
     87 H87        20.7048  -24.8501  -37.5372 H         1 UNK         0.0847 
     88 H88        20.0112  -26.1233  -36.5341 H         1 UNK         0.0847 
     89 H89        21.5816  -25.4437  -36.1395 H         1 UNK         0.0847 
     90 H90        22.0231  -25.4506  -39.9416 H         1 UNK         0.3040 
     91 H91        24.6982  -24.5188  -39.5627 H         1 UNK         0.1015 
     92 H92        24.4798  -23.7894  -41.9620 H         1 UNK         0.0786 
     93 H93        23.0932  -23.3154  -40.9944 H         1 UNK         0.0786 
     94 H94        22.9720  -24.6852  -42.0940 H         1 UNK         0.0786 
     95 H95        23.4045  -27.1094  -41.7037 H         1 UNK         0.3172 
     96 H96        26.1275  -28.3473  -41.8689 H         1 UNK         0.0595 
     97 H97        23.6638  -28.8037  -43.6391 H         1 UNK         0.0839 
     98 H98        25.2164  -29.6084  -43.7899 H         1 UNK         0.0839 
     99 H99        25.0953  -27.8817  -44.0863 H         1 UNK         0.0839 
    100 H100       22.6520  -29.0609  -41.4565 H         1 UNK         0.2998 
    101 H101       21.4379  -30.3923  -40.2061 H         1 UNK         0.0822 
    102 H102       22.1802  -31.1219  -37.9864 H         1 UNK         0.0787 
    103 H103       22.7989  -29.5018  -38.2738 H         1 UNK         0.0787 
    104 H104       23.8689  -30.8875  -38.4068 H         1 UNK         0.0787 
    105 H105       24.5923  -31.9245  -40.7403 H         1 UNK         0.3055 
    106 H106       23.4890  -34.6497  -40.9467 H         1 UNK         0.1106 
    107 H107       25.7097  -34.2238  -39.8686 H         1 UNK         0.0828 
    108 H108       25.8780  -35.2634  -41.2712 H         1 UNK         0.0828 
    109 H109       26.3276  -33.5666  -41.3838 H         1 UNK         0.0828 
    110 H110       22.9973  -32.2618  -42.9203 H         1 UNK         0.2931 
    111 H111       23.9021  -32.9603  -45.4890 H         1 UNK         0.0412 
    112 H112       21.4660  -35.0255  -47.0910 H         1 UNK         0.3472 
    113 H113       22.6013  -33.7330  -47.3759 H         1 UNK         0.3472 
    114 H114       23.1652  -30.7738  -45.3506 H         1 UNK         0.0970 
    115 H115       21.8288  -31.4798  -46.1862 H         1 UNK         0.0970 
    116 H116       19.9857  -32.7771  -43.4424 H         1 UNK         0.0612 
    117 H117       19.6789  -32.2315  -45.0767 H         1 UNK         0.0612 
@<TRIPOS>BOND
     1    1    2 1    
     2    1   62 1    
     3    1   63 1    
     4    1   64 1    
     5    2    3 2    
     6    2    4 am   BACKBONE|DICT|INTERRES
     7    4    5 1    
     8    4   65 1    
     9    5    6 1    
    10    5   25 1    
    11    5   66 1    
    12    6    7 1    
    13    6   67 1    
    14    6   68 1    
    15    7    8 1    
    16    8    9 1    
    17    8   69 1    
    18    8   70 1    
    19    9   10 ar   
    20    9   14 ar   
    21   10   11 ar   
    22   10   71 1    
    23   11   12 ar   
    24   11   61 1    
    25   12   13 ar   
    26   12   72 1    
    27   13   14 ar   
    28   13   15 1    
    29   14   73 1    
    30   15   16 1    
    31   15   74 1    
    32   15   75 1    
    33   16   17 1    
    34   17   18 1    
    35   17   76 1    
    36   17   77 1    
    37   18   19 1    
    38   18   27 1    
    39   18   78 1    
    40   19   20 am   BACKBONE|DICT|INTERRES
    41   19   79 1    
    42   20   21 2    
    43   20   22 1    
    44   22   23 1    
    45   22   24 1    
    46   22   80 1    
    47   23   81 1    
    48   23   82 1    
    49   23   83 1    
    50   24   25 am   BACKBONE|DICT|INTERRES
    51   24   84 1    
    52   25   26 2    
    53   27   28 2    
    54   27   29 am   BACKBONE|DICT|INTERRES
    55   29   30 1    
    56   29   85 1    
    57   30   31 1    
    58   30   32 1    
    59   30   86 1    
    60   31   87 1    
    61   31   88 1    
    62   31   89 1    
    63   32   33 2    
    64   32   34 am   BACKBONE|DICT|INTERRES
    65   34   35 1    
    66   34   90 1    
    67   35   36 1    
    68   35   37 1    
    69   35   91 1    
    70   36   92 1    
    71   36   93 1    
    72   36   94 1    
    73   37   38 2    
    74   37   39 am   BACKBONE|DICT|INTERRES
    75   39   40 1    
    76   39   95 1    
    77   40   41 1    
    78   40   42 1    
    79   40   96 1    
    80   41   97 1    
    81   41   98 1    
    82   41   99 1    
    83   42   43 2    
    84   42   44 am   BACKBONE|DICT|INTERRES
    85   44   45 1    
    86   44  100 1    
    87   45   46 1    
    88   45   47 1    
    89   45  101 1    
    90   46  102 1    
    91   46  103 1    
    92   46  104 1    
    93   47   48 2    
    94   47   49 am   BACKBONE|DICT|INTERRES
    95   49   50 1    
    96   49  105 1    
    97   50   51 1    
    98   50   52 1    
    99   50  106 1    
   100   51  107 1    
   101   51  108 1    
   102   51  109 1    
   103   52   53 2    
   104   52   54 am   BACKBONE|DICT|INTERRES
   105   54   55 1    
   106   54  110 1    
   107   55   56 1    
   108   55   59 1    
   109   55  111 1    
   110   56   57 am   BACKBONE|DICT|INTERRES
   111   56   58 2    
   112   57  112 1    
   113   57  113 1    
   114   59   60 1    
   115   59  114 1    
   116   59  115 1    
   117   60   61 1    
   118   61  116 1    
   119   61  117 1    
@<TRIPOS>SUBSTRUCTURE
     1 UNK         1 GROUP             0       ****    0 ROOT    
