@<TRIPOS>MOLECULE
3R8
117   119    1
SMALL
USER_CHARGES


@<TRIPOS>ATOM
      1 CA         20.7176  -22.6278  -49.3572 C.3       0 UNK        -0.2013 
      2 C          20.8693  -23.8420  -48.4531 C.2       0 UNK         0.4866 
      3 O          21.6671  -24.7315  -48.7499 O.2       0 UNK        -0.5176 
      4 N          20.1127  -23.8862  -47.3527 N.am      1 UNK        -0.4884 
      5 CA         20.1338  -24.9473  -46.3490 C.3       1 UNK         0.0853 
      6 C6         19.2909  -26.1728  -46.7928 C.3       10 UNK        -0.0849 
      7 S7         19.5174  -27.6262  -45.7147 S.3       10 UNK        -0.2776 
      8 C8         18.1430  -28.6821  -46.2658 C.3       10 UNK         0.0316 
      9 C9         17.9289  -29.8219  -45.2841 C.ar      10 UNK        -0.0863 
     10 C10        18.6071  -31.0343  -45.4430 C.ar      10 UNK        -0.1009 
     11 C11        18.4486  -32.0735  -44.5189 C.ar      10 UNK        -0.0712 
     12 C12        17.6012  -31.8745  -43.4196 C.ar      10 UNK        -0.0894 
     13 C13        16.9284  -30.6623  -43.2442 C.ar      10 UNK        -0.0745 
     14 C14        17.0737  -29.6486  -44.1936 C.ar      10 UNK        -0.0972 
     15 C15        16.0853  -30.4357  -41.9995 C.3       10 UNK         0.0209 
     16 S16        17.1383  -30.0691  -40.5573 S.3       10 UNK        -0.2568 
     17 C17        17.6989  -28.3648  -40.9045 C.3       10 UNK        -0.0983 
     18 CA         19.0334  -28.2755  -41.7034 C.3       3 UNK         0.0876 
     19 N          19.2134  -26.9603  -42.3261 N.am      3 UNK        -0.4424 
     20 C          19.4627  -25.8095  -41.6802 C.2       2 UNK         0.4918 
     21 O          19.5320  -25.7207  -40.4533 O.2       2 UNK        -0.4875 
     22 CA         19.6881  -24.5527  -42.5412 C.3       2 UNK         0.0481 
     23 CB         20.7234  -23.5979  -41.9172 C.3       2 UNK        -0.1831 
     24 N          20.0985  -24.9054  -43.9028 N.am      2 UNK        -0.4498 
     25 C          19.6384  -24.3385  -45.0241 C.2       1 UNK         0.5027 
     26 O          18.8471  -23.3906  -45.0474 O.2       1 UNK        -0.4969 
     27 C          20.3093  -28.6915  -40.9426 C.2       3 UNK         0.5005 
     28 O          21.4050  -28.5242  -41.4855 O.2       3 UNK        -0.5279 
     29 N          20.1707  -29.1955  -39.7099 N.am      4 UNK        -0.4463 
     30 CA         21.2536  -29.6849  -38.8499 C.3       4 UNK         0.0283 
     31 CB         20.6591  -30.1727  -37.5200 C.3       4 UNK        -0.1875 
     32 C          22.3975  -28.6839  -38.5926 C.2       4 UNK         0.4949 
     33 O          23.5104  -29.1135  -38.2914 O.2       4 UNK        -0.5039 
     34 N          22.1193  -27.3814  -38.7376 N.am      5 UNK        -0.4663 
     35 CA         23.0963  -26.3011  -38.6055 C.3       5 UNK         0.0242 
     36 CB         22.3461  -24.9836  -38.3481 C.3       5 UNK        -0.1982 
     37 C          24.0448  -26.1528  -39.8119 C.2       5 UNK         0.5017 
     38 O          25.0522  -25.4581  -39.6690 O.2       5 UNK        -0.5012 
     39 N          23.7251  -26.7638  -40.9647 N.am      6 UNK        -0.4439 
     40 CA         24.5144  -26.6349  -42.1968 C.3       6 UNK         0.0297 
     41 CB         23.8994  -25.5557  -43.1044 C.3       6 UNK        -0.2006 
     42 C          24.6759  -27.9575  -42.9576 C.2       6 UNK         0.4892 
     43 O          25.7912  -28.2775  -43.3700 O.2       6 UNK        -0.5089 
     44 N          23.5756  -28.6948  -43.1501 N.am      7 UNK        -0.4243 
     45 CA         23.5447  -29.9566  -43.8932 C.3       7 UNK         0.0196 
     46 CB         22.1502  -30.1357  -44.5178 C.3       7 UNK        -0.2007 
     47 C          23.8869  -31.1713  -43.0190 C.2       7 UNK         0.5020 
     48 O          24.2217  -32.2221  -43.5674 O.2       7 UNK        -0.5147 
     49 N          23.7579  -31.0278  -41.6906 N.am      8 UNK        -0.4734 
     50 CA         23.8928  -32.0469  -40.6365 C.3       8 UNK         0.0238 
     51 CB         25.2902  -32.6986  -40.6310 C.3       8 UNK        -0.1912 
     52 C          22.7718  -33.1017  -40.6714 C.2       8 UNK         0.5038 
     53 O          22.0961  -33.2955  -39.6612 O.2       8 UNK        -0.5046 
     54 N          22.5769  -33.7286  -41.8377 N.am      9 UNK        -0.4200 
     55 CA         21.5176  -34.6972  -42.1550 C.3       9 UNK         0.0839 
     56 C          21.5916  -36.0388  -41.3608 C.2       9 UNK         0.5513 
     57 N          22.7457  -36.4155  -40.8227 N.am      9 UNK        -0.7519 
     58 O          20.6063  -36.7633  -41.2474 O.2       9 UNK        -0.4960 
     59 C59        20.1087  -34.0318  -42.1543 C.3       10 UNK        -0.0876 
     60 S60        19.0379  -34.6761  -43.4857 S.3       10 UNK        -0.2414 
     61 C61        19.2172  -33.3769  -44.7602 C.3       10 UNK         0.0169 
     62 H62        20.4081  -22.9392  -50.3545 H         1 UNK         0.0903 
     63 H63        19.9761  -21.9257  -48.9762 H         1 UNK         0.0903 
     64 H64        21.6686  -22.1029  -49.4437 H         1 UNK         0.0903 
     65 H65        19.4946  -23.1187  -47.1146 H         1 UNK         0.3096 
     66 H66        21.1721  -25.2580  -46.2081 H         1 UNK         0.1121 
     67 H67        18.2319  -25.9111  -46.8404 H         1 UNK         0.0849 
     68 H68        19.5726  -26.4731  -47.8033 H         1 UNK         0.0849 
     69 H69        17.2298  -28.0910  -46.3520 H         1 UNK         0.0865 
     70 H70        18.3568  -29.0698  -47.2631 H         1 UNK         0.0865 
     71 H71        19.2719  -31.1653  -46.2862 H         1 UNK         0.1346 
     72 H72        17.4693  -32.6465  -42.6758 H         1 UNK         0.1412 
     73 H73        16.5611  -28.7059  -44.0570 H         1 UNK         0.1426 
     74 H74        15.3667  -29.6288  -42.1514 H         1 UNK         0.0716 
     75 H75        15.4989  -31.3316  -41.7903 H         1 UNK         0.0716 
     76 H76        17.7706  -27.8184  -39.9624 H         1 UNK         0.0695 
     77 H77        16.9060  -27.8644  -41.4625 H         1 UNK         0.0695 
     78 H78        18.9886  -28.9791  -42.5317 H         1 UNK         0.0983 
     79 H79        19.1751  -26.9519  -43.3361 H         1 UNK         0.3095 
     80 H80        18.7258  -24.0379  -42.5717 H         1 UNK         0.0454 
     81 H81        20.8893  -22.7235  -42.5464 H         1 UNK         0.0851 
     82 H82        20.3853  -23.2344  -40.9461 H         1 UNK         0.0851 
     83 H83        21.6835  -24.0896  -41.7630 H         1 UNK         0.0851 
     84 H84        20.7411  -25.6809  -43.9847 H         1 UNK         0.2976 
     85 H85        19.2284  -29.3095  -39.3600 H         1 UNK         0.3116 
     86 H86        21.6874  -30.5447  -39.3586 H         1 UNK         0.0646 
     87 H87        19.9313  -30.9689  -37.6782 H         1 UNK         0.0847 
     88 H88        21.4365  -30.5753  -36.8688 H         1 UNK         0.0847 
     89 H89        20.1652  -29.3653  -36.9781 H         1 UNK         0.0847 
     90 H90        21.1821  -27.1159  -39.0111 H         1 UNK         0.3040 
     91 H91        23.7210  -26.5101  -37.7339 H         1 UNK         0.1015 
     92 H92        21.7086  -24.7115  -39.1892 H         1 UNK         0.0786 
     93 H93        23.0435  -24.1599  -38.1893 H         1 UNK         0.0786 
     94 H94        21.7187  -25.0501  -37.4591 H         1 UNK         0.0786 
     95 H95        22.8899  -27.3417  -40.9988 H         1 UNK         0.3172 
     96 H96        25.5287  -26.3144  -41.9491 H         1 UNK         0.0595 
     97 H97        22.8641  -25.7830  -43.3552 H         1 UNK         0.0839 
     98 H98        24.4519  -25.4692  -44.0412 H         1 UNK         0.0839 
     99 H99        23.9253  -24.5768  -42.6259 H         1 UNK         0.0839 
    100 H100       22.6972  -28.4151  -42.7184 H         1 UNK         0.2998 
    101 H101       24.2767  -29.9181  -44.7031 H         1 UNK         0.0822 
    102 H102       22.0890  -31.0661  -45.0841 H         1 UNK         0.0787 
    103 H103       21.3634  -30.1633  -43.7627 H         1 UNK         0.0787 
    104 H104       21.9234  -29.3249  -45.2092 H         1 UNK         0.0787 
    105 H105       23.4404  -30.1228  -41.3714 H         1 UNK         0.3055 
    106 H106       23.7937  -31.5146  -39.6895 H         1 UNK         0.1106 
    107 H107       25.4004  -33.3684  -39.7773 H         1 UNK         0.0828 
    108 H108       25.4795  -33.2881  -41.5281 H         1 UNK         0.0828 
    109 H109       26.0752  -31.9463  -40.5543 H         1 UNK         0.0828 
    110 H110       23.1898  -33.4668  -42.6057 H         1 UNK         0.2931 
    111 H111       21.7452  -34.9829  -43.1826 H         1 UNK         0.0412 
    112 H112       22.7945  -37.2859  -40.3164 H         1 UNK         0.3472 
    113 H113       23.5656  -35.8375  -40.9158 H         1 UNK         0.3472 
    114 H114       19.6105  -34.1656  -41.1923 H         1 UNK         0.0970 
    115 H115       20.1931  -32.9515  -42.2838 H         1 UNK         0.0970 
    116 H116       20.2782  -33.1520  -44.8809 H         1 UNK         0.0612 
    117 H117       18.8824  -33.7970  -45.7095 H         1 UNK         0.0612 
@<TRIPOS>BOND
     1    1    2 1    
     2    1   62 1    
     3    1   63 1    
     4    1   64 1    
     5    2    3 2    
     6    2    4 am   BACKBONE|DICT|INTERRES
     7    4    5 1    
     8    4   65 1    
     9    5    6 1    
    10    5   25 1    
    11    5   66 1    
    12    6    7 1    
    13    6   67 1    
    14    6   68 1    
    15    7    8 1    
    16    8    9 1    
    17    8   69 1    
    18    8   70 1    
    19    9   10 ar   
    20    9   14 ar   
    21   10   11 ar   
    22   10   71 1    
    23   11   12 ar   
    24   11   61 1    
    25   12   13 ar   
    26   12   72 1    
    27   13   14 ar   
    28   13   15 1    
    29   14   73 1    
    30   15   16 1    
    31   15   74 1    
    32   15   75 1    
    33   16   17 1    
    34   17   18 1    
    35   17   76 1    
    36   17   77 1    
    37   18   19 1    
    38   18   27 1    
    39   18   78 1    
    40   19   20 am   BACKBONE|DICT|INTERRES
    41   19   79 1    
    42   20   21 2    
    43   20   22 1    
    44   22   23 1    
    45   22   24 1    
    46   22   80 1    
    47   23   81 1    
    48   23   82 1    
    49   23   83 1    
    50   24   25 am   BACKBONE|DICT|INTERRES
    51   24   84 1    
    52   25   26 2    
    53   27   28 2    
    54   27   29 am   BACKBONE|DICT|INTERRES
    55   29   30 1    
    56   29   85 1    
    57   30   31 1    
    58   30   32 1    
    59   30   86 1    
    60   31   87 1    
    61   31   88 1    
    62   31   89 1    
    63   32   33 2    
    64   32   34 am   BACKBONE|DICT|INTERRES
    65   34   35 1    
    66   34   90 1    
    67   35   36 1    
    68   35   37 1    
    69   35   91 1    
    70   36   92 1    
    71   36   93 1    
    72   36   94 1    
    73   37   38 2    
    74   37   39 am   BACKBONE|DICT|INTERRES
    75   39   40 1    
    76   39   95 1    
    77   40   41 1    
    78   40   42 1    
    79   40   96 1    
    80   41   97 1    
    81   41   98 1    
    82   41   99 1    
    83   42   43 2    
    84   42   44 am   BACKBONE|DICT|INTERRES
    85   44   45 1    
    86   44  100 1    
    87   45   46 1    
    88   45   47 1    
    89   45  101 1    
    90   46  102 1    
    91   46  103 1    
    92   46  104 1    
    93   47   48 2    
    94   47   49 am   BACKBONE|DICT|INTERRES
    95   49   50 1    
    96   49  105 1    
    97   50   51 1    
    98   50   52 1    
    99   50  106 1    
   100   51  107 1    
   101   51  108 1    
   102   51  109 1    
   103   52   53 2    
   104   52   54 am   BACKBONE|DICT|INTERRES
   105   54   55 1    
   106   54  110 1    
   107   55   56 1    
   108   55   59 1    
   109   55  111 1    
   110   56   57 am   BACKBONE|DICT|INTERRES
   111   56   58 2    
   112   57  112 1    
   113   57  113 1    
   114   59   60 1    
   115   59  114 1    
   116   59  115 1    
   117   60   61 1    
   118   61  116 1    
   119   61  117 1    
@<TRIPOS>SUBSTRUCTURE
     1 UNK         1 GROUP             0       ****    0 ROOT    
