@<TRIPOS>MOLECULE
3R8
117   119    1
SMALL
USER_CHARGES


@<TRIPOS>ATOM
      1 CA         16.9694  -23.0566  -46.2867 C.3       0 UNK        -0.2013 
      2 C          18.2602  -22.9157  -47.0887 C.2       0 UNK         0.4866 
      3 O          18.3856  -21.9573  -47.8486 O.2       0 UNK        -0.5176 
      4 N          19.2430  -23.8224  -46.9846 N.am      1 UNK        -0.4884 
      5 CA         19.3523  -24.9954  -46.1093 C.3       1 UNK         0.0853 
      6 C6         18.2773  -26.0919  -46.3709 C.3       10 UNK        -0.0849 
      7 S7         18.8531  -27.7329  -45.8136 S.3       10 UNK        -0.2776 
      8 C8         17.3701  -28.4132  -44.9983 C.3       10 UNK         0.0316 
      9 C9         17.6606  -29.7280  -44.2810 C.ar      10 UNK        -0.0863 
     10 C10        18.2696  -30.7880  -44.9618 C.ar      10 UNK        -0.1009 
     11 C11        18.5466  -31.9931  -44.3095 C.ar      10 UNK        -0.0712 
     12 C12        18.1848  -32.1438  -42.9676 C.ar      10 UNK        -0.0894 
     13 C13        17.5478  -31.1059  -42.2809 C.ar      10 UNK        -0.0745 
     14 C14        17.2926  -29.8991  -42.9415 C.ar      10 UNK        -0.0972 
     15 C15        17.0985  -31.3128  -40.8401 C.3       10 UNK         0.0209 
     16 S16        18.3894  -30.8586  -39.6393 S.3       10 UNK        -0.2568 
     17 C17        18.2492  -29.0421  -39.6025 C.3       10 UNK        -0.0983 
     18 CA         19.3155  -28.3372  -40.4777 C.3       3 UNK         0.0876 
     19 N          18.8330  -27.0315  -40.9428 N.am      3 UNK        -0.4424 
     20 C          19.4713  -26.2265  -41.8006 C.2       2 UNK         0.4918 
     21 O          20.6175  -26.4228  -42.2053 O.2       2 UNK        -0.4875 
     22 CA         18.6803  -25.0050  -42.2882 C.3       2 UNK         0.0481 
     23 CB         19.2013  -23.6922  -41.6701 C.3       2 UNK        -0.1831 
     24 N          18.6348  -24.9954  -43.7545 N.am      2 UNK        -0.4498 
     25 C          19.5599  -24.5830  -44.6353 C.2       1 UNK         0.5027 
     26 O          20.5524  -23.9118  -44.3506 O.2       1 UNK        -0.4969 
     27 C          20.6871  -28.2767  -39.7751 C.2       3 UNK         0.5005 
     28 O          21.5239  -29.1501  -40.0060 O.2       3 UNK        -0.5279 
     29 N          20.9072  -27.2282  -38.9683 N.am      4 UNK        -0.4463 
     30 CA         22.1682  -26.9745  -38.2669 C.3       4 UNK         0.0283 
     31 CB         21.9614  -25.8710  -37.2173 C.3       4 UNK        -0.1875 
     32 C          23.3226  -26.6075  -39.2149 C.2       4 UNK         0.4949 
     33 O          24.4518  -27.0363  -38.9808 O.2       4 UNK        -0.5039 
     34 N          23.0208  -25.8415  -40.2730 N.am      5 UNK        -0.4663 
     35 CA         23.9819  -25.4511  -41.3087 C.3       5 UNK         0.0242 
     36 CB         23.4427  -24.2392  -42.0839 C.3       5 UNK        -0.1982 
     37 C          24.2996  -26.6138  -42.2615 C.2       5 UNK         0.5017 
     38 O          25.4559  -26.7836  -42.6481 O.2       5 UNK        -0.5012 
     39 N          23.2739  -27.4113  -42.5897 N.am      6 UNK        -0.4439 
     40 CA         23.3783  -28.6422  -43.3760 C.3       6 UNK         0.0297 
     41 CB         21.9703  -29.0567  -43.8374 C.3       6 UNK        -0.2006 
     42 C          24.0467  -29.8057  -42.6197 C.2       6 UNK         0.4892 
     43 O          24.3990  -30.7973  -43.2582 O.2       6 UNK        -0.5089 
     44 N          24.1607  -29.6960  -41.2856 N.am      7 UNK        -0.4243 
     45 CA         24.6116  -30.7248  -40.3373 C.3       7 UNK         0.0196 
     46 CB         26.1203  -31.0001  -40.5057 C.3       7 UNK        -0.2007 
     47 C          23.7505  -32.0005  -40.4258 C.2       7 UNK         0.5020 
     48 O          24.2808  -33.1134  -40.4327 O.2       7 UNK        -0.5147 
     49 N          22.4323  -31.7981  -40.5757 N.am      8 UNK        -0.4734 
     50 CA         21.3941  -32.7977  -40.8628 C.3       8 UNK         0.0238 
     51 CB         21.1357  -33.6740  -39.6205 C.3       8 UNK        -0.1912 
     52 C          21.6476  -33.6358  -42.1355 C.2       8 UNK         0.5038 
     53 O          21.1039  -34.7354  -42.2524 O.2       8 UNK        -0.5046 
     54 N          22.4678  -33.1090  -43.0559 N.am      9 UNK        -0.4200 
     55 CA         22.9710  -33.7736  -44.2674 C.3       9 UNK         0.0839 
     56 C          23.9485  -34.9540  -43.9803 C.2       9 UNK         0.5513 
     57 N          24.5419  -35.0511  -42.7950 N.am      9 UNK        -0.7519 
     58 O          24.1991  -35.7824  -44.8524 O.2       9 UNK        -0.4960 
     59 C59        21.8574  -34.1338  -45.2924 C.3       10 UNK        -0.0876 
     60 S60        20.8297  -32.6899  -45.7400 S.3       10 UNK        -0.2414 
     61 C61        19.1990  -33.1453  -45.0623 C.3       10 UNK         0.0169 
     62 H62        16.3718  -22.1496  -46.3776 H         1 UNK         0.0903 
     63 H63        16.3665  -23.8794  -46.6675 H         1 UNK         0.0903 
     64 H64        17.1578  -23.2065  -45.2262 H         1 UNK         0.0903 
     65 H65        20.0768  -23.6515  -47.5303 H         1 UNK         0.3096 
     66 H66        20.3101  -25.4349  -46.3955 H         1 UNK         0.1121 
     67 H67        18.0889  -26.1709  -47.4429 H         1 UNK         0.0849 
     68 H68        17.3141  -25.8502  -45.9220 H         1 UNK         0.0849 
     69 H69        16.9780  -27.6777  -44.2948 H         1 UNK         0.0865 
     70 H70        16.5920  -28.5783  -45.7449 H         1 UNK         0.0865 
     71 H71        18.5414  -30.6713  -46.0021 H         1 UNK         0.1346 
     72 H72        18.3797  -33.0791  -42.4602 H         1 UNK         0.1412 
     73 H73        16.7976  -29.0967  -42.4122 H         1 UNK         0.1426 
     74 H74        16.1841  -30.7528  -40.6387 H         1 UNK         0.0716 
     75 H75        16.8418  -32.3621  -40.6865 H         1 UNK         0.0716 
     76 H76        18.3032  -28.7068  -38.5649 H         1 UNK         0.0695 
     77 H77        17.2451  -28.7770  -39.9360 H         1 UNK         0.0695 
     78 H78        19.4638  -28.9319  -41.3815 H         1 UNK         0.0983 
     79 H79        17.9042  -26.7724  -40.6434 H         1 UNK         0.3095 
     80 H80        17.6423  -25.1191  -41.9715 H         1 UNK         0.0454 
     81 H81        18.6934  -22.8247  -42.0910 H         1 UNK         0.0851 
     82 H82        20.2729  -23.5612  -41.8215 H         1 UNK         0.0851 
     83 H83        19.0296  -23.6783  -40.5934 H         1 UNK         0.0851 
     84 H84        17.8780  -25.5408  -44.1392 H         1 UNK         0.2976 
     85 H85        20.1640  -26.5569  -38.8390 H         1 UNK         0.3116 
     86 H86        22.4503  -27.8911  -37.7438 H         1 UNK         0.0646 
     87 H87        21.2036  -26.1543  -36.4866 H         1 UNK         0.0847 
     88 H88        22.8836  -25.6807  -36.6662 H         1 UNK         0.0847 
     89 H89        21.6550  -24.9285  -37.6726 H         1 UNK         0.0847 
     90 H90        22.0579  -25.5754  -40.4216 H         1 UNK         0.3040 
     91 H91        24.9148  -25.1560  -40.8225 H         1 UNK         0.1015 
     92 H92        22.5142  -24.4739  -42.6045 H         1 UNK         0.0786 
     93 H93        24.1602  -23.9071  -42.8354 H         1 UNK         0.0786 
     94 H94        23.2525  -23.3947  -41.4215 H         1 UNK         0.0786 
     95 H95        22.3399  -27.1411  -42.2873 H         1 UNK         0.3172 
     96 H96        23.9828  -28.4328  -44.2607 H         1 UNK         0.0595 
     97 H97        21.3214  -29.2962  -42.9943 H         1 UNK         0.0839 
     98 H98        22.0077  -29.9391  -44.4780 H         1 UNK         0.0839 
     99 H99        21.4915  -28.2627  -44.4100 H         1 UNK         0.0839 
    100 H100       23.7793  -28.8604  -40.8622 H         1 UNK         0.2998 
    101 H101       24.4540  -30.3145  -39.3386 H         1 UNK         0.0822 
    102 H102       26.4817  -31.6789  -39.7323 H         1 UNK         0.0787 
    103 H103       26.3437  -31.4578  -41.4700 H         1 UNK         0.0787 
    104 H104       26.7008  -30.0808  -40.4278 H         1 UNK         0.0787 
    105 H105       22.1034  -30.8345  -40.5094 H         1 UNK         0.3055 
    106 H106       20.4857  -32.2324  -41.0687 H         1 UNK         0.1106 
    107 H107       20.2762  -34.3280  -39.7721 H         1 UNK         0.0828 
    108 H108       21.9924  -34.3076  -39.3888 H         1 UNK         0.0828 
    109 H109       20.9212  -33.0623  -38.7442 H         1 UNK         0.0828 
    110 H110       22.9037  -32.2159  -42.8611 H         1 UNK         0.2931 
    111 H111       23.5996  -33.0232  -44.7476 H         1 UNK         0.0412 
    112 H112       25.1795  -35.8124  -42.6246 H         1 UNK         0.3472 
    113 H113       24.3657  -34.3684  -42.0655 H         1 UNK         0.3472 
    114 H114       21.2408  -34.9527  -44.9208 H         1 UNK         0.0970 
    115 H115       22.3064  -34.5035  -46.2159 H         1 UNK         0.0970 
    116 H116       19.2894  -34.0123  -44.4072 H         1 UNK         0.0612 
    117 H117       18.5496  -33.4501  -45.8837 H         1 UNK         0.0612 
@<TRIPOS>BOND
     1    1    2 1    
     2    1   62 1    
     3    1   63 1    
     4    1   64 1    
     5    2    3 2    
     6    2    4 am   BACKBONE|DICT|INTERRES
     7    4    5 1    
     8    4   65 1    
     9    5    6 1    
    10    5   25 1    
    11    5   66 1    
    12    6    7 1    
    13    6   67 1    
    14    6   68 1    
    15    7    8 1    
    16    8    9 1    
    17    8   69 1    
    18    8   70 1    
    19    9   10 ar   
    20    9   14 ar   
    21   10   11 ar   
    22   10   71 1    
    23   11   12 ar   
    24   11   61 1    
    25   12   13 ar   
    26   12   72 1    
    27   13   14 ar   
    28   13   15 1    
    29   14   73 1    
    30   15   16 1    
    31   15   74 1    
    32   15   75 1    
    33   16   17 1    
    34   17   18 1    
    35   17   76 1    
    36   17   77 1    
    37   18   19 1    
    38   18   27 1    
    39   18   78 1    
    40   19   20 am   BACKBONE|DICT|INTERRES
    41   19   79 1    
    42   20   21 2    
    43   20   22 1    
    44   22   23 1    
    45   22   24 1    
    46   22   80 1    
    47   23   81 1    
    48   23   82 1    
    49   23   83 1    
    50   24   25 am   BACKBONE|DICT|INTERRES
    51   24   84 1    
    52   25   26 2    
    53   27   28 2    
    54   27   29 am   BACKBONE|DICT|INTERRES
    55   29   30 1    
    56   29   85 1    
    57   30   31 1    
    58   30   32 1    
    59   30   86 1    
    60   31   87 1    
    61   31   88 1    
    62   31   89 1    
    63   32   33 2    
    64   32   34 am   BACKBONE|DICT|INTERRES
    65   34   35 1    
    66   34   90 1    
    67   35   36 1    
    68   35   37 1    
    69   35   91 1    
    70   36   92 1    
    71   36   93 1    
    72   36   94 1    
    73   37   38 2    
    74   37   39 am   BACKBONE|DICT|INTERRES
    75   39   40 1    
    76   39   95 1    
    77   40   41 1    
    78   40   42 1    
    79   40   96 1    
    80   41   97 1    
    81   41   98 1    
    82   41   99 1    
    83   42   43 2    
    84   42   44 am   BACKBONE|DICT|INTERRES
    85   44   45 1    
    86   44  100 1    
    87   45   46 1    
    88   45   47 1    
    89   45  101 1    
    90   46  102 1    
    91   46  103 1    
    92   46  104 1    
    93   47   48 2    
    94   47   49 am   BACKBONE|DICT|INTERRES
    95   49   50 1    
    96   49  105 1    
    97   50   51 1    
    98   50   52 1    
    99   50  106 1    
   100   51  107 1    
   101   51  108 1    
   102   51  109 1    
   103   52   53 2    
   104   52   54 am   BACKBONE|DICT|INTERRES
   105   54   55 1    
   106   54  110 1    
   107   55   56 1    
   108   55   59 1    
   109   55  111 1    
   110   56   57 am   BACKBONE|DICT|INTERRES
   111   56   58 2    
   112   57  112 1    
   113   57  113 1    
   114   59   60 1    
   115   59  114 1    
   116   59  115 1    
   117   60   61 1    
   118   61  116 1    
   119   61  117 1    
@<TRIPOS>SUBSTRUCTURE
     1 UNK         1 GROUP             0       ****    0 ROOT    
