@<TRIPOS>MOLECULE
3R8
117   119    1
SMALL
USER_CHARGES


@<TRIPOS>ATOM
      1 CA         14.9084  -23.9299  -42.2779 C.3       0 UNK        -0.2013 
      2 C          16.0347  -24.0558  -43.2929 C.2       0 UNK         0.4866 
      3 O          16.6044  -23.0445  -43.7046 O.2       0 UNK        -0.5176 
      4 N          16.3538  -25.2883  -43.7062 N.am      1 UNK        -0.4884 
      5 CA         17.4446  -25.6052  -44.6333 C.3       1 UNK         0.0853 
      6 C6         17.3670  -27.0716  -45.1238 C.3       10 UNK        -0.0849 
      7 S7         15.8802  -27.4136  -46.1263 S.3       10 UNK        -0.2776 
      8 C8         15.5075  -29.1542  -45.6932 C.3       10 UNK         0.0316 
      9 C9         16.7194  -30.0852  -45.7430 C.ar      10 UNK        -0.0863 
     10 C10        16.9289  -31.0070  -44.7090 C.ar      10 UNK        -0.1009 
     11 C11        18.0642  -31.8241  -44.7031 C.ar      10 UNK        -0.0712 
     12 C12        18.9809  -31.7332  -45.7516 C.ar      10 UNK        -0.0894 
     13 C13        18.8164  -30.7733  -46.7534 C.ar      10 UNK        -0.0745 
     14 C14        17.6600  -29.9911  -46.7766 C.ar      10 UNK        -0.0972 
     15 C15        19.9753  -30.4600  -47.6893 C.3       10 UNK         0.0209 
     16 S16        20.9647  -29.0420  -47.0692 S.3       10 UNK        -0.2568 
     17 C17        21.0305  -29.3886  -45.2744 C.3       10 UNK        -0.0983 
     18 CA         21.8427  -28.4043  -44.4091 C.3       3 UNK         0.0876 
     19 N          21.4553  -27.0130  -44.6476 N.am      3 UNK        -0.4424 
     20 C          21.8970  -25.9317  -43.9893 C.2       2 UNK         0.4918 
     21 O          22.7790  -25.9603  -43.1280 O.2       2 UNK        -0.4875 
     22 CA         21.1689  -24.6092  -44.2975 C.3       2 UNK         0.0481 
     23 CB         21.9330  -23.8175  -45.3693 C.3       2 UNK        -0.1831 
     24 N          19.7714  -24.7967  -44.7222 N.am      2 UNK        -0.4498 
     25 C          18.8147  -25.3640  -43.9694 C.2       1 UNK         0.5027 
     26 O          19.0059  -25.7707  -42.8214 O.2       1 UNK        -0.4969 
     27 C          21.6774  -28.8329  -42.9352 C.2       3 UNK         0.5005 
     28 O          22.4735  -29.6394  -42.4587 O.2       3 UNK        -0.5279 
     29 N          20.6740  -28.2847  -42.2286 N.am      4 UNK        -0.4463 
     30 CA         20.3917  -28.6014  -40.8259 C.3       4 UNK         0.0283 
     31 CB         19.0867  -27.9226  -40.3853 C.3       4 UNK        -0.1875 
     32 C          21.5429  -28.2375  -39.8746 C.2       4 UNK         0.4949 
     33 O          21.6980  -28.9000  -38.8491 O.2       4 UNK        -0.5039 
     34 N          22.3388  -27.2281  -40.2528 N.am      5 UNK        -0.4663 
     35 CA         23.5918  -26.8668  -39.5981 C.3       5 UNK         0.0242 
     36 CB         23.7372  -25.3359  -39.5833 C.3       5 UNK        -0.1982 
     37 C          24.7882  -27.5204  -40.3063 C.2       5 UNK         0.5017 
     38 O          25.6248  -28.1205  -39.6327 O.2       5 UNK        -0.5012 
     39 N          24.8569  -27.3891  -41.6411 N.am      6 UNK        -0.4439 
     40 CA         26.0094  -27.7908  -42.4574 C.3       6 UNK         0.0297 
     41 CB         25.8719  -27.2027  -43.8708 C.3       6 UNK        -0.2006 
     42 C          26.2604  -29.3086  -42.5200 C.2       6 UNK         0.4892 
     43 O          27.4183  -29.7246  -42.4667 O.2       6 UNK        -0.5089 
     44 N          25.1874  -30.1021  -42.6255 N.am      7 UNK        -0.4243 
     45 CA         25.2131  -31.5686  -42.6070 C.3       7 UNK         0.0196 
     46 CB         24.3203  -32.1008  -43.7433 C.3       7 UNK        -0.2007 
     47 C          24.7540  -32.1271  -41.2471 C.2       7 UNK         0.5020 
     48 O          24.7918  -33.3428  -41.0570 O.2       7 UNK        -0.5147 
     49 N          24.3346  -31.2395  -40.3321 N.am      8 UNK        -0.4734 
     50 CA         23.8876  -31.4983  -38.9586 C.3       8 UNK         0.0238 
     51 CB         25.0368  -32.0856  -38.1105 C.3       8 UNK        -0.1912 
     52 C          22.5891  -32.3256  -38.8564 C.2       8 UNK         0.5038 
     53 O          22.3690  -32.9667  -37.8267 O.2       8 UNK        -0.5046 
     54 N          21.7464  -32.3000  -39.9005 N.am      9 UNK        -0.4200 
     55 CA         20.4526  -33.0063  -39.9328 C.3       9 UNK         0.0839 
     56 C          19.2989  -32.3169  -39.1439 C.2       9 UNK         0.5513 
     57 N          19.4981  -31.1511  -38.5392 N.am      9 UNK        -0.7519 
     58 O          18.2035  -32.8661  -39.0582 O.2       9 UNK        -0.4960 
     59 C59        20.0470  -33.4332  -41.3698 C.3       10 UNK        -0.0876 
     60 S60        19.7126  -32.0501  -42.5103 S.3       10 UNK        -0.2414 
     61 C61        18.3657  -32.7417  -43.5279 C.3       10 UNK         0.0169 
     62 H62        15.2763  -23.4599  -41.3663 H         1 UNK         0.0903 
     63 H63        14.1071  -23.3112  -42.6812 H         1 UNK         0.0903 
     64 H64        14.4872  -24.8996  -42.0131 H         1 UNK         0.0903 
     65 H65        15.8578  -26.0836  -43.3306 H         1 UNK         0.3096 
     66 H66        17.3561  -24.9413  -45.4964 H         1 UNK         0.1121 
     67 H67        17.3983  -27.7576  -44.2742 H         1 UNK         0.0849 
     68 H68        18.2327  -27.3175  -45.7425 H         1 UNK         0.0849 
     69 H69        15.0602  -29.1667  -44.6981 H         1 UNK         0.0865 
     70 H70        14.7458  -29.5322  -46.3762 H         1 UNK         0.0865 
     71 H71        16.2277  -31.0646  -43.8876 H         1 UNK         0.1346 
     72 H72        19.8850  -32.3259  -45.7173 H         1 UNK         0.1412 
     73 H73        17.5394  -29.2453  -47.5503 H         1 UNK         0.1426 
     74 H74        20.6253  -31.3302  -47.7938 H         1 UNK         0.0716 
     75 H75        19.6014  -30.2315  -48.6884 H         1 UNK         0.0716 
     76 H76        20.0029  -29.3900  -44.9065 H         1 UNK         0.0695 
     77 H77        21.4147  -30.4026  -45.1430 H         1 UNK         0.0695 
     78 H78        22.8964  -28.5032  -44.6710 H         1 UNK         0.0983 
     79 H79        20.7579  -26.8774  -45.3637 H         1 UNK         0.3095 
     80 H80        21.1598  -24.0200  -43.3782 H         1 UNK         0.0454 
     81 H81        21.9579  -24.3451  -46.3236 H         1 UNK         0.0851 
     82 H82        21.4833  -22.8388  -45.5369 H         1 UNK         0.0851 
     83 H83        22.9669  -23.6477  -45.0647 H         1 UNK         0.0851 
     84 H84        19.5400  -24.4864  -45.6557 H         1 UNK         0.2976 
     85 H85        20.0837  -27.5822  -42.6596 H         1 UNK         0.3116 
     86 H86        20.2482  -29.6805  -40.7663 H         1 UNK         0.0646 
     87 H87        19.1756  -26.8357  -40.3876 H         1 UNK         0.0847 
     88 H88        18.2561  -28.1950  -41.0365 H         1 UNK         0.0847 
     89 H89        18.8162  -28.2232  -39.3724 H         1 UNK         0.0847 
     90 H90        22.1326  -26.7621  -41.1273 H         1 UNK         0.3040 
     91 H91        23.5850  -27.2146  -38.5622 H         1 UNK         0.1015 
     92 H92        23.7328  -24.9140  -40.5893 H         1 UNK         0.0786 
     93 H93        24.6723  -25.0374  -39.1073 H         1 UNK         0.0786 
     94 H94        22.9264  -24.8693  -39.0234 H         1 UNK         0.0786 
     95 H95        24.1229  -26.8728  -42.1191 H         1 UNK         0.3172 
     96 H96        26.8940  -27.3403  -42.0020 H         1 UNK         0.0595 
     97 H97        26.7442  -27.4440  -44.4799 H         1 UNK         0.0839 
     98 H98        25.7887  -26.1160  -43.8426 H         1 UNK         0.0839 
     99 H99        24.9968  -27.5904  -44.3901 H         1 UNK         0.0839 
    100 H100       24.2549  -29.6917  -42.6329 H         1 UNK         0.2998 
    101 H101       26.2293  -31.9298  -42.7776 H         1 UNK         0.0822 
    102 H102       24.3907  -33.1868  -43.8164 H         1 UNK         0.0787 
    103 H103       23.2693  -31.8568  -43.5862 H         1 UNK         0.0787 
    104 H104       24.6193  -31.6916  -44.7084 H         1 UNK         0.0787 
    105 H105       24.3353  -30.2677  -40.6090 H         1 UNK         0.3055 
    106 H106       23.6515  -30.5231  -38.5328 H         1 UNK         0.1106 
    107 H107       25.9372  -31.4759  -38.1873 H         1 UNK         0.0828 
    108 H108       24.7653  -32.1244  -37.0548 H         1 UNK         0.0828 
    109 H109       25.2900  -33.1008  -38.4168 H         1 UNK         0.0828 
    110 H110       21.9763  -31.7375  -40.7081 H         1 UNK         0.2931 
    111 H111       20.6067  -33.9463  -39.3992 H         1 UNK         0.0412 
    112 H112       18.7408  -30.7359  -38.0207 H         1 UNK         0.3472 
    113 H113       20.3909  -30.6802  -38.5904 H         1 UNK         0.3472 
    114 H114       20.8396  -34.0427  -41.8065 H         1 UNK         0.0970 
    115 H115       19.1714  -34.0839  -41.3277 H         1 UNK         0.0970 
    116 H116       18.6560  -33.7257  -43.8994 H         1 UNK         0.0612 
    117 H117       17.4795  -32.8854  -42.9079 H         1 UNK         0.0612 
@<TRIPOS>BOND
     1    1    2 1    
     2    1   62 1    
     3    1   63 1    
     4    1   64 1    
     5    2    3 2    
     6    2    4 am   BACKBONE|DICT|INTERRES
     7    4    5 1    
     8    4   65 1    
     9    5    6 1    
    10    5   25 1    
    11    5   66 1    
    12    6    7 1    
    13    6   67 1    
    14    6   68 1    
    15    7    8 1    
    16    8    9 1    
    17    8   69 1    
    18    8   70 1    
    19    9   10 ar   
    20    9   14 ar   
    21   10   11 ar   
    22   10   71 1    
    23   11   12 ar   
    24   11   61 1    
    25   12   13 ar   
    26   12   72 1    
    27   13   14 ar   
    28   13   15 1    
    29   14   73 1    
    30   15   16 1    
    31   15   74 1    
    32   15   75 1    
    33   16   17 1    
    34   17   18 1    
    35   17   76 1    
    36   17   77 1    
    37   18   19 1    
    38   18   27 1    
    39   18   78 1    
    40   19   20 am   BACKBONE|DICT|INTERRES
    41   19   79 1    
    42   20   21 2    
    43   20   22 1    
    44   22   23 1    
    45   22   24 1    
    46   22   80 1    
    47   23   81 1    
    48   23   82 1    
    49   23   83 1    
    50   24   25 am   BACKBONE|DICT|INTERRES
    51   24   84 1    
    52   25   26 2    
    53   27   28 2    
    54   27   29 am   BACKBONE|DICT|INTERRES
    55   29   30 1    
    56   29   85 1    
    57   30   31 1    
    58   30   32 1    
    59   30   86 1    
    60   31   87 1    
    61   31   88 1    
    62   31   89 1    
    63   32   33 2    
    64   32   34 am   BACKBONE|DICT|INTERRES
    65   34   35 1    
    66   34   90 1    
    67   35   36 1    
    68   35   37 1    
    69   35   91 1    
    70   36   92 1    
    71   36   93 1    
    72   36   94 1    
    73   37   38 2    
    74   37   39 am   BACKBONE|DICT|INTERRES
    75   39   40 1    
    76   39   95 1    
    77   40   41 1    
    78   40   42 1    
    79   40   96 1    
    80   41   97 1    
    81   41   98 1    
    82   41   99 1    
    83   42   43 2    
    84   42   44 am   BACKBONE|DICT|INTERRES
    85   44   45 1    
    86   44  100 1    
    87   45   46 1    
    88   45   47 1    
    89   45  101 1    
    90   46  102 1    
    91   46  103 1    
    92   46  104 1    
    93   47   48 2    
    94   47   49 am   BACKBONE|DICT|INTERRES
    95   49   50 1    
    96   49  105 1    
    97   50   51 1    
    98   50   52 1    
    99   50  106 1    
   100   51  107 1    
   101   51  108 1    
   102   51  109 1    
   103   52   53 2    
   104   52   54 am   BACKBONE|DICT|INTERRES
   105   54   55 1    
   106   54  110 1    
   107   55   56 1    
   108   55   59 1    
   109   55  111 1    
   110   56   57 am   BACKBONE|DICT|INTERRES
   111   56   58 2    
   112   57  112 1    
   113   57  113 1    
   114   59   60 1    
   115   59  114 1    
   116   59  115 1    
   117   60   61 1    
   118   61  116 1    
   119   61  117 1    
@<TRIPOS>SUBSTRUCTURE
     1 UNK         1 GROUP             0       ****    0 ROOT    
