@<TRIPOS>MOLECULE
3R8
117   119    1
SMALL
USER_CHARGES


@<TRIPOS>ATOM
      1 CA         17.3609  -23.3936  -48.0330 C.3       0 UNK        -0.2013 
      2 C          18.0577  -24.6515  -47.5359 C.2       0 UNK         0.4866 
      3 O          19.0295  -25.0937  -48.1486 O.2       0 UNK        -0.5176 
      4 N          17.5627  -25.2328  -46.4353 N.am      1 UNK        -0.4884 
      5 CA         18.1039  -26.4412  -45.8025 C.3       1 UNK         0.0853 
      6 C6         17.1894  -26.9467  -44.6588 C.3       10 UNK        -0.0849 
      7 S7         15.6493  -27.7473  -45.2261 S.3       10 UNK        -0.2776 
      8 C8         16.0662  -29.5240  -45.4186 C.3       10 UNK         0.0316 
      9 C9         17.1757  -30.0190  -44.4968 C.ar      10 UNK        -0.0863 
     10 C10        18.4136  -30.3854  -45.0382 C.ar      10 UNK        -0.1009 
     11 C11        19.4571  -30.7932  -44.2049 C.ar      10 UNK        -0.0712 
     12 C12        19.2631  -30.8074  -42.8256 C.ar      10 UNK        -0.0894 
     13 C13        18.0395  -30.4430  -42.2643 C.ar      10 UNK        -0.0745 
     14 C14        16.9842  -30.0754  -43.1091 C.ar      10 UNK        -0.0972 
     15 C15        17.9088  -30.4581  -40.7438 C.3       10 UNK         0.0209 
     16 S16        17.0691  -29.0059  -40.0256 S.3       10 UNK        -0.2568 
     17 C17        17.8441  -27.5222  -40.7652 C.3       10 UNK        -0.0983 
     18 CA         19.3698  -27.5299  -41.0647 C.3       3 UNK         0.0876 
     19 N          19.6949  -26.3967  -41.9326 N.am      3 UNK        -0.4424 
     20 C          20.8783  -26.0601  -42.4658 C.2       2 UNK         0.4918 
     21 O          21.9520  -26.6091  -42.2027 O.2       2 UNK        -0.4875 
     22 CA         20.8035  -24.9262  -43.5149 C.3       2 UNK         0.0481 
     23 CB         22.1317  -24.6745  -44.2534 C.3       2 UNK        -0.1831 
     24 N          19.6993  -25.1486  -44.4639 N.am      2 UNK        -0.4498 
     25 C          19.5230  -26.2362  -45.2367 C.2       1 UNK         0.5027 
     26 O          20.3838  -27.0923  -45.4423 O.2       1 UNK        -0.4969 
     27 C          20.2258  -27.5331  -39.7852 C.2       3 UNK         0.5005 
     28 O          20.0252  -26.6769  -38.9214 O.2       3 UNK        -0.5279 
     29 N          21.1929  -28.4619  -39.7217 N.am      4 UNK        -0.4463 
     30 CA         22.1981  -28.6460  -38.6656 C.3       4 UNK         0.0283 
     31 CB         21.5394  -28.9208  -37.2977 C.3       4 UNK        -0.1875 
     32 C          23.2582  -27.5272  -38.5931 C.2       4 UNK         0.4949 
     33 O          24.1010  -27.5635  -37.6960 O.2       4 UNK        -0.5039 
     34 N          23.2291  -26.5774  -39.5374 N.am      5 UNK        -0.4663 
     35 CA         24.2173  -25.5103  -39.6839 C.3       5 UNK         0.0242 
     36 CB         23.5169  -24.2017  -40.0879 C.3       5 UNK        -0.1982 
     37 C          25.2767  -25.9168  -40.7147 C.2       5 UNK         0.5017 
     38 O          26.4684  -25.8408  -40.4143 O.2       5 UNK        -0.5012 
     39 N          24.8251  -26.3655  -41.8952 N.am      6 UNK        -0.4439 
     40 CA         25.6864  -26.9212  -42.9407 C.3       6 UNK         0.0297 
     41 CB         25.0961  -26.6236  -44.3274 C.3       6 UNK        -0.2006 
     42 C          25.8678  -28.4324  -42.7538 C.2       6 UNK         0.4892 
     43 O          26.9932  -28.9235  -42.8488 O.2       6 UNK        -0.5089 
     44 N          24.7614  -29.1368  -42.4884 N.am      7 UNK        -0.4243 
     45 CA         24.7006  -30.5797  -42.2904 C.3       7 UNK         0.0196 
     46 CB         24.8231  -31.3095  -43.6432 C.3       7 UNK        -0.2007 
     47 C          23.3733  -30.9252  -41.6123 C.2       7 UNK         0.5020 
     48 O          22.4219  -30.1418  -41.6823 O.2       7 UNK        -0.5147 
     49 N          23.3250  -32.1064  -40.9886 N.am      8 UNK        -0.4734 
     50 CA         22.1145  -32.6668  -40.3812 C.3       8 UNK         0.0238 
     51 CB         22.5147  -33.5416  -39.1818 C.3       8 UNK        -0.1912 
     52 C          21.2639  -33.4767  -41.3779 C.2       8 UNK         0.5038 
     53 O          20.0936  -33.7209  -41.0863 O.2       8 UNK        -0.5046 
     54 N          21.8534  -33.8768  -42.5171 N.am      9 UNK        -0.4200 
     55 CA         21.2421  -34.7129  -43.5699 C.3       9 UNK         0.0839 
     56 C          20.8312  -36.1460  -43.0999 C.2       9 UNK         0.5513 
     57 N          21.3952  -36.6713  -42.0184 N.am      9 UNK        -0.7519 
     58 O          20.0224  -36.8134  -43.7399 O.2       9 UNK        -0.4960 
     59 C59        20.1178  -33.9668  -44.3531 C.3       10 UNK        -0.0876 
     60 S60        20.7694  -32.8145  -45.6153 S.3       10 UNK        -0.2414 
     61 C61        20.8072  -31.1994  -44.7752 C.3       10 UNK         0.0169 
     62 H62        16.5149  -23.1188  -47.4034 H         1 UNK         0.0903 
     63 H63        18.0599  -22.5577  -48.0452 H         1 UNK         0.0903 
     64 H64        16.9929  -23.5448  -49.0475 H         1 UNK         0.0903 
     65 H65        16.7400  -24.8410  -45.9985 H         1 UNK         0.3096 
     66 H66        18.1755  -27.2208  -46.5646 H         1 UNK         0.1121 
     67 H67        16.8995  -26.1125  -44.0175 H         1 UNK         0.0849 
     68 H68        17.7274  -27.6201  -43.9939 H         1 UNK         0.0849 
     69 H69        15.1668  -30.1160  -45.2436 H         1 UNK         0.0865 
     70 H70        16.3367  -29.6975  -46.4613 H         1 UNK         0.0865 
     71 H71        18.5730  -30.3495  -46.1073 H         1 UNK         0.1346 
     72 H72        20.0787  -31.0961  -42.1817 H         1 UNK         0.1412 
     73 H73        16.0310  -29.7873  -42.6871 H         1 UNK         0.1426 
     74 H74        18.8891  -30.5453  -40.2722 H         1 UNK         0.0716 
     75 H75        17.3571  -31.3537  -40.4558 H         1 UNK         0.0716 
     76 H76        17.5915  -26.6712  -40.1295 H         1 UNK         0.0695 
     77 H77        17.2967  -27.3502  -41.6921 H         1 UNK         0.0695 
     78 H78        19.6211  -28.4151  -41.6439 H         1 UNK         0.0983 
     79 H79        18.9059  -25.8244  -42.1893 H         1 UNK         0.3095 
     80 H80        20.5620  -24.0174  -42.9619 H         1 UNK         0.0454 
     81 H81        22.4283  -25.5319  -44.8554 H         1 UNK         0.0851 
     82 H82        22.9397  -24.4659  -43.5521 H         1 UNK         0.0851 
     83 H83        22.0538  -23.8156  -44.9194 H         1 UNK         0.0851 
     84 H84        18.9361  -24.4880  -44.4111 H         1 UNK         0.2976 
     85 H85        21.3500  -29.0533  -40.5362 H         1 UNK         0.3116 
     86 H86        22.7466  -29.5475  -38.9405 H         1 UNK         0.0646 
     87 H87        21.0364  -28.0381  -36.9024 H         1 UNK         0.0847 
     88 H88        22.2838  -29.2228  -36.5601 H         1 UNK         0.0847 
     89 H89        20.8068  -29.7250  -37.3637 H         1 UNK         0.0847 
     90 H90        22.5264  -26.6490  -40.2644 H         1 UNK         0.3040 
     91 H91        24.7241  -25.3374  -38.7315 H         1 UNK         0.1015 
     92 H92        22.9927  -24.2892  -41.0389 H         1 UNK         0.0786 
     93 H93        24.2389  -23.3901  -40.1879 H         1 UNK         0.0786 
     94 H94        22.7899  -23.8969  -39.3349 H         1 UNK         0.0786 
     95 H95        23.8209  -26.4117  -42.0485 H         1 UNK         0.3172 
     96 H96        26.6716  -26.4519  -42.8930 H         1 UNK         0.0595 
     97 H97        24.1137  -27.0793  -44.4557 H         1 UNK         0.0839 
     98 H98        25.7398  -27.0175  -45.1151 H         1 UNK         0.0839 
     99 H99        25.0023  -25.5513  -44.4967 H         1 UNK         0.0839 
    100 H100       23.8670  -28.6696  -42.3981 H         1 UNK         0.2998 
    101 H101       25.5171  -30.8805  -41.6303 H         1 UNK         0.0822 
    102 H102       25.7797  -31.1033  -44.1232 H         1 UNK         0.0787 
    103 H103       24.7573  -32.3908  -43.5197 H         1 UNK         0.0787 
    104 H104       24.0345  -31.0095  -44.3344 H         1 UNK         0.0787 
    105 H105       24.1584  -32.6776  -40.9543 H         1 UNK         0.3055 
    106 H106       21.4859  -31.8546  -40.0081 H         1 UNK         0.1106 
    107 H107       21.6341  -33.9592  -38.6913 H         1 UNK         0.0828 
    108 H108       23.1482  -34.3775  -39.4805 H         1 UNK         0.0828 
    109 H109       23.0543  -32.9620  -38.4325 H         1 UNK         0.0828 
    110 H110       22.8203  -33.6318  -42.6635 H         1 UNK         0.2931 
    111 H111       22.0489  -34.9095  -44.2771 H         1 UNK         0.0412 
    112 H112       21.1346  -37.6014  -41.7296 H         1 UNK         0.3472 
    113 H113       22.0760  -36.1510  -41.4897 H         1 UNK         0.3472 
    114 H114       19.4969  -34.6686  -44.9114 H         1 UNK         0.0970 
    115 H115       19.4276  -33.4639  -43.6769 H         1 UNK         0.0970 
    116 H116       21.5626  -31.2359  -43.9913 H         1 UNK         0.0612 
    117 H117       21.1410  -30.4392  -45.4827 H         1 UNK         0.0612 
@<TRIPOS>BOND
     1    1    2 1    
     2    1   62 1    
     3    1   63 1    
     4    1   64 1    
     5    2    3 2    
     6    2    4 am   BACKBONE|DICT|INTERRES
     7    4    5 1    
     8    4   65 1    
     9    5    6 1    
    10    5   25 1    
    11    5   66 1    
    12    6    7 1    
    13    6   67 1    
    14    6   68 1    
    15    7    8 1    
    16    8    9 1    
    17    8   69 1    
    18    8   70 1    
    19    9   10 ar   
    20    9   14 ar   
    21   10   11 ar   
    22   10   71 1    
    23   11   12 ar   
    24   11   61 1    
    25   12   13 ar   
    26   12   72 1    
    27   13   14 ar   
    28   13   15 1    
    29   14   73 1    
    30   15   16 1    
    31   15   74 1    
    32   15   75 1    
    33   16   17 1    
    34   17   18 1    
    35   17   76 1    
    36   17   77 1    
    37   18   19 1    
    38   18   27 1    
    39   18   78 1    
    40   19   20 am   BACKBONE|DICT|INTERRES
    41   19   79 1    
    42   20   21 2    
    43   20   22 1    
    44   22   23 1    
    45   22   24 1    
    46   22   80 1    
    47   23   81 1    
    48   23   82 1    
    49   23   83 1    
    50   24   25 am   BACKBONE|DICT|INTERRES
    51   24   84 1    
    52   25   26 2    
    53   27   28 2    
    54   27   29 am   BACKBONE|DICT|INTERRES
    55   29   30 1    
    56   29   85 1    
    57   30   31 1    
    58   30   32 1    
    59   30   86 1    
    60   31   87 1    
    61   31   88 1    
    62   31   89 1    
    63   32   33 2    
    64   32   34 am   BACKBONE|DICT|INTERRES
    65   34   35 1    
    66   34   90 1    
    67   35   36 1    
    68   35   37 1    
    69   35   91 1    
    70   36   92 1    
    71   36   93 1    
    72   36   94 1    
    73   37   38 2    
    74   37   39 am   BACKBONE|DICT|INTERRES
    75   39   40 1    
    76   39   95 1    
    77   40   41 1    
    78   40   42 1    
    79   40   96 1    
    80   41   97 1    
    81   41   98 1    
    82   41   99 1    
    83   42   43 2    
    84   42   44 am   BACKBONE|DICT|INTERRES
    85   44   45 1    
    86   44  100 1    
    87   45   46 1    
    88   45   47 1    
    89   45  101 1    
    90   46  102 1    
    91   46  103 1    
    92   46  104 1    
    93   47   48 2    
    94   47   49 am   BACKBONE|DICT|INTERRES
    95   49   50 1    
    96   49  105 1    
    97   50   51 1    
    98   50   52 1    
    99   50  106 1    
   100   51  107 1    
   101   51  108 1    
   102   51  109 1    
   103   52   53 2    
   104   52   54 am   BACKBONE|DICT|INTERRES
   105   54   55 1    
   106   54  110 1    
   107   55   56 1    
   108   55   59 1    
   109   55  111 1    
   110   56   57 am   BACKBONE|DICT|INTERRES
   111   56   58 2    
   112   57  112 1    
   113   57  113 1    
   114   59   60 1    
   115   59  114 1    
   116   59  115 1    
   117   60   61 1    
   118   61  116 1    
   119   61  117 1    
@<TRIPOS>SUBSTRUCTURE
     1 UNK         1 GROUP             0       ****    0 ROOT    
