@<TRIPOS>MOLECULE
3R8
117   119    1
SMALL
USER_CHARGES


@<TRIPOS>ATOM
      1 CA         18.0976  -26.6490  -39.2813 C.3       0 UNK        -0.2013 
      2 C          17.9488  -25.9673  -40.6329 C.2       0 UNK         0.4866 
      3 O          17.9651  -24.7387  -40.7084 O.2       0 UNK        -0.5176 
      4 N          17.8145  -26.7601  -41.7024 N.am      1 UNK        -0.4884 
      5 CA         17.7170  -26.2912  -43.0955 C.3       1 UNK         0.0853 
      6 C6         16.9368  -27.2770  -44.0052 C.3       10 UNK        -0.0849 
      7 S7         15.3154  -27.7800  -43.3227 S.3       10 UNK        -0.2776 
      8 C8         14.6436  -28.8639  -44.6296 C.3       10 UNK         0.0316 
      9 C9         15.6036  -29.9828  -45.0124 C.ar      10 UNK        -0.0863 
     10 C10        15.6664  -31.1682  -44.2705 C.ar      10 UNK        -0.1009 
     11 C11        16.5900  -32.1669  -44.6047 C.ar      10 UNK        -0.0712 
     12 C12        17.4428  -31.9759  -45.6968 C.ar      10 UNK        -0.0894 
     13 C13        17.3721  -30.8043  -46.4553 C.ar      10 UNK        -0.0745 
     14 C14        16.4438  -29.8193  -46.1158 C.ar      10 UNK        -0.0972 
     15 C15        18.3021  -30.5850  -47.6371 C.3       10 UNK         0.0209 
     16 S16        19.5639  -29.3321  -47.2565 S.3       10 UNK        -0.2568 
     17 C17        20.6158  -30.2543  -46.0918 C.3       10 UNK        -0.0983 
     18 CA         21.7985  -29.3877  -45.6075 C.3       3 UNK         0.0876 
     19 N          21.3767  -28.3449  -44.6702 N.am      3 UNK        -0.4424 
     20 C          22.0397  -27.1956  -44.4876 C.2       2 UNK         0.4918 
     21 O          22.9916  -26.8463  -45.1886 O.2       2 UNK        -0.4875 
     22 CA         21.5943  -26.2999  -43.3155 C.3       2 UNK         0.0481 
     23 CB         22.0218  -24.8254  -43.4798 C.3       2 UNK        -0.1831 
     24 N          20.1725  -26.4170  -42.9880 N.am      2 UNK        -0.4498 
     25 C          19.1119  -26.0008  -43.6975 C.2       1 UNK         0.5027 
     26 O          19.1916  -25.4160  -44.7785 O.2       1 UNK        -0.4969 
     27 C          22.8710  -30.2516  -44.9241 C.2       3 UNK         0.5005 
     28 O          22.7078  -30.6110  -43.7574 O.2       3 UNK        -0.5279 
     29 N          23.9507  -30.5579  -45.6581 N.am      4 UNK        -0.4463 
     30 CA         25.1748  -31.2608  -45.2400 C.3       4 UNK         0.0283 
     31 CB         24.8829  -32.6518  -44.6409 C.3       4 UNK        -0.1875 
     32 C          26.0804  -30.4278  -44.3135 C.2       4 UNK         0.4949 
     33 O          27.2855  -30.3630  -44.5575 O.2       4 UNK        -0.5039 
     34 N          25.4979  -29.7841  -43.2981 N.am      5 UNK        -0.4663 
     35 CA         26.1521  -28.8583  -42.3776 C.3       5 UNK         0.0242 
     36 CB         26.9143  -29.6384  -41.2898 C.3       5 UNK        -0.1982 
     37 C          25.0822  -27.9598  -41.7512 C.2       5 UNK         0.5017 
     38 O          23.9198  -28.3612  -41.6812 O.2       5 UNK        -0.5012 
     39 N          25.4921  -26.7846  -41.2554 N.am      6 UNK        -0.4439 
     40 CA         24.6167  -25.7990  -40.6044 C.3       6 UNK         0.0297 
     41 CB         25.4254  -24.5322  -40.2832 C.3       6 UNK        -0.2006 
     42 C          23.9048  -26.3172  -39.3393 C.2       6 UNK         0.4892 
     43 O          22.8035  -25.8592  -39.0361 O.2       6 UNK        -0.5089 
     44 N          24.5426  -27.2637  -38.6394 N.am      7 UNK        -0.4243 
     45 CA         24.0148  -27.9324  -37.4493 C.3       7 UNK         0.0196 
     46 CB         25.1882  -28.2175  -36.4946 C.3       7 UNK        -0.2007 
     47 C          23.2499  -29.2321  -37.7703 C.2       7 UNK         0.5020 
     48 O          22.7428  -29.8590  -36.8383 O.2       7 UNK        -0.5147 
     49 N          23.2003  -29.6421  -39.0465 N.am      8 UNK        -0.4734 
     50 CA         22.5399  -30.8672  -39.5033 C.3       8 UNK         0.0238 
     51 CB         23.4442  -31.5776  -40.5298 C.3       8 UNK        -0.1912 
     52 C          21.1069  -30.5810  -39.9986 C.2       8 UNK         0.5038 
     53 O          20.4495  -29.6787  -39.4704 O.2       8 UNK        -0.5046 
     54 N          20.6161  -31.4036  -40.9371 N.am      9 UNK        -0.4200 
     55 CA         19.2141  -31.4406  -41.3764 C.3       9 UNK         0.0839 
     56 C          18.7101  -30.1346  -42.0447 C.2       9 UNK         0.5513 
     57 N          17.4333  -29.8270  -41.8603 N.am      9 UNK        -0.7519 
     58 O          19.4357  -29.4368  -42.7499 O.2       9 UNK        -0.4960 
     59 C59        18.9255  -32.6832  -42.2637 C.3       10 UNK        -0.0876 
     60 S60        17.1953  -33.2496  -42.0887 S.3       10 UNK        -0.2414 
     61 C61        16.6505  -33.4688  -43.8140 C.3       10 UNK         0.0169 
     62 H62        17.2794  -26.3601  -38.6220 H         1 UNK         0.0903 
     63 H63        18.0959  -27.7362  -39.3705 H         1 UNK         0.0903 
     64 H64        19.0363  -26.3525  -38.8133 H         1 UNK         0.0903 
     65 H65        17.8293  -27.7641  -41.5735 H         1 UNK         0.3096 
     66 H66        17.1738  -25.3433  -43.0992 H         1 UNK         0.1121 
     67 H67        16.7660  -26.8269  -44.9852 H         1 UNK         0.0849 
     68 H68        17.5362  -28.1702  -44.1877 H         1 UNK         0.0849 
     69 H69        13.7009  -29.2914  -44.2847 H         1 UNK         0.0865 
     70 H70        14.3976  -28.2583  -45.5034 H         1 UNK         0.0865 
     71 H71        15.0125  -31.3063  -43.4203 H         1 UNK         0.1346 
     72 H72        18.1606  -32.7409  -45.9600 H         1 UNK         0.1412 
     73 H73        16.4009  -28.9074  -46.6961 H         1 UNK         0.1426 
     74 H74        18.7862  -31.5159  -47.9367 H         1 UNK         0.0716 
     75 H75        17.7196  -30.2509  -48.4970 H         1 UNK         0.0716 
     76 H76        20.9716  -31.1491  -46.6067 H         1 UNK         0.0695 
     77 H77        20.0160  -30.5978  -45.2468 H         1 UNK         0.0695 
     78 H78        22.2508  -28.9142  -46.4821 H         1 UNK         0.0983 
     79 H79        20.6556  -28.6140  -44.0056 H         1 UNK         0.3095 
     80 H80        22.1104  -26.6870  -42.4387 H         1 UNK         0.0454 
     81 H81        21.7182  -24.2262  -42.6216 H         1 UNK         0.0851 
     82 H82        21.5933  -24.3748  -44.3751 H         1 UNK         0.0851 
     83 H83        23.1055  -24.7396  -43.5656 H         1 UNK         0.0851 
     84 H84        19.9684  -26.9274  -42.1397 H         1 UNK         0.2976 
     85 H85        23.9847  -30.1970  -46.6023 H         1 UNK         0.3116 
     86 H86        25.7390  -31.4230  -46.1602 H         1 UNK         0.0646 
     87 H87        24.2622  -33.2500  -45.3078 H         1 UNK         0.0847 
     88 H88        25.8098  -33.2032  -44.4789 H         1 UNK         0.0847 
     89 H89        24.3774  -32.5891  -43.6768 H         1 UNK         0.0847 
     90 H90        24.4901  -29.8713  -43.1762 H         1 UNK         0.3040 
     91 H91        26.8472  -28.2311  -42.9404 H         1 UNK         0.1015 
     92 H92        26.2451  -30.2669  -40.7018 H         1 UNK         0.0786 
     93 H93        27.4186  -28.9618  -40.5989 H         1 UNK         0.0786 
     94 H94        27.6801  -30.2820  -41.7230 H         1 UNK         0.0786 
     95 H95        26.4677  -26.5349  -41.3395 H         1 UNK         0.3172 
     96 H96        23.8409  -25.5267  -41.3201 H         1 UNK         0.0595 
     97 H97        26.2437  -24.7381  -39.5920 H         1 UNK         0.0839 
     98 H98        24.7929  -23.7729  -39.8207 H         1 UNK         0.0839 
     99 H99        25.8485  -24.0901  -41.1854 H         1 UNK         0.0839 
    100 H100       25.4440  -27.5748  -38.9706 H         1 UNK         0.2998 
    101 H101       23.3160  -27.2671  -36.9374 H         1 UNK         0.0822 
    102 H102       25.7130  -27.3003  -36.2261 H         1 UNK         0.0787 
    103 H103       24.8383  -28.6700  -35.5657 H         1 UNK         0.0787 
    104 H104       25.9124  -28.9024  -36.9379 H         1 UNK         0.0787 
    105 H105       23.5507  -29.0331  -39.7784 H         1 UNK         0.3055 
    106 H106       22.4251  -31.5521  -38.6602 H         1 UNK         0.1106 
    107 H107       24.4269  -31.7814  -40.1055 H         1 UNK         0.0828 
    108 H108       23.0367  -32.5399  -40.8403 H         1 UNK         0.0828 
    109 H109       23.5917  -30.9733  -41.4216 H         1 UNK         0.0828 
    110 H110       21.2419  -32.0632  -41.3769 H         1 UNK         0.2931 
    111 H111       18.6490  -31.5605  -40.4487 H         1 UNK         0.0412 
    112 H112       16.8504  -30.4450  -41.3171 H         1 UNK         0.3472 
    113 H113       16.9971  -29.1006  -42.4090 H         1 UNK         0.3472 
    114 H114       19.1710  -32.4894  -43.3099 H         1 UNK         0.0970 
    115 H115       19.5559  -33.5214  -41.9622 H         1 UNK         0.0970 
    116 H116       17.3083  -34.1910  -44.3003 H         1 UNK         0.0612 
    117 H117       15.6573  -33.9198  -43.8079 H         1 UNK         0.0612 
@<TRIPOS>BOND
     1    1    2 1    
     2    1   62 1    
     3    1   63 1    
     4    1   64 1    
     5    2    3 2    
     6    2    4 am   BACKBONE|DICT|INTERRES
     7    4    5 1    
     8    4   65 1    
     9    5    6 1    
    10    5   25 1    
    11    5   66 1    
    12    6    7 1    
    13    6   67 1    
    14    6   68 1    
    15    7    8 1    
    16    8    9 1    
    17    8   69 1    
    18    8   70 1    
    19    9   10 ar   
    20    9   14 ar   
    21   10   11 ar   
    22   10   71 1    
    23   11   12 ar   
    24   11   61 1    
    25   12   13 ar   
    26   12   72 1    
    27   13   14 ar   
    28   13   15 1    
    29   14   73 1    
    30   15   16 1    
    31   15   74 1    
    32   15   75 1    
    33   16   17 1    
    34   17   18 1    
    35   17   76 1    
    36   17   77 1    
    37   18   19 1    
    38   18   27 1    
    39   18   78 1    
    40   19   20 am   BACKBONE|DICT|INTERRES
    41   19   79 1    
    42   20   21 2    
    43   20   22 1    
    44   22   23 1    
    45   22   24 1    
    46   22   80 1    
    47   23   81 1    
    48   23   82 1    
    49   23   83 1    
    50   24   25 am   BACKBONE|DICT|INTERRES
    51   24   84 1    
    52   25   26 2    
    53   27   28 2    
    54   27   29 am   BACKBONE|DICT|INTERRES
    55   29   30 1    
    56   29   85 1    
    57   30   31 1    
    58   30   32 1    
    59   30   86 1    
    60   31   87 1    
    61   31   88 1    
    62   31   89 1    
    63   32   33 2    
    64   32   34 am   BACKBONE|DICT|INTERRES
    65   34   35 1    
    66   34   90 1    
    67   35   36 1    
    68   35   37 1    
    69   35   91 1    
    70   36   92 1    
    71   36   93 1    
    72   36   94 1    
    73   37   38 2    
    74   37   39 am   BACKBONE|DICT|INTERRES
    75   39   40 1    
    76   39   95 1    
    77   40   41 1    
    78   40   42 1    
    79   40   96 1    
    80   41   97 1    
    81   41   98 1    
    82   41   99 1    
    83   42   43 2    
    84   42   44 am   BACKBONE|DICT|INTERRES
    85   44   45 1    
    86   44  100 1    
    87   45   46 1    
    88   45   47 1    
    89   45  101 1    
    90   46  102 1    
    91   46  103 1    
    92   46  104 1    
    93   47   48 2    
    94   47   49 am   BACKBONE|DICT|INTERRES
    95   49   50 1    
    96   49  105 1    
    97   50   51 1    
    98   50   52 1    
    99   50  106 1    
   100   51  107 1    
   101   51  108 1    
   102   51  109 1    
   103   52   53 2    
   104   52   54 am   BACKBONE|DICT|INTERRES
   105   54   55 1    
   106   54  110 1    
   107   55   56 1    
   108   55   59 1    
   109   55  111 1    
   110   56   57 am   BACKBONE|DICT|INTERRES
   111   56   58 2    
   112   57  112 1    
   113   57  113 1    
   114   59   60 1    
   115   59  114 1    
   116   59  115 1    
   117   60   61 1    
   118   61  116 1    
   119   61  117 1    
@<TRIPOS>SUBSTRUCTURE
     1 UNK         1 GROUP             0       ****    0 ROOT    
