@<TRIPOS>MOLECULE
3R8
117   119    1
SMALL
USER_CHARGES


@<TRIPOS>ATOM
      1 CA         16.8289  -28.4757  -41.8743 C.3       0 UNK        -0.2013 
      2 C          16.3858  -27.4070  -42.8609 C.2       0 UNK         0.4866 
      3 O          15.7473  -26.4317  -42.4635 O.2       0 UNK        -0.5176 
      4 N          16.7203  -27.5738  -44.1461 N.am      1 UNK        -0.4884 
      5 CA         16.3120  -26.7105  -45.2636 C.3       1 UNK         0.0853 
      6 C6         16.3223  -27.4675  -46.6231 C.3       10 UNK        -0.0849 
      7 S7         15.4607  -29.0806  -46.5964 S.3       10 UNK        -0.2776 
      8 C8         16.8145  -30.2435  -46.9826 C.3       10 UNK         0.0316 
      9 C9         17.7212  -30.4852  -45.7829 C.ar      10 UNK        -0.0863 
     10 C10        17.4518  -31.5352  -44.8983 C.ar      10 UNK        -0.1009 
     11 C11        18.2697  -31.7536  -43.7846 C.ar      10 UNK        -0.0712 
     12 C12        19.3545  -30.9042  -43.5527 C.ar      10 UNK        -0.0894 
     13 C13        19.6340  -29.8543  -44.4299 C.ar      10 UNK        -0.0745 
     14 C14        18.8281  -29.6616  -45.5542 C.ar      10 UNK        -0.0972 
     15 C15        20.7732  -28.8969  -44.1315 C.3       10 UNK         0.0209 
     16 S16        20.2144  -27.6558  -42.9327 S.3       10 UNK        -0.2568 
     17 C17        21.6204  -26.4992  -42.9022 C.3       10 UNK        -0.0983 
     18 CA         21.3954  -25.2235  -43.7543 C.3       3 UNK         0.0876 
     19 N          20.0573  -24.6625  -43.5523 N.am      3 UNK        -0.4424 
     20 C          19.5045  -23.6600  -44.2440 C.2       2 UNK         0.4918 
     21 O          20.1019  -22.9844  -45.0844 O.2       2 UNK        -0.4875 
     22 CA         17.9995  -23.4417  -43.9847 C.3       2 UNK         0.0481 
     23 CB         17.4111  -22.2695  -44.7978 C.3       2 UNK        -0.1831 
     24 N          17.2211  -24.6722  -44.2027 N.am      2 UNK        -0.4498 
     25 C          17.1449  -25.4047  -45.3266 C.2       1 UNK         0.5027 
     26 O          17.7112  -25.0946  -46.3767 O.2       1 UNK        -0.4969 
     27 C          22.5172  -24.2029  -43.4716 C.2       3 UNK         0.5005 
     28 O          22.4178  -23.4323  -42.5127 O.2       3 UNK        -0.5279 
     29 N          23.5843  -24.2528  -44.2803 N.am      4 UNK        -0.4463 
     30 CA         24.7888  -23.4294  -44.1206 C.3       4 UNK         0.0283 
     31 CB         25.4372  -23.2257  -45.5005 C.3       4 UNK        -0.1875 
     32 C          25.8107  -24.0302  -43.1348 C.2       4 UNK         0.4949 
     33 O          26.7466  -23.3324  -42.7432 O.2       4 UNK        -0.5039 
     34 N          25.6351  -25.3032  -42.7643 N.am      5 UNK        -0.4663 
     35 CA         26.4901  -26.0693  -41.8605 C.3       5 UNK         0.0242 
     36 CB         27.6832  -26.6479  -42.6467 C.3       5 UNK        -0.1982 
     37 C          25.6499  -27.1775  -41.2085 C.2       5 UNK         0.5017 
     38 O          24.4833  -27.3499  -41.5700 O.2       5 UNK        -0.5012 
     39 N          26.2509  -27.9086  -40.2613 N.am      6 UNK        -0.4439 
     40 CA         25.6346  -29.0461  -39.5710 C.3       6 UNK         0.0297 
     41 CB         26.5509  -29.4889  -38.4180 C.3       6 UNK        -0.2006 
     42 C          25.3494  -30.2305  -40.5145 C.2       6 UNK         0.4892 
     43 O          26.0784  -30.4327  -41.4892 O.2       6 UNK        -0.5089 
     44 N          24.3166  -31.0077  -40.1765 N.am      7 UNK        -0.4243 
     45 CA         23.8915  -32.2175  -40.8759 C.3       7 UNK         0.0196 
     46 CB         22.7382  -31.8729  -41.8349 C.3       7 UNK        -0.2007 
     47 C          23.4481  -33.2549  -39.8378 C.2       7 UNK         0.5020 
     48 O          23.1323  -32.8888  -38.7026 O.2       7 UNK        -0.5147 
     49 N          23.4287  -34.5307  -40.2436 N.am      8 UNK        -0.4734 
     50 CA         23.0109  -35.6527  -39.3957 C.3       8 UNK         0.0238 
     51 CB         23.5229  -36.9704  -40.0007 C.3       8 UNK        -0.1912 
     52 C          21.4885  -35.7132  -39.1818 C.2       8 UNK         0.5038 
     53 O          21.0484  -36.1171  -38.1044 O.2       8 UNK        -0.5046 
     54 N          20.7201  -35.3252  -40.2071 N.am      9 UNK        -0.4200 
     55 CA         19.2560  -35.2214  -40.1658 C.3       9 UNK         0.0839 
     56 C          18.7615  -33.9723  -39.3847 C.2       9 UNK         0.5513 
     57 N          17.5341  -34.0068  -38.8835 N.am      9 UNK        -0.7519 
     58 O          19.4569  -32.9672  -39.2557 O.2       9 UNK        -0.4960 
     59 C59        18.6316  -35.3239  -41.5840 C.3       10 UNK        -0.0876 
     60 S60        19.2911  -34.1306  -42.8007 S.3       10 UNK        -0.2414 
     61 C61        17.9678  -32.8805  -42.8091 C.3       10 UNK         0.0169 
     62 H62        15.9742  -28.8415  -41.3062 H         1 UNK         0.0903 
     63 H63        17.5549  -28.0634  -41.1742 H         1 UNK         0.0903 
     64 H64        17.2870  -29.3254  -42.3780 H         1 UNK         0.0903 
     65 H65        17.2599  -28.3882  -44.4105 H         1 UNK         0.3096 
     66 H66        15.2799  -26.4021  -45.0813 H         1 UNK         0.1121 
     67 H67        17.3420  -27.6113  -46.9796 H         1 UNK         0.0849 
     68 H68        15.8371  -26.8550  -47.3855 H         1 UNK         0.0849 
     69 H69        16.3780  -31.1890  -47.3082 H         1 UNK         0.0865 
     70 H70        17.3923  -29.8757  -47.8321 H         1 UNK         0.0865 
     71 H71        16.5991  -32.1773  -45.0734 H         1 UNK         0.1346 
     72 H72        19.9704  -31.0515  -42.6767 H         1 UNK         0.1412 
     73 H73        19.0525  -28.8521  -46.2345 H         1 UNK         0.1426 
     74 H74        21.1097  -28.4024  -45.0441 H         1 UNK         0.0716 
     75 H75        21.6305  -29.4382  -43.7293 H         1 UNK         0.0716 
     76 H76        22.5159  -27.0235  -43.2383 H         1 UNK         0.0695 
     77 H77        21.7947  -26.2401  -41.8555 H         1 UNK         0.0695 
     78 H78        21.4492  -25.5066  -44.8079 H         1 UNK         0.0983 
     79 H79        19.4813  -25.1653  -42.8937 H         1 UNK         0.3095 
     80 H80        17.8976  -23.1928  -42.9274 H         1 UNK         0.0454 
     81 H81        17.4957  -22.4348  -45.8723 H         1 UNK         0.0851 
     82 H82        17.9331  -21.3390  -44.5717 H         1 UNK         0.0851 
     83 H83        16.3579  -22.1144  -44.5647 H         1 UNK         0.0851 
     84 H84        16.7241  -25.0403  -43.3950 H         1 UNK         0.2976 
     85 H85        23.5921  -24.9143  -45.0444 H         1 UNK         0.3116 
     86 H86        24.5028  -22.4481  -43.7355 H         1 UNK         0.0646 
     87 H87        25.7619  -24.1699  -45.9395 H         1 UNK         0.0847 
     88 H88        26.3157  -22.5827  -45.4282 H         1 UNK         0.0847 
     89 H89        24.7477  -22.7490  -46.1974 H         1 UNK         0.0847 
     90 H90        24.8001  -25.7954  -43.0551 H         1 UNK         0.3040 
     91 H91        26.8537  -25.4134  -41.0661 H         1 UNK         0.1015 
     92 H92        27.3526  -27.3326  -43.4289 H         1 UNK         0.0786 
     93 H93        28.3611  -27.1998  -41.9949 H         1 UNK         0.0786 
     94 H94        28.2681  -25.8588  -43.1196 H         1 UNK         0.0786 
     95 H95        27.2199  -27.7229  -40.0472 H         1 UNK         0.3172 
     96 H96        24.6865  -28.7047  -39.1494 H         1 UNK         0.0595 
     97 H97        27.5214  -29.8293  -38.7820 H         1 UNK         0.0839 
     98 H98        26.1070  -30.3138  -37.8588 H         1 UNK         0.0839 
     99 H99        26.7221  -28.6774  -37.7105 H         1 UNK         0.0839 
    100 H100       23.8197  -30.8332  -39.3117 H         1 UNK         0.2998 
    101 H101       24.7275  -32.6351  -41.4415 H         1 UNK         0.0822 
    102 H102       23.0475  -31.1331  -42.5732 H         1 UNK         0.0787 
    103 H103       22.3979  -32.7533  -42.3813 H         1 UNK         0.0787 
    104 H104       21.8796  -31.4705  -41.2956 H         1 UNK         0.0787 
    105 H105       23.7108  -34.7505  -41.1888 H         1 UNK         0.3055 
    106 H106       23.4713  -35.5302  -38.4122 H         1 UNK         0.1106 
    107 H107       23.2439  -37.8201  -39.3757 H         1 UNK         0.0828 
    108 H108       23.1106  -37.1489  -40.9946 H         1 UNK         0.0828 
    109 H109       24.6101  -36.9745  -40.0814 H         1 UNK         0.0828 
    110 H110       21.1624  -34.9676  -41.0401 H         1 UNK         0.2931 
    111 H111       18.8968  -36.0897  -39.6090 H         1 UNK         0.0412 
    112 H112       16.9508  -34.8236  -38.9810 H         1 UNK         0.3472 
    113 H113       17.1884  -33.2033  -38.3821 H         1 UNK         0.3472 
    114 H114       17.5441  -35.2427  -41.5354 H         1 UNK         0.0970 
    115 H115       18.8215  -36.3225  -41.9802 H         1 UNK         0.0970 
    116 H116       17.0212  -33.3623  -43.0587 H         1 UNK         0.0612 
    117 H117       17.8527  -32.4632  -41.8080 H         1 UNK         0.0612 
@<TRIPOS>BOND
     1    1    2 1    
     2    1   62 1    
     3    1   63 1    
     4    1   64 1    
     5    2    3 2    
     6    2    4 am   BACKBONE|DICT|INTERRES
     7    4    5 1    
     8    4   65 1    
     9    5    6 1    
    10    5   25 1    
    11    5   66 1    
    12    6    7 1    
    13    6   67 1    
    14    6   68 1    
    15    7    8 1    
    16    8    9 1    
    17    8   69 1    
    18    8   70 1    
    19    9   10 ar   
    20    9   14 ar   
    21   10   11 ar   
    22   10   71 1    
    23   11   12 ar   
    24   11   61 1    
    25   12   13 ar   
    26   12   72 1    
    27   13   14 ar   
    28   13   15 1    
    29   14   73 1    
    30   15   16 1    
    31   15   74 1    
    32   15   75 1    
    33   16   17 1    
    34   17   18 1    
    35   17   76 1    
    36   17   77 1    
    37   18   19 1    
    38   18   27 1    
    39   18   78 1    
    40   19   20 am   BACKBONE|DICT|INTERRES
    41   19   79 1    
    42   20   21 2    
    43   20   22 1    
    44   22   23 1    
    45   22   24 1    
    46   22   80 1    
    47   23   81 1    
    48   23   82 1    
    49   23   83 1    
    50   24   25 am   BACKBONE|DICT|INTERRES
    51   24   84 1    
    52   25   26 2    
    53   27   28 2    
    54   27   29 am   BACKBONE|DICT|INTERRES
    55   29   30 1    
    56   29   85 1    
    57   30   31 1    
    58   30   32 1    
    59   30   86 1    
    60   31   87 1    
    61   31   88 1    
    62   31   89 1    
    63   32   33 2    
    64   32   34 am   BACKBONE|DICT|INTERRES
    65   34   35 1    
    66   34   90 1    
    67   35   36 1    
    68   35   37 1    
    69   35   91 1    
    70   36   92 1    
    71   36   93 1    
    72   36   94 1    
    73   37   38 2    
    74   37   39 am   BACKBONE|DICT|INTERRES
    75   39   40 1    
    76   39   95 1    
    77   40   41 1    
    78   40   42 1    
    79   40   96 1    
    80   41   97 1    
    81   41   98 1    
    82   41   99 1    
    83   42   43 2    
    84   42   44 am   BACKBONE|DICT|INTERRES
    85   44   45 1    
    86   44  100 1    
    87   45   46 1    
    88   45   47 1    
    89   45  101 1    
    90   46  102 1    
    91   46  103 1    
    92   46  104 1    
    93   47   48 2    
    94   47   49 am   BACKBONE|DICT|INTERRES
    95   49   50 1    
    96   49  105 1    
    97   50   51 1    
    98   50   52 1    
    99   50  106 1    
   100   51  107 1    
   101   51  108 1    
   102   51  109 1    
   103   52   53 2    
   104   52   54 am   BACKBONE|DICT|INTERRES
   105   54   55 1    
   106   54  110 1    
   107   55   56 1    
   108   55   59 1    
   109   55  111 1    
   110   56   57 am   BACKBONE|DICT|INTERRES
   111   56   58 2    
   112   57  112 1    
   113   57  113 1    
   114   59   60 1    
   115   59  114 1    
   116   59  115 1    
   117   60   61 1    
   118   61  116 1    
   119   61  117 1    
@<TRIPOS>SUBSTRUCTURE
     1 UNK         1 GROUP             0       ****    0 ROOT    
