@<TRIPOS>MOLECULE
3R8
117   119    1
SMALL
USER_CHARGES


@<TRIPOS>ATOM
      1 CA         20.1137  -23.9140  -41.9166 C.3       0 UNK        -0.2013 
      2 C          19.5525  -24.7618  -43.0470 C.2       0 UNK         0.4866 
      3 O          20.1410  -25.7900  -43.3765 O.2       0 UNK        -0.5176 
      4 N          18.4342  -24.3133  -43.6413 N.am      1 UNK        -0.4884 
      5 CA         17.6549  -24.9489  -44.7213 C.3       1 UNK         0.0853 
      6 C6         16.4553  -25.8434  -44.2496 C.3       10 UNK        -0.0849 
      7 S7         16.5154  -26.5277  -42.5501 S.3       10 UNK        -0.2776 
      8 C8         15.9451  -28.2468  -42.7853 C.3       10 UNK         0.0316 
      9 C9         17.0986  -29.2358  -42.9016 C.ar      10 UNK        -0.0863 
     10 C10        17.1595  -30.3553  -42.0638 C.ar      10 UNK        -0.1009 
     11 C11        18.2304  -31.2506  -42.1533 C.ar      10 UNK        -0.0712 
     12 C12        19.2364  -31.0299  -43.0979 C.ar      10 UNK        -0.0894 
     13 C13        19.1828  -29.9195  -43.9425 C.ar      10 UNK        -0.0745 
     14 C14        18.1112  -29.0327  -43.8416 C.ar      10 UNK        -0.0972 
     15 C15        20.2935  -29.6528  -44.9413 C.3       10 UNK         0.0209 
     16 S16        21.7537  -28.9776  -44.1013 S.3       10 UNK        -0.2568 
     17 C17        22.7809  -28.5047  -45.5311 C.3       10 UNK        -0.0983 
     18 CA         23.0424  -26.9770  -45.6466 C.3       3 UNK         0.0876 
     19 N          21.8523  -26.2015  -45.9972 N.am      3 UNK        -0.4424 
     20 C          21.4392  -25.9855  -47.2504 C.2       2 UNK         0.4918 
     21 O          21.9156  -26.5674  -48.2271 O.2       2 UNK        -0.4875 
     22 CA         20.3757  -24.8906  -47.4705 C.3       2 UNK         0.0481 
     23 CB         19.5983  -25.0616  -48.7945 C.3       2 UNK        -0.1831 
     24 N          19.4696  -24.6801  -46.3359 N.am      2 UNK        -0.4498 
     25 C          18.5039  -25.5014  -45.8952 C.2       1 UNK         0.5027 
     26 O          18.2647  -26.6041  -46.3889 O.2       1 UNK        -0.4969 
     27 C          23.7248  -26.3403  -44.4196 C.2       3 UNK         0.5005 
     28 O          23.3989  -25.2092  -44.0445 O.2       3 UNK        -0.5279 
     29 N          24.6801  -27.0675  -43.8267 N.am      4 UNK        -0.4463 
     30 CA         25.4237  -26.6791  -42.6313 C.3       4 UNK         0.0283 
     31 CB         26.6709  -27.5733  -42.5061 C.3       4 UNK        -0.1875 
     32 C          24.5374  -26.7564  -41.3771 C.2       4 UNK         0.4949 
     33 O          24.5116  -27.7910  -40.7102 O.2       4 UNK        -0.5039 
     34 N          23.8121  -25.6639  -41.0997 N.am      5 UNK        -0.4663 
     35 CA         23.0161  -25.4044  -39.8900 C.3       5 UNK         0.0242 
     36 CB         23.9583  -25.1607  -38.6914 C.3       5 UNK        -0.1982 
     37 C          21.9452  -26.4726  -39.5814 C.2       5 UNK         0.5017 
     38 O          21.6428  -26.7054  -38.4098 O.2       5 UNK        -0.5012 
     39 N          21.4048  -27.1085  -40.6327 N.am      6 UNK        -0.4439 
     40 CA         20.4422  -28.2166  -40.5946 C.3       6 UNK         0.0297 
     41 CB         19.0904  -27.7452  -40.0187 C.3       6 UNK        -0.2006 
     42 C          20.9755  -29.4862  -39.8921 C.2       6 UNK         0.4892 
     43 O          20.1793  -30.2721  -39.3775 O.2       6 UNK        -0.5089 
     44 N          22.3043  -29.6739  -39.8632 N.am      7 UNK        -0.4243 
     45 CA         22.9590  -30.7963  -39.1823 C.3       7 UNK         0.0196 
     46 CB         24.3116  -30.3218  -38.6261 C.3       7 UNK        -0.2007 
     47 C          23.1604  -32.0267  -40.0830 C.2       7 UNK         0.5020 
     48 O          23.4955  -33.0931  -39.5652 O.2       7 UNK        -0.5147 
     49 N          22.9759  -31.8784  -41.4041 N.am      8 UNK        -0.4734 
     50 CA         23.3033  -32.8944  -42.4165 C.3       8 UNK         0.0238 
     51 CB         23.1989  -32.2759  -43.8197 C.3       8 UNK        -0.1912 
     52 C          22.4950  -34.2048  -42.3355 C.2       8 UNK         0.5038 
     53 O          22.9163  -35.1965  -42.9328 O.2       8 UNK        -0.5046 
     54 N          21.3754  -34.2020  -41.6003 N.am      9 UNK        -0.4200 
     55 CA         20.5880  -35.4058  -41.2813 C.3       9 UNK         0.0839 
     56 C          21.2670  -36.3445  -40.2401 C.2       9 UNK         0.5513 
     57 N          22.3022  -35.9164  -39.5248 N.am      9 UNK        -0.7519 
     58 O          20.8449  -37.4871  -40.0818 O.2       9 UNK        -0.4960 
     59 C59        19.1351  -35.0726  -40.8456 C.3       10 UNK        -0.0876 
     60 S60        18.2480  -34.0245  -42.0481 S.3       10 UNK        -0.2414 
     61 C61        18.3432  -32.4227  -41.1928 C.3       10 UNK         0.0169 
     62 H62        19.6125  -22.9493  -41.8410 H         1 UNK         0.0903 
     63 H63        19.9935  -24.4343  -40.9673 H         1 UNK         0.0903 
     64 H64        21.1751  -23.7308  -42.0811 H         1 UNK         0.0903 
     65 H65        18.0339  -23.4510  -43.2982 H         1 UNK         0.3096 
     66 H66        17.1725  -24.0940  -45.1997 H         1 UNK         0.1121 
     67 H67        15.5487  -25.2368  -44.2778 H         1 UNK         0.0849 
     68 H68        16.2481  -26.6479  -44.9557 H         1 UNK         0.0849 
     69 H69        15.3149  -28.5059  -41.9333 H         1 UNK         0.0865 
     70 H70        15.3052  -28.3246  -43.6649 H         1 UNK         0.0865 
     71 H71        16.3863  -30.5186  -41.3257 H         1 UNK         0.1346 
     72 H72        20.0698  -31.7142  -43.1594 H         1 UNK         0.1412 
     73 H73        18.0813  -28.1633  -44.4783 H         1 UNK         0.1426 
     74 H74        19.9583  -28.9464  -45.7032 H         1 UNK         0.0716 
     75 H75        20.5597  -30.5742  -45.4610 H         1 UNK         0.0716 
     76 H76        22.3165  -28.8643  -46.4505 H         1 UNK         0.0695 
     77 H77        23.7227  -29.0507  -45.4631 H         1 UNK         0.0695 
     78 H78        23.7693  -26.8404  -46.4507 H         1 UNK         0.0983 
     79 H79        21.4174  -25.7150  -45.2201 H         1 UNK         0.3095 
     80 H80        20.9402  -23.9612  -47.5571 H         1 UNK         0.0454 
     81 H81        20.2726  -25.0269  -49.6510 H         1 UNK         0.0851 
     82 H82        18.8650  -24.2673  -48.9320 H         1 UNK         0.0851 
     83 H83        19.0736  -26.0162  -48.8381 H         1 UNK         0.0851 
     84 H84        19.5971  -23.8105  -45.8364 H         1 UNK         0.2976 
     85 H85        24.8567  -27.9982  -44.1757 H         1 UNK         0.3116 
     86 H86        25.7640  -25.6478  -42.7483 H         1 UNK         0.0646 
     87 H87        27.3343  -27.4526  -43.3626 H         1 UNK         0.0847 
     88 H88        26.4097  -28.6297  -42.4298 H         1 UNK         0.0847 
     89 H89        27.2447  -27.3165  -41.6146 H         1 UNK         0.0847 
     90 H90        23.8224  -24.9221  -41.7902 H         1 UNK         0.3040 
     91 H91        22.4711  -24.4772  -40.0702 H         1 UNK         0.1015 
     92 H92        23.4028  -24.8309  -37.8126 H         1 UNK         0.0786 
     93 H93        24.6933  -24.3872  -38.9142 H         1 UNK         0.0786 
     94 H94        24.4984  -26.0671  -38.4146 H         1 UNK         0.0786 
     95 H95        21.7069  -26.8331  -41.5590 H         1 UNK         0.3172 
     96 H96        20.2655  -28.4955  -41.6325 H         1 UNK         0.0595 
     97 H97        18.3247  -28.5106  -40.1456 H         1 UNK         0.0839 
     98 H98        18.7360  -26.8502  -40.5289 H         1 UNK         0.0839 
     99 H99        19.1548  -27.5248  -38.9532 H         1 UNK         0.0839 
    100 H100       22.9159  -28.9712  -40.2696 H         1 UNK         0.2998 
    101 H101       22.3460  -31.1121  -38.3353 H         1 UNK         0.0822 
    102 H102       24.1946  -29.4429  -37.9916 H         1 UNK         0.0787 
    103 H103       24.7797  -31.0996  -38.0212 H         1 UNK         0.0787 
    104 H104       25.0099  -30.0682  -39.4246 H         1 UNK         0.0787 
    105 H105       22.6904  -30.9704  -41.7427 H         1 UNK         0.3055 
    106 H106       24.3469  -33.1742  -42.2557 H         1 UNK         0.1106 
    107 H107       23.8264  -31.3896  -43.9138 H         1 UNK         0.0828 
    108 H108       23.5272  -32.9828  -44.5829 H         1 UNK         0.0828 
    109 H109       22.1759  -31.9938  -44.0631 H         1 UNK         0.0828 
    110 H110       21.1142  -33.3504  -41.1287 H         1 UNK         0.2931 
    111 H111       20.5131  -35.9881  -42.2020 H         1 UNK         0.0412 
    112 H112       22.6623  -34.9747  -39.6342 H         1 UNK         0.3472 
    113 H113       22.7296  -36.5396  -38.8580 H         1 UNK         0.3472 
    114 H114       18.5594  -35.9934  -40.7328 H         1 UNK         0.0970 
    115 H115       19.1260  -34.5983  -39.8623 H         1 UNK         0.0970 
    116 H116       19.2977  -32.3459  -40.6731 H         1 UNK         0.0612 
    117 H117       17.5693  -32.3803  -40.4250 H         1 UNK         0.0612 
@<TRIPOS>BOND
     1    1    2 1    
     2    1   62 1    
     3    1   63 1    
     4    1   64 1    
     5    2    3 2    
     6    2    4 am   BACKBONE|DICT|INTERRES
     7    4    5 1    
     8    4   65 1    
     9    5    6 1    
    10    5   25 1    
    11    5   66 1    
    12    6    7 1    
    13    6   67 1    
    14    6   68 1    
    15    7    8 1    
    16    8    9 1    
    17    8   69 1    
    18    8   70 1    
    19    9   10 ar   
    20    9   14 ar   
    21   10   11 ar   
    22   10   71 1    
    23   11   12 ar   
    24   11   61 1    
    25   12   13 ar   
    26   12   72 1    
    27   13   14 ar   
    28   13   15 1    
    29   14   73 1    
    30   15   16 1    
    31   15   74 1    
    32   15   75 1    
    33   16   17 1    
    34   17   18 1    
    35   17   76 1    
    36   17   77 1    
    37   18   19 1    
    38   18   27 1    
    39   18   78 1    
    40   19   20 am   BACKBONE|DICT|INTERRES
    41   19   79 1    
    42   20   21 2    
    43   20   22 1    
    44   22   23 1    
    45   22   24 1    
    46   22   80 1    
    47   23   81 1    
    48   23   82 1    
    49   23   83 1    
    50   24   25 am   BACKBONE|DICT|INTERRES
    51   24   84 1    
    52   25   26 2    
    53   27   28 2    
    54   27   29 am   BACKBONE|DICT|INTERRES
    55   29   30 1    
    56   29   85 1    
    57   30   31 1    
    58   30   32 1    
    59   30   86 1    
    60   31   87 1    
    61   31   88 1    
    62   31   89 1    
    63   32   33 2    
    64   32   34 am   BACKBONE|DICT|INTERRES
    65   34   35 1    
    66   34   90 1    
    67   35   36 1    
    68   35   37 1    
    69   35   91 1    
    70   36   92 1    
    71   36   93 1    
    72   36   94 1    
    73   37   38 2    
    74   37   39 am   BACKBONE|DICT|INTERRES
    75   39   40 1    
    76   39   95 1    
    77   40   41 1    
    78   40   42 1    
    79   40   96 1    
    80   41   97 1    
    81   41   98 1    
    82   41   99 1    
    83   42   43 2    
    84   42   44 am   BACKBONE|DICT|INTERRES
    85   44   45 1    
    86   44  100 1    
    87   45   46 1    
    88   45   47 1    
    89   45  101 1    
    90   46  102 1    
    91   46  103 1    
    92   46  104 1    
    93   47   48 2    
    94   47   49 am   BACKBONE|DICT|INTERRES
    95   49   50 1    
    96   49  105 1    
    97   50   51 1    
    98   50   52 1    
    99   50  106 1    
   100   51  107 1    
   101   51  108 1    
   102   51  109 1    
   103   52   53 2    
   104   52   54 am   BACKBONE|DICT|INTERRES
   105   54   55 1    
   106   54  110 1    
   107   55   56 1    
   108   55   59 1    
   109   55  111 1    
   110   56   57 am   BACKBONE|DICT|INTERRES
   111   56   58 2    
   112   57  112 1    
   113   57  113 1    
   114   59   60 1    
   115   59  114 1    
   116   59  115 1    
   117   60   61 1    
   118   61  116 1    
   119   61  117 1    
@<TRIPOS>SUBSTRUCTURE
     1 UNK         1 GROUP             0       ****    0 ROOT    
