@<TRIPOS>MOLECULE
3R8
117   119    1
SMALL
USER_CHARGES


@<TRIPOS>ATOM
      1 CA         20.9861  -27.7517  -50.5776 C.3       0 UNK        -0.2013 
      2 C          21.2404  -28.3522  -49.2031 C.2       0 UNK         0.4866 
      3 O          21.9092  -29.3800  -49.0984 O.2       0 UNK        -0.5176 
      4 N          20.7164  -27.7174  -48.1518 N.am      1 UNK        -0.4884 
      5 CA         20.8473  -28.1285  -46.7547 C.3       1 UNK         0.0853 
      6 C6         19.9074  -29.3104  -46.3743 C.3       10 UNK        -0.0849 
      7 S7         18.1463  -29.0269  -46.7752 S.3       10 UNK        -0.2776 
      8 C8         17.3519  -30.4727  -46.0034 C.3       10 UNK         0.0316 
      9 C9         17.1289  -30.2865  -44.5080 C.ar      10 UNK        -0.0863 
     10 C10        17.7294  -31.1489  -43.5856 C.ar      10 UNK        -0.1009 
     11 C11        17.4876  -31.0009  -42.2153 C.ar      10 UNK        -0.0712 
     12 C12        16.6382  -29.9854  -41.7689 C.ar      10 UNK        -0.0894 
     13 C13        16.0464  -29.1080  -42.6798 C.ar      10 UNK        -0.0745 
     14 C14        16.2868  -29.2697  -44.0472 C.ar      10 UNK        -0.0972 
     15 C15        15.1481  -27.9827  -42.1943 C.3       10 UNK         0.0209 
     16 S16        16.0361  -26.3953  -42.1793 S.3       10 UNK        -0.2568 
     17 C17        16.9860  -26.4822  -40.6205 C.3       10 UNK        -0.0983 
     18 CA         18.4452  -26.9941  -40.7700 C.3       3 UNK         0.0876 
     19 N          19.1430  -26.3787  -41.9004 N.am      3 UNK        -0.4424 
     20 C          20.3551  -26.7247  -42.3478 C.2       2 UNK         0.4918 
     21 O          21.0636  -27.6012  -41.8460 O.2       2 UNK        -0.4875 
     22 CA         20.8534  -25.9675  -43.5802 C.3       2 UNK         0.0481 
     23 CB         22.1204  -25.1584  -43.2644 C.3       2 UNK        -0.1831 
     24 N          21.1266  -26.9499  -44.6261 N.am      2 UNK        -0.4498 
     25 C          20.6229  -26.8954  -45.8640 C.2       1 UNK         0.5027 
     26 O          19.9900  -25.9320  -46.3098 O.2       1 UNK        -0.4969 
     27 C          19.2199  -26.7520  -39.4601 C.2       3 UNK         0.5005 
     28 O          19.6201  -25.6131  -39.2064 O.2       3 UNK        -0.5279 
     29 N          19.4295  -27.8102  -38.6627 N.am      4 UNK        -0.4463 
     30 CA         20.1140  -27.8509  -37.3560 C.3       4 UNK         0.0283 
     31 CB         19.3862  -26.9754  -36.3170 C.3       4 UNK        -0.1875 
     32 C          21.6246  -27.5320  -37.3780 C.2       4 UNK         0.4949 
     33 O          22.3520  -28.0395  -36.5250 O.2       4 UNK        -0.5039 
     34 N          22.0829  -26.7377  -38.3536 N.am      5 UNK        -0.4663 
     35 CA         23.4858  -26.3883  -38.6058 C.3       5 UNK         0.0242 
     36 CB         23.5275  -25.1934  -39.5707 C.3       5 UNK        -0.1982 
     37 C          24.3335  -27.5569  -39.1466 C.2       5 UNK         0.5017 
     38 O          25.5582  -27.4400  -39.1861 O.2       5 UNK        -0.5012 
     39 N          23.6694  -28.6517  -39.5432 N.am      6 UNK        -0.4439 
     40 CA         24.2135  -29.9536  -39.9447 C.3       6 UNK         0.0297 
     41 CB         25.1460  -30.5431  -38.8654 C.3       6 UNK        -0.2006 
     42 C          24.8481  -29.9999  -41.3461 C.2       6 UNK         0.4892 
     43 O          25.3349  -31.0646  -41.7307 O.2       6 UNK        -0.5089 
     44 N          24.7911  -28.9016  -42.1150 N.am      7 UNK        -0.4243 
     45 CA         25.1937  -28.8681  -43.5247 C.3       7 UNK         0.0196 
     46 CB         25.2961  -27.4148  -44.0147 C.3       7 UNK        -0.2007 
     47 C          24.1766  -29.6697  -44.3484 C.2       7 UNK         0.5020 
     48 O          23.0286  -29.2368  -44.4736 O.2       7 UNK        -0.5147 
     49 N          24.5797  -30.8754  -44.7738 N.am      8 UNK        -0.4734 
     50 CA         23.7867  -31.9596  -45.3830 C.3       8 UNK         0.0238 
     51 CB         23.1791  -31.5269  -46.7284 C.3       8 UNK        -0.1912 
     52 C          22.7188  -32.5813  -44.4564 C.2       8 UNK         0.5038 
     53 O          22.4252  -33.7691  -44.5939 O.2       8 UNK        -0.5046 
     54 N          22.1848  -31.7874  -43.5223 N.am      9 UNK        -0.4200 
     55 CA         21.2961  -32.1841  -42.4254 C.3       9 UNK         0.0839 
     56 C          21.9401  -33.1887  -41.4211 C.2       9 UNK         0.5513 
     57 N          23.2543  -33.1855  -41.2263 N.am      9 UNK        -0.7519 
     58 O          21.2401  -34.0101  -40.8355 O.2       9 UNK        -0.4960 
     59 C59        20.7213  -30.9065  -41.7489 C.3       10 UNK        -0.0876 
     60 S60        19.5504  -31.1566  -40.3693 S.3       10 UNK        -0.2414 
     61 C61        18.1374  -31.9379  -41.2101 C.3       10 UNK         0.0169 
     62 H62        21.9310  -27.4981  -51.0573 H         1 UNK         0.0903 
     63 H63        20.4647  -28.4703  -51.2094 H         1 UNK         0.0903 
     64 H64        20.3801  -26.8475  -50.5217 H         1 UNK         0.0903 
     65 H65        20.1940  -26.8568  -48.2665 H         1 UNK         0.3096 
     66 H66        21.8831  -28.4364  -46.6049 H         1 UNK         0.1121 
     67 H67        20.2201  -30.2082  -46.9081 H         1 UNK         0.0849 
     68 H68        20.0016  -29.5503  -45.3131 H         1 UNK         0.0849 
     69 H69        16.3844  -30.6342  -46.4809 H         1 UNK         0.0865 
     70 H70        17.9434  -31.3666  -46.2081 H         1 UNK         0.0865 
     71 H71        18.3793  -31.9399  -43.9336 H         1 UNK         0.1346 
     72 H72        16.4520  -29.8701  -40.7099 H         1 UNK         0.1412 
     73 H73        15.8239  -28.5959  -44.7557 H         1 UNK         0.1426 
     74 H74        14.7446  -28.1983  -41.2038 H         1 UNK         0.0716 
     75 H75        14.2877  -27.8961  -42.8595 H         1 UNK         0.0716 
     76 H76        16.4425  -27.0975  -39.9014 H         1 UNK         0.0695 
     77 H77        16.9805  -25.4712  -40.2070 H         1 UNK         0.0695 
     78 H78        18.4220  -28.0670  -40.9660 H         1 UNK         0.0983 
     79 H79        18.6332  -25.6486  -42.3755 H         1 UNK         0.3095 
     80 H80        20.0769  -25.2696  -43.9007 H         1 UNK         0.0454 
     81 H81        22.8975  -25.7801  -42.8232 H         1 UNK         0.0851 
     82 H82        21.9015  -24.3612  -42.5533 H         1 UNK         0.0851 
     83 H83        22.5289  -24.6916  -44.1606 H         1 UNK         0.0851 
     84 H84        21.6463  -27.7752  -44.3356 H         1 UNK         0.2976 
     85 H85        19.1034  -28.7109  -38.9885 H         1 UNK         0.3116 
     86 H86        20.0310  -28.8864  -37.0216 H         1 UNK         0.0646 
     87 H87        18.3332  -27.2449  -36.2374 H         1 UNK         0.0847 
     88 H88        19.8272  -27.0999  -35.3271 H         1 UNK         0.0847 
     89 H89        19.4441  -25.9147  -36.5629 H         1 UNK         0.0847 
     90 H90        21.3846  -26.3044  -38.9517 H         1 UNK         0.3040 
     91 H91        23.9347  -26.0830  -37.6581 H         1 UNK         0.1015 
     92 H92        23.0436  -25.4315  -40.5165 H         1 UNK         0.0786 
     93 H93        24.5541  -24.8964  -39.7903 H         1 UNK         0.0786 
     94 H94        23.0232  -24.3246  -39.1470 H         1 UNK         0.0786 
     95 H95        22.6606  -28.5923  -39.5140 H         1 UNK         0.3172 
     96 H96        23.3486  -30.6142  -39.9929 H         1 UNK         0.0595 
     97 H97        26.0889  -29.9997  -38.7991 H         1 UNK         0.0839 
     98 H98        25.3905  -31.5828  -39.0871 H         1 UNK         0.0839 
     99 H99        24.6766  -30.5262  -37.8818 H         1 UNK         0.0839 
    100 H100       24.3358  -28.0806  -41.7449 H         1 UNK         0.2998 
    101 H101       26.1818  -29.3250  -43.6135 H         1 UNK         0.0822 
    102 H102       25.7359  -27.3777  -45.0120 H         1 UNK         0.0787 
    103 H103       24.3211  -26.9360  -44.0817 H         1 UNK         0.0787 
    104 H104       25.9265  -26.8133  -43.3594 H         1 UNK         0.0787 
    105 H105       25.5267  -31.1415  -44.5370 H         1 UNK         0.3055 
    106 H106       24.4980  -32.7606  -45.5925 H         1 UNK         0.1106 
    107 H107       23.9475  -31.1836  -47.4209 H         1 UNK         0.0828 
    108 H108       22.6568  -32.3557  -47.2080 H         1 UNK         0.0828 
    109 H109       22.4602  -30.7211  -46.6059 H         1 UNK         0.0828 
    110 H110       22.4557  -30.8106  -43.5567 H         1 UNK         0.2931 
    111 H111       20.4649  -32.7131  -42.8928 H         1 UNK         0.0412 
    112 H112       23.6503  -33.8580  -40.5891 H         1 UNK         0.3472 
    113 H113       23.8615  -32.5217  -41.6902 H         1 UNK         0.3472 
    114 H114       21.5359  -30.2901  -41.3702 H         1 UNK         0.0970 
    115 H115       20.2290  -30.2830  -42.4969 H         1 UNK         0.0970 
    116 H116       17.4020  -32.2276  -40.4582 H         1 UNK         0.0612 
    117 H117       18.4575  -32.8642  -41.6884 H         1 UNK         0.0612 
@<TRIPOS>BOND
     1    1    2 1    
     2    1   62 1    
     3    1   63 1    
     4    1   64 1    
     5    2    3 2    
     6    2    4 am   BACKBONE|DICT|INTERRES
     7    4    5 1    
     8    4   65 1    
     9    5    6 1    
    10    5   25 1    
    11    5   66 1    
    12    6    7 1    
    13    6   67 1    
    14    6   68 1    
    15    7    8 1    
    16    8    9 1    
    17    8   69 1    
    18    8   70 1    
    19    9   10 ar   
    20    9   14 ar   
    21   10   11 ar   
    22   10   71 1    
    23   11   12 ar   
    24   11   61 1    
    25   12   13 ar   
    26   12   72 1    
    27   13   14 ar   
    28   13   15 1    
    29   14   73 1    
    30   15   16 1    
    31   15   74 1    
    32   15   75 1    
    33   16   17 1    
    34   17   18 1    
    35   17   76 1    
    36   17   77 1    
    37   18   19 1    
    38   18   27 1    
    39   18   78 1    
    40   19   20 am   BACKBONE|DICT|INTERRES
    41   19   79 1    
    42   20   21 2    
    43   20   22 1    
    44   22   23 1    
    45   22   24 1    
    46   22   80 1    
    47   23   81 1    
    48   23   82 1    
    49   23   83 1    
    50   24   25 am   BACKBONE|DICT|INTERRES
    51   24   84 1    
    52   25   26 2    
    53   27   28 2    
    54   27   29 am   BACKBONE|DICT|INTERRES
    55   29   30 1    
    56   29   85 1    
    57   30   31 1    
    58   30   32 1    
    59   30   86 1    
    60   31   87 1    
    61   31   88 1    
    62   31   89 1    
    63   32   33 2    
    64   32   34 am   BACKBONE|DICT|INTERRES
    65   34   35 1    
    66   34   90 1    
    67   35   36 1    
    68   35   37 1    
    69   35   91 1    
    70   36   92 1    
    71   36   93 1    
    72   36   94 1    
    73   37   38 2    
    74   37   39 am   BACKBONE|DICT|INTERRES
    75   39   40 1    
    76   39   95 1    
    77   40   41 1    
    78   40   42 1    
    79   40   96 1    
    80   41   97 1    
    81   41   98 1    
    82   41   99 1    
    83   42   43 2    
    84   42   44 am   BACKBONE|DICT|INTERRES
    85   44   45 1    
    86   44  100 1    
    87   45   46 1    
    88   45   47 1    
    89   45  101 1    
    90   46  102 1    
    91   46  103 1    
    92   46  104 1    
    93   47   48 2    
    94   47   49 am   BACKBONE|DICT|INTERRES
    95   49   50 1    
    96   49  105 1    
    97   50   51 1    
    98   50   52 1    
    99   50  106 1    
   100   51  107 1    
   101   51  108 1    
   102   51  109 1    
   103   52   53 2    
   104   52   54 am   BACKBONE|DICT|INTERRES
   105   54   55 1    
   106   54  110 1    
   107   55   56 1    
   108   55   59 1    
   109   55  111 1    
   110   56   57 am   BACKBONE|DICT|INTERRES
   111   56   58 2    
   112   57  112 1    
   113   57  113 1    
   114   59   60 1    
   115   59  114 1    
   116   59  115 1    
   117   60   61 1    
   118   61  116 1    
   119   61  117 1    
@<TRIPOS>SUBSTRUCTURE
     1 UNK         1 GROUP             0       ****    0 ROOT    
