@<TRIPOS>MOLECULE
3R8
117   119    1
SMALL
USER_CHARGES


@<TRIPOS>ATOM
      1 CA         14.7339  -22.6176  -41.8428 C.3       0 UNK        -0.2013 
      2 C          15.3013  -23.0672  -43.1807 C.2       0 UNK         0.4866 
      3 O          15.3824  -22.2666  -44.1124 O.2       0 UNK        -0.5176 
      4 N          15.6978  -24.3426  -43.2837 N.am      1 UNK        -0.4884 
      5 CA         16.2760  -24.9491  -44.4916 C.3       1 UNK         0.0853 
      6 C6         16.0731  -26.4830  -44.5062 C.3       10 UNK        -0.0849 
      7 S7         16.8206  -27.3525  -43.0802 S.3       10 UNK        -0.2776 
      8 C8         16.4202  -29.0867  -43.4895 C.3       10 UNK         0.0316 
      9 C9         17.5679  -29.8430  -44.1554 C.ar      10 UNK        -0.0863 
     10 C10        17.8229  -31.1665  -43.7878 C.ar      10 UNK        -0.1009 
     11 C11        18.8590  -31.8867  -44.3873 C.ar      10 UNK        -0.0712 
     12 C12        19.6590  -31.2673  -45.3541 C.ar      10 UNK        -0.0894 
     13 C13        19.4230  -29.9420  -45.7389 C.ar      10 UNK        -0.0745 
     14 C14        18.3583  -29.2505  -45.1458 C.ar      10 UNK        -0.0972 
     15 C15        20.3159  -29.3078  -46.8122 C.3       10 UNK         0.0209 
     16 S16        20.1876  -27.4843  -46.9606 S.3       10 UNK        -0.2568 
     17 C17        21.8470  -26.8697  -46.4993 C.3       10 UNK        -0.0983 
     18 CA         21.9553  -26.1961  -45.1029 C.3       3 UNK         0.0876 
     19 N          20.8760  -25.2441  -44.8142 N.am      3 UNK        -0.4424 
     20 C          20.9270  -24.3167  -43.8485 C.2       2 UNK         0.4918 
     21 O          21.8880  -24.1773  -43.0914 O.2       2 UNK        -0.4875 
     22 CA         19.7354  -23.3549  -43.6946 C.3       2 UNK         0.0481 
     23 CB         19.8363  -22.1893  -44.6978 C.3       2 UNK        -0.1831 
     24 N          18.4033  -23.9720  -43.7193 N.am      2 UNK        -0.4498 
     25 C          17.7487  -24.5455  -44.7400 C.2       1 UNK         0.5027 
     26 O          18.2506  -24.7458  -45.8464 O.2       1 UNK        -0.4969 
     27 C          22.1500  -27.2173  -43.9688 C.2       3 UNK         0.5005 
     28 O          23.2538  -27.3236  -43.4289 O.2       3 UNK        -0.5279 
     29 N          21.0815  -27.9636  -43.6495 N.am      4 UNK        -0.4463 
     30 CA         20.9858  -29.0030  -42.6119 C.3       4 UNK         0.0283 
     31 CB         20.8933  -28.3428  -41.2219 C.3       4 UNK        -0.1875 
     32 C          22.0836  -30.0883  -42.6745 C.2       4 UNK         0.4949 
     33 O          22.3925  -30.6896  -41.6469 O.2       4 UNK        -0.5039 
     34 N          22.6883  -30.2792  -43.8583 N.am      5 UNK        -0.4663 
     35 CA         23.8901  -31.0801  -44.1297 C.3       5 UNK         0.0242 
     36 CB         23.5600  -32.5841  -44.0818 C.3       5 UNK        -0.1982 
     37 C          25.0823  -30.6960  -43.2264 C.2       5 UNK         0.5017 
     38 O          25.7692  -31.5776  -42.7098 O.2       5 UNK        -0.5012 
     39 N          25.2766  -29.3824  -43.0223 N.am      6 UNK        -0.4439 
     40 CA         26.2393  -28.7670  -42.0985 C.3       6 UNK         0.0297 
     41 CB         27.6967  -29.0750  -42.5057 C.3       6 UNK        -0.2006 
     42 C          25.9250  -29.1154  -40.6300 C.2       6 UNK         0.4892 
     43 O          26.8238  -29.4714  -39.8667 O.2       6 UNK        -0.5089 
     44 N          24.6327  -29.0147  -40.2866 N.am      7 UNK        -0.4243 
     45 CA         23.9992  -29.3031  -38.9931 C.3       7 UNK         0.0196 
     46 CB         24.6104  -28.4531  -37.8592 C.3       7 UNK        -0.2007 
     47 C          23.9209  -30.7979  -38.6240 C.2       7 UNK         0.5020 
     48 O          23.4447  -31.1123  -37.5323 O.2       7 UNK        -0.5147 
     49 N          24.3269  -31.7041  -39.5253 N.am      8 UNK        -0.4734 
     50 CA         24.2269  -33.1559  -39.3379 C.3       8 UNK         0.0238 
     51 CB         25.0565  -33.8776  -40.4103 C.3       8 UNK        -0.1912 
     52 C          22.7765  -33.6739  -39.3291 C.2       8 UNK         0.5038 
     53 O          22.5090  -34.6796  -38.6699 O.2       8 UNK        -0.5046 
     54 N          21.8701  -32.9764  -40.0272 N.am      9 UNK        -0.4200 
     55 CA         20.4195  -33.2274  -40.0038 C.3       9 UNK         0.0839 
     56 C          19.7024  -32.6469  -38.7484 C.2       9 UNK         0.5513 
     57 N          20.3783  -31.9430  -37.8462 N.am      9 UNK        -0.7519 
     58 O          18.5022  -32.8488  -38.5831 O.2       9 UNK        -0.4960 
     59 C59        19.7234  -32.7617  -41.3115 C.3       10 UNK        -0.0876 
     60 S60        20.4178  -33.5599  -42.7977 S.3       10 UNK        -0.2414 
     61 C61        19.0838  -33.3460  -44.0144 C.3       10 UNK         0.0169 
     62 H62        13.7124  -22.2603  -41.9700 H         1 UNK         0.0903 
     63 H63        14.7213  -23.4261  -41.1121 H         1 UNK         0.0903 
     64 H64        15.3319  -21.8023  -41.4364 H         1 UNK         0.0903 
     65 H65        15.6083  -24.9645  -42.4911 H         1 UNK         0.3096 
     66 H66        15.7244  -24.5531  -45.3479 H         1 UNK         0.1121 
     67 H67        15.0030  -26.6972  -44.5016 H         1 UNK         0.0849 
     68 H68        16.4418  -26.9021  -45.4426 H         1 UNK         0.0849 
     69 H69        16.1389  -29.5841  -42.5599 H         1 UNK         0.0865 
     70 H70        15.5407  -29.1309  -44.1332 H         1 UNK         0.0865 
     71 H71        17.2053  -31.6449  -43.0399 H         1 UNK         0.1346 
     72 H72        20.4634  -31.8258  -45.8133 H         1 UNK         0.1412 
     73 H73        18.1435  -28.2388  -45.4459 H         1 UNK         0.1426 
     74 H74        20.0431  -29.7405  -47.7755 H         1 UNK         0.0716 
     75 H75        21.3534  -29.5930  -46.6374 H         1 UNK         0.0716 
     76 H76        22.1121  -26.1287  -47.2550 H         1 UNK         0.0695 
     77 H77        22.5907  -27.6602  -46.6151 H         1 UNK         0.0695 
     78 H78        22.8785  -25.6117  -45.1238 H         1 UNK         0.0983 
     79 H79        20.0468  -25.2848  -45.4011 H         1 UNK         0.3095 
     80 H80        19.8213  -22.9210  -42.6970 H         1 UNK         0.0454 
     81 H81        19.0450  -21.4574  -44.5360 H         1 UNK         0.0851 
     82 H82        19.7707  -22.5304  -45.7313 H         1 UNK         0.0851 
     83 H83        20.7875  -21.6662  -44.5913 H         1 UNK         0.0851 
     84 H84        17.8906  -23.9068  -42.8510 H         1 UNK         0.2976 
     85 H85        20.2378  -27.8148  -44.1871 H         1 UNK         0.3116 
     86 H86        20.0468  -29.5269  -42.7828 H         1 UNK         0.0646 
     87 H87        20.0562  -27.6461  -41.1747 H         1 UNK         0.0847 
     88 H88        20.7341  -29.0848  -40.4383 H         1 UNK         0.0847 
     89 H89        21.8001  -27.7899  -40.9770 H         1 UNK         0.0847 
     90 H90        22.3498  -29.7251  -44.6302 H         1 UNK         0.3040 
     91 H91        24.1999  -30.8448  -45.1491 H         1 UNK         0.1015 
     92 H92        24.4221  -33.1878  -44.3679 H         1 UNK         0.0786 
     93 H93        22.7487  -32.8335  -44.7653 H         1 UNK         0.0786 
     94 H94        23.2614  -32.8940  -43.0812 H         1 UNK         0.0786 
     95 H95        24.6056  -28.7341  -43.4293 H         1 UNK         0.3172 
     96 H96        26.0971  -27.6891  -42.1909 H         1 UNK         0.0595 
     97 H97        27.9442  -30.1289  -42.3763 H         1 UNK         0.0839 
     98 H98        28.3980  -28.5035  -41.8966 H         1 UNK         0.0839 
     99 H99        27.8826  -28.8112  -43.5466 H         1 UNK         0.0839 
    100 H100       23.9879  -28.7658  -41.0245 H         1 UNK         0.2998 
    101 H101       22.9620  -28.9861  -39.1048 H         1 UNK         0.0822 
    102 H102       24.0245  -28.5442  -36.9437 H         1 UNK         0.0787 
    103 H103       24.6330  -27.3957  -38.1227 H         1 UNK         0.0787 
    104 H104       25.6279  -28.7633  -37.6207 H         1 UNK         0.0787 
    105 H105       24.6637  -31.3777  -40.4217 H         1 UNK         0.3055 
    106 H106       24.6579  -33.3933  -38.3626 H         1 UNK         0.1106 
    107 H107       26.0948  -33.5455  -40.4014 H         1 UNK         0.0828 
    108 H108       25.0581  -34.9552  -40.2417 H         1 UNK         0.0828 
    109 H109       24.6600  -33.7068  -41.4103 H         1 UNK         0.0828 
    110 H110       22.1712  -32.1615  -40.5581 H         1 UNK         0.2931 
    111 H111       20.2764  -34.3079  -39.9424 H         1 UNK         0.0412 
    112 H112       19.8909  -31.5839  -37.0406 H         1 UNK         0.3472 
    113 H113       21.3731  -31.7882  -37.9405 H         1 UNK         0.3472 
    114 H114       18.6569  -32.9906  -41.2729 H         1 UNK         0.0970 
    115 H115       19.7991  -31.6796  -41.4231 H         1 UNK         0.0970 
    116 H116       19.3380  -33.9131  -44.9109 H         1 UNK         0.0612 
    117 H117       18.1663  -33.7909  -43.6261 H         1 UNK         0.0612 
@<TRIPOS>BOND
     1    1    2 1    
     2    1   62 1    
     3    1   63 1    
     4    1   64 1    
     5    2    3 2    
     6    2    4 am   BACKBONE|DICT|INTERRES
     7    4    5 1    
     8    4   65 1    
     9    5    6 1    
    10    5   25 1    
    11    5   66 1    
    12    6    7 1    
    13    6   67 1    
    14    6   68 1    
    15    7    8 1    
    16    8    9 1    
    17    8   69 1    
    18    8   70 1    
    19    9   10 ar   
    20    9   14 ar   
    21   10   11 ar   
    22   10   71 1    
    23   11   12 ar   
    24   11   61 1    
    25   12   13 ar   
    26   12   72 1    
    27   13   14 ar   
    28   13   15 1    
    29   14   73 1    
    30   15   16 1    
    31   15   74 1    
    32   15   75 1    
    33   16   17 1    
    34   17   18 1    
    35   17   76 1    
    36   17   77 1    
    37   18   19 1    
    38   18   27 1    
    39   18   78 1    
    40   19   20 am   BACKBONE|DICT|INTERRES
    41   19   79 1    
    42   20   21 2    
    43   20   22 1    
    44   22   23 1    
    45   22   24 1    
    46   22   80 1    
    47   23   81 1    
    48   23   82 1    
    49   23   83 1    
    50   24   25 am   BACKBONE|DICT|INTERRES
    51   24   84 1    
    52   25   26 2    
    53   27   28 2    
    54   27   29 am   BACKBONE|DICT|INTERRES
    55   29   30 1    
    56   29   85 1    
    57   30   31 1    
    58   30   32 1    
    59   30   86 1    
    60   31   87 1    
    61   31   88 1    
    62   31   89 1    
    63   32   33 2    
    64   32   34 am   BACKBONE|DICT|INTERRES
    65   34   35 1    
    66   34   90 1    
    67   35   36 1    
    68   35   37 1    
    69   35   91 1    
    70   36   92 1    
    71   36   93 1    
    72   36   94 1    
    73   37   38 2    
    74   37   39 am   BACKBONE|DICT|INTERRES
    75   39   40 1    
    76   39   95 1    
    77   40   41 1    
    78   40   42 1    
    79   40   96 1    
    80   41   97 1    
    81   41   98 1    
    82   41   99 1    
    83   42   43 2    
    84   42   44 am   BACKBONE|DICT|INTERRES
    85   44   45 1    
    86   44  100 1    
    87   45   46 1    
    88   45   47 1    
    89   45  101 1    
    90   46  102 1    
    91   46  103 1    
    92   46  104 1    
    93   47   48 2    
    94   47   49 am   BACKBONE|DICT|INTERRES
    95   49   50 1    
    96   49  105 1    
    97   50   51 1    
    98   50   52 1    
    99   50  106 1    
   100   51  107 1    
   101   51  108 1    
   102   51  109 1    
   103   52   53 2    
   104   52   54 am   BACKBONE|DICT|INTERRES
   105   54   55 1    
   106   54  110 1    
   107   55   56 1    
   108   55   59 1    
   109   55  111 1    
   110   56   57 am   BACKBONE|DICT|INTERRES
   111   56   58 2    
   112   57  112 1    
   113   57  113 1    
   114   59   60 1    
   115   59  114 1    
   116   59  115 1    
   117   60   61 1    
   118   61  116 1    
   119   61  117 1    
@<TRIPOS>SUBSTRUCTURE
     1 UNK         1 GROUP             0       ****    0 ROOT    
