@<TRIPOS>MOLECULE
3R8
117   119    1
SMALL
USER_CHARGES


@<TRIPOS>ATOM
      1 CA         16.5821  -24.7667  -39.3955 C.3       0 UNK        -0.2013 
      2 C          16.6123  -24.7322  -40.9163 C.2       0 UNK         0.4866 
      3 O          16.5303  -23.6539  -41.5060 O.2       0 UNK        -0.5176 
      4 N          16.7241  -25.9046  -41.5542 N.am      1 UNK        -0.4884 
      5 CA         16.8744  -26.0552  -43.0065 C.3       1 UNK         0.0853 
      6 C6         16.4265  -27.4672  -43.4665 C.3       10 UNK        -0.0849 
      7 S7         15.7534  -27.4457  -45.1600 S.3       10 UNK        -0.2776 
      8 C8         15.4105  -29.2194  -45.4239 C.3       10 UNK         0.0316 
      9 C9         16.6497  -30.1020  -45.5826 C.ar      10 UNK        -0.0863 
     10 C10        16.5692  -31.4515  -45.2238 C.ar      10 UNK        -0.1009 
     11 C11        17.6531  -32.3144  -45.4143 C.ar      10 UNK        -0.0712 
     12 C12        18.8334  -31.8106  -45.9719 C.ar      10 UNK        -0.0894 
     13 C13        18.9432  -30.4583  -46.3105 C.ar      10 UNK        -0.0745 
     14 C14        17.8442  -29.6151  -46.1277 C.ar      10 UNK        -0.0972 
     15 C15        20.2322  -29.9023  -46.9040 C.3       10 UNK         0.0209 
     16 S16        21.7327  -30.3724  -45.9784 S.3       10 UNK        -0.2568 
     17 C17        21.3980  -29.7820  -44.2850 C.3       10 UNK        -0.0983 
     18 CA         21.8270  -28.3063  -44.0843 C.3       3 UNK         0.0876 
     19 N          20.8133  -27.3821  -44.5953 N.am      3 UNK        -0.4424 
     20 C          21.0455  -26.1172  -44.9672 C.2       2 UNK         0.4918 
     21 O          22.1591  -25.5928  -44.9461 O.2       2 UNK        -0.4875 
     22 CA         19.8232  -25.2839  -45.4048 C.3       2 UNK         0.0481 
     23 CB         19.6629  -25.3424  -46.9322 C.3       2 UNK        -0.1831 
     24 N          18.5470  -25.6527  -44.7715 N.am      2 UNK        -0.4498 
     25 C          18.3183  -25.7268  -43.4521 C.2       1 UNK         0.5027 
     26 O          19.2062  -25.5813  -42.6100 O.2       1 UNK        -0.4969 
     27 C          22.2131  -28.0381  -42.6131 C.2       3 UNK         0.5005 
     28 O          23.1817  -28.6463  -42.1520 O.2       3 UNK        -0.5279 
     29 N          21.5021  -27.1638  -41.8787 N.am      4 UNK        -0.4463 
     30 CA         21.7814  -26.8399  -40.4679 C.3       4 UNK         0.0283 
     31 CB         20.6698  -25.9452  -39.8980 C.3       4 UNK        -0.1875 
     32 C          23.1612  -26.2048  -40.2225 C.2       4 UNK         0.4949 
     33 O          23.6965  -26.3325  -39.1219 O.2       4 UNK        -0.5039 
     34 N          23.7280  -25.5692  -41.2558 N.am      5 UNK        -0.4663 
     35 CA         25.0961  -25.0487  -41.2606 C.3       5 UNK         0.0242 
     36 CB         25.2277  -24.0249  -42.4004 C.3       5 UNK        -0.1982 
     37 C          26.1705  -26.1466  -41.3986 C.2       5 UNK         0.5017 
     38 O          27.3376  -25.8663  -41.1223 O.2       5 UNK        -0.5012 
     39 N          25.7774  -27.3502  -41.8405 N.am      6 UNK        -0.4439 
     40 CA         26.6646  -28.4817  -42.1022 C.3       6 UNK         0.0297 
     41 CB         26.4100  -29.0156  -43.5241 C.3       6 UNK        -0.2006 
     42 C          26.4829  -29.5884  -41.0544 C.2       6 UNK         0.4892 
     43 O          27.4507  -29.9298  -40.3732 O.2       6 UNK        -0.5089 
     44 N          25.2674  -30.1459  -40.9582 N.am      7 UNK        -0.4243 
     45 CA         24.9703  -31.3308  -40.1422 C.3       7 UNK         0.0196 
     46 CB         25.4591  -32.5970  -40.8773 C.3       7 UNK        -0.2007 
     47 C          23.4904  -31.4776  -39.7457 C.2       7 UNK         0.5020 
     48 O          23.1621  -32.4475  -39.0614 O.2       7 UNK        -0.5147 
     49 N          22.6088  -30.5705  -40.1970 N.am      8 UNK        -0.4734 
     50 CA         21.1510  -30.5718  -39.9713 C.3       8 UNK         0.0238 
     51 CB         20.8276  -30.2999  -38.4862 C.3       8 UNK        -0.1912 
     52 C          20.4386  -31.8273  -40.5148 C.2       8 UNK         0.5038 
     53 O          19.4072  -32.2312  -39.9755 O.2       8 UNK        -0.5046 
     54 N          21.0117  -32.4184  -41.5719 N.am      9 UNK        -0.4200 
     55 CA         20.6041  -33.6926  -42.1811 C.3       9 UNK         0.0839 
     56 C          20.8854  -34.9479  -41.2951 C.2       9 UNK         0.5513 
     57 N          21.6809  -34.8515  -40.2346 N.am      9 UNK        -0.7519 
     58 O          20.4007  -36.0387  -41.5839 O.2       9 UNK        -0.4960 
     59 C59        19.1564  -33.6435  -42.7566 C.3       10 UNK        -0.0876 
     60 S60        19.0059  -34.5485  -44.3333 S.3       10 UNK        -0.2414 
     61 C61        17.5084  -33.7920  -45.0522 C.3       10 UNK         0.0169 
     62 H62        16.6312  -25.7844  -39.0087 H         1 UNK         0.0903 
     63 H63        17.4280  -24.2103  -38.9924 H         1 UNK         0.0903 
     64 H64        15.6648  -24.3079  -39.0271 H         1 UNK         0.0903 
     65 H65        16.8165  -26.7524  -41.0135 H         1 UNK         0.3096 
     66 H66        16.2219  -25.3126  -43.4727 H         1 UNK         0.1121 
     67 H67        17.2350  -28.1975  -43.3891 H         1 UNK         0.0849 
     68 H68        15.6283  -27.8381  -42.8209 H         1 UNK         0.0849 
     69 H69        14.7929  -29.5793  -44.5993 H         1 UNK         0.0865 
     70 H70        14.8052  -29.3206  -46.3256 H         1 UNK         0.0865 
     71 H71        15.6462  -31.8397  -44.8142 H         1 UNK         0.1346 
     72 H72        19.6746  -32.4689  -46.1389 H         1 UNK         0.1412 
     73 H73        17.9178  -28.5800  -46.4295 H         1 UNK         0.1426 
     74 H74        20.1938  -28.8146  -46.9715 H         1 UNK         0.0716 
     75 H75        20.3280  -30.2667  -47.9275 H         1 UNK         0.0716 
     76 H76        20.3515  -29.9366  -44.0178 H         1 UNK         0.0695 
     77 H77        21.9656  -30.4503  -43.6352 H         1 UNK         0.0695 
     78 H78        22.7481  -28.1421  -44.6488 H         1 UNK         0.0983 
     79 H79        19.8668  -27.7276  -44.6343 H         1 UNK         0.3095 
     80 H80        20.0282  -24.2486  -45.1258 H         1 UNK         0.0454 
     81 H81        20.5885  -25.0570  -47.4344 H         1 UNK         0.0851 
     82 H82        19.4027  -26.3446  -47.2744 H         1 UNK         0.0851 
     83 H83        18.8879  -24.6580  -47.2773 H         1 UNK         0.0851 
     84 H84        17.7669  -25.8180  -45.3938 H         1 UNK         0.2976 
     85 H85        20.7196  -26.6687  -42.3019 H         1 UNK         0.3116 
     86 H86        21.7712  -27.7723  -39.9053 H         1 UNK         0.0646 
     87 H87        20.8341  -25.7439  -38.8386 H         1 UNK         0.0847 
     88 H88        19.6920  -26.4185  -39.9878 H         1 UNK         0.0847 
     89 H89        20.6259  -24.9824  -40.4083 H         1 UNK         0.0847 
     90 H90        23.2077  -25.4985  -42.1194 H         1 UNK         0.3040 
     91 H91        25.2774  -24.5349  -40.3136 H         1 UNK         0.1015 
     92 H92        24.5232  -23.2019  -42.2780 H         1 UNK         0.0786 
     93 H93        25.0465  -24.4803  -43.3752 H         1 UNK         0.0786 
     94 H94        26.2284  -23.5910  -42.4238 H         1 UNK         0.0786 
     95 H95        24.7866  -27.5178  -41.9778 H         1 UNK         0.3172 
     96 H96        27.7079  -28.1617  -42.0596 H         1 UNK         0.0595 
     97 H97        27.0417  -29.8796  -43.7349 H         1 UNK         0.0839 
     98 H98        26.6395  -28.2584  -44.2740 H         1 UNK         0.0839 
     99 H99        25.3750  -29.3249  -43.6730 H         1 UNK         0.0839 
    100 H100       24.5188  -29.7712  -41.5338 H         1 UNK         0.2998 
    101 H101       25.5169  -31.2463  -39.2004 H         1 UNK         0.0822 
    102 H102       24.9605  -32.7182  -41.8396 H         1 UNK         0.0787 
    103 H103       26.5333  -32.5653  -41.0594 H         1 UNK         0.0787 
    104 H104       25.2648  -33.4974  -40.2926 H         1 UNK         0.0787 
    105 H105       22.9464  -29.8121  -40.7836 H         1 UNK         0.3055 
    106 H106       20.7407  -29.7456  -40.5520 H         1 UNK         0.1106 
    107 H107       21.1214  -31.1349  -37.8494 H         1 UNK         0.0828 
    108 H108       21.3367  -29.4078  -38.1225 H         1 UNK         0.0828 
    109 H109       19.7582  -30.1425  -38.3402 H         1 UNK         0.0828 
    110 H110       21.8720  -32.0254  -41.9220 H         1 UNK         0.2931 
    111 H111       21.2917  -33.7956  -43.0215 H         1 UNK         0.0412 
    112 H112       21.8581  -35.6754  -39.6821 H         1 UNK         0.3472 
    113 H113       22.0917  -33.9670  -39.9584 H         1 UNK         0.3472 
    114 H114       18.4274  -34.0270  -42.0404 H         1 UNK         0.0970 
    115 H115       18.8663  -32.6087  -42.9444 H         1 UNK         0.0970 
    116 H116       17.2440  -34.3422  -45.9559 H         1 UNK         0.0612 
    117 H117       16.6845  -33.9348  -44.3511 H         1 UNK         0.0612 
@<TRIPOS>BOND
     1    1    2 1    
     2    1   62 1    
     3    1   63 1    
     4    1   64 1    
     5    2    3 2    
     6    2    4 am   BACKBONE|DICT|INTERRES
     7    4    5 1    
     8    4   65 1    
     9    5    6 1    
    10    5   25 1    
    11    5   66 1    
    12    6    7 1    
    13    6   67 1    
    14    6   68 1    
    15    7    8 1    
    16    8    9 1    
    17    8   69 1    
    18    8   70 1    
    19    9   10 ar   
    20    9   14 ar   
    21   10   11 ar   
    22   10   71 1    
    23   11   12 ar   
    24   11   61 1    
    25   12   13 ar   
    26   12   72 1    
    27   13   14 ar   
    28   13   15 1    
    29   14   73 1    
    30   15   16 1    
    31   15   74 1    
    32   15   75 1    
    33   16   17 1    
    34   17   18 1    
    35   17   76 1    
    36   17   77 1    
    37   18   19 1    
    38   18   27 1    
    39   18   78 1    
    40   19   20 am   BACKBONE|DICT|INTERRES
    41   19   79 1    
    42   20   21 2    
    43   20   22 1    
    44   22   23 1    
    45   22   24 1    
    46   22   80 1    
    47   23   81 1    
    48   23   82 1    
    49   23   83 1    
    50   24   25 am   BACKBONE|DICT|INTERRES
    51   24   84 1    
    52   25   26 2    
    53   27   28 2    
    54   27   29 am   BACKBONE|DICT|INTERRES
    55   29   30 1    
    56   29   85 1    
    57   30   31 1    
    58   30   32 1    
    59   30   86 1    
    60   31   87 1    
    61   31   88 1    
    62   31   89 1    
    63   32   33 2    
    64   32   34 am   BACKBONE|DICT|INTERRES
    65   34   35 1    
    66   34   90 1    
    67   35   36 1    
    68   35   37 1    
    69   35   91 1    
    70   36   92 1    
    71   36   93 1    
    72   36   94 1    
    73   37   38 2    
    74   37   39 am   BACKBONE|DICT|INTERRES
    75   39   40 1    
    76   39   95 1    
    77   40   41 1    
    78   40   42 1    
    79   40   96 1    
    80   41   97 1    
    81   41   98 1    
    82   41   99 1    
    83   42   43 2    
    84   42   44 am   BACKBONE|DICT|INTERRES
    85   44   45 1    
    86   44  100 1    
    87   45   46 1    
    88   45   47 1    
    89   45  101 1    
    90   46  102 1    
    91   46  103 1    
    92   46  104 1    
    93   47   48 2    
    94   47   49 am   BACKBONE|DICT|INTERRES
    95   49   50 1    
    96   49  105 1    
    97   50   51 1    
    98   50   52 1    
    99   50  106 1    
   100   51  107 1    
   101   51  108 1    
   102   51  109 1    
   103   52   53 2    
   104   52   54 am   BACKBONE|DICT|INTERRES
   105   54   55 1    
   106   54  110 1    
   107   55   56 1    
   108   55   59 1    
   109   55  111 1    
   110   56   57 am   BACKBONE|DICT|INTERRES
   111   56   58 2    
   112   57  112 1    
   113   57  113 1    
   114   59   60 1    
   115   59  114 1    
   116   59  115 1    
   117   60   61 1    
   118   61  116 1    
   119   61  117 1    
@<TRIPOS>SUBSTRUCTURE
     1 UNK         1 GROUP             0       ****    0 ROOT    
