@<TRIPOS>MOLECULE
3R8
117   119    1
SMALL
USER_CHARGES


@<TRIPOS>ATOM
      1 CA         20.4161  -25.1005  -39.6289 C.3       0 UNK        -0.2013 
      2 C          20.0984  -25.5740  -41.0388 C.2       0 UNK         0.4866 
      3 O          20.9335  -26.2382  -41.6543 O.2       0 UNK        -0.5176 
      4 N          18.8973  -25.2358  -41.5300 N.am      1 UNK        -0.4884 
      5 CA         18.3390  -25.5297  -42.8597 C.3       1 UNK         0.0853 
      6 C6         18.3698  -27.0349  -43.2480 C.3       10 UNK        -0.0849 
      7 S7         17.4424  -28.0876  -42.0812 S.3       10 UNK        -0.2776 
      8 C8         16.4010  -29.0690  -43.2098 C.3       10 UNK         0.0316 
      9 C9         17.2299  -30.0339  -44.0474 C.ar      10 UNK        -0.0863 
     10 C10        17.6936  -31.2264  -43.4853 C.ar      10 UNK        -0.1009 
     11 C11        18.4422  -32.1259  -44.2486 C.ar      10 UNK        -0.0712 
     12 C12        18.7463  -31.8149  -45.5773 C.ar      10 UNK        -0.0894 
     13 C13        18.2930  -30.6241  -46.1553 C.ar      10 UNK        -0.0745 
     14 C14        17.5191  -29.7463  -45.3855 C.ar      10 UNK        -0.0972 
     15 C15        18.6105  -30.3386  -47.6235 C.3       10 UNK         0.0209 
     16 S16        18.8974  -28.5786  -48.0162 S.3       10 UNK        -0.2568 
     17 C17        20.4455  -28.2513  -47.1096 C.3       10 UNK        -0.0983 
     18 CA         20.9044  -26.7749  -47.2358 C.3       3 UNK         0.0876 
     19 N          19.8599  -25.8566  -46.7773 N.am      3 UNK        -0.4424 
     20 C          19.7985  -24.5396  -47.0104 C.2       2 UNK         0.4918 
     21 O          20.5900  -23.9291  -47.7283 O.2       2 UNK        -0.4875 
     22 CA         18.6797  -23.7710  -46.2778 C.3       2 UNK         0.0481 
     23 CB         17.4842  -23.5443  -47.2165 C.3       2 UNK        -0.1831 
     24 N          18.2169  -24.4390  -45.0510 N.am      2 UNK        -0.4498 
     25 C          18.9811  -24.6734  -43.9720 C.2       1 UNK         0.5027 
     26 O          20.1521  -24.2972  -43.8875 O.2       1 UNK        -0.4969 
     27 C          22.2507  -26.5739  -46.5003 C.2       3 UNK         0.5005 
     28 O          23.2536  -27.1269  -46.9545 O.2       3 UNK        -0.5279 
     29 N          22.2558  -25.8215  -45.3836 N.am      4 UNK        -0.4463 
     30 CA         23.3758  -25.6092  -44.4576 C.3       4 UNK         0.0283 
     31 CB         24.5211  -24.8236  -45.1311 C.3       4 UNK        -0.1875 
     32 C          23.8354  -26.9297  -43.8122 C.2       4 UNK         0.4949 
     33 O          25.0277  -27.2405  -43.7981 O.2       4 UNK        -0.5039 
     34 N          22.8577  -27.6933  -43.3094 N.am      5 UNK        -0.4663 
     35 CA         23.0591  -28.9744  -42.6352 C.3       5 UNK         0.0242 
     36 CB         21.7338  -29.7521  -42.6310 C.3       5 UNK        -0.1982 
     37 C          23.5881  -28.7946  -41.2044 C.2       5 UNK         0.5017 
     38 O          24.4116  -29.5953  -40.7603 O.2       5 UNK        -0.5012 
     39 N          23.1218  -27.7394  -40.5186 N.am      6 UNK        -0.4439 
     40 CA         23.4486  -27.3805  -39.1361 C.3       6 UNK         0.0297 
     41 CB         24.9161  -26.9056  -39.0244 C.3       6 UNK        -0.2006 
     42 C          23.0679  -28.5145  -38.1645 C.2       6 UNK         0.4892 
     43 O          21.8763  -28.7430  -37.9529 O.2       6 UNK        -0.5089 
     44 N          24.0712  -29.1970  -37.5990 N.am      7 UNK        -0.4243 
     45 CA         23.9009  -30.3324  -36.6915 C.3       7 UNK         0.0196 
     46 CB         25.1239  -30.4060  -35.7613 C.3       7 UNK        -0.2007 
     47 C          23.6989  -31.6766  -37.4168 C.2       7 UNK         0.5020 
     48 O          23.2912  -32.6403  -36.7661 O.2       7 UNK        -0.5147 
     49 N          24.0083  -31.7516  -38.7197 N.am      8 UNK        -0.4734 
     50 CA         23.8812  -32.9753  -39.5169 C.3       8 UNK         0.0238 
     51 CB         24.7651  -32.8619  -40.7709 C.3       8 UNK        -0.1912 
     52 C          22.4229  -33.2523  -39.9178 C.2       8 UNK         0.5038 
     53 O          21.6200  -32.3205  -39.9876 O.2       8 UNK        -0.5046 
     54 N          22.1415  -34.5326  -40.1978 N.am      9 UNK        -0.4200 
     55 CA         20.8905  -35.1058  -40.7325 C.3       9 UNK         0.0839 
     56 C          19.5619  -34.7974  -39.9740 C.2       9 UNK         0.5513 
     57 N          19.5980  -34.2758  -38.7547 N.am      9 UNK        -0.7519 
     58 O          18.4788  -35.0933  -40.4720 O.2       9 UNK        -0.4960 
     59 C59        20.7906  -35.0117  -42.2850 C.3       10 UNK        -0.0876 
     60 S60        20.5775  -33.3337  -42.9748 S.3       10 UNK        -0.2414 
     61 C61        18.8940  -33.4470  -43.6466 C.3       10 UNK         0.0169 
     62 H62        20.4578  -25.9525  -38.9508 H         1 UNK         0.0903 
     63 H63        21.3819  -24.5963  -39.6112 H         1 UNK         0.0903 
     64 H64        19.6667  -24.4044  -39.2528 H         1 UNK         0.0903 
     65 H65        18.2900  -24.6791  -40.9449 H         1 UNK         0.3096 
     66 H66        17.2925  -25.2246  -42.8014 H         1 UNK         0.1121 
     67 H67        17.9442  -27.1681  -44.2427 H         1 UNK         0.0849 
     68 H68        19.3907  -27.4126  -43.3158 H         1 UNK         0.0849 
     69 H69        15.6770  -29.6328  -42.6196 H         1 UNK         0.0865 
     70 H70        15.8166  -28.4017  -43.8454 H         1 UNK         0.0865 
     71 H71        17.4656  -31.4573  -42.4534 H         1 UNK         0.1346 
     72 H72        19.3273  -32.5123  -46.1655 H         1 UNK         0.1412 
     73 H73        17.1402  -28.8363  -45.8288 H         1 UNK         0.1426 
     74 H74        17.7762  -30.6948  -48.2288 H         1 UNK         0.0716 
     75 H75        19.4862  -30.9070  -47.9412 H         1 UNK         0.0716 
     76 H76        20.3013  -28.5206  -46.0610 H         1 UNK         0.0695 
     77 H77        21.2105  -28.9263  -47.4987 H         1 UNK         0.0695 
     78 H78        21.0910  -26.5641  -48.2913 H         1 UNK         0.0983 
     79 H79        19.1295  -26.2720  -46.2212 H         1 UNK         0.3095 
     80 H80        19.0825  -22.7962  -45.9953 H         1 UNK         0.0454 
     81 H81        16.7163  -22.9326  -46.7428 H         1 UNK         0.0851 
     82 H82        17.7944  -23.0237  -48.1238 H         1 UNK         0.0851 
     83 H83        17.0251  -24.4850  -47.5231 H         1 UNK         0.0851 
     84 H84        17.2598  -24.7637  -45.0542 H         1 UNK         0.2976 
     85 H85        21.3859  -25.3887  -45.0903 H         1 UNK         0.3116 
     86 H86        22.9871  -24.9916  -43.6461 H         1 UNK         0.0646 
     87 H87        25.2945  -24.5678  -44.4059 H         1 UNK         0.0847 
     88 H88        24.1607  -23.8903  -45.5634 H         1 UNK         0.0847 
     89 H89        25.0002  -25.3983  -45.9240 H         1 UNK         0.0847 
     90 H90        21.9245  -27.3019  -43.2655 H         1 UNK         0.3040 
     91 H91        23.7978  -29.5533  -43.1942 H         1 UNK         0.1015 
     92 H92        21.3774  -29.9456  -43.6431 H         1 UNK         0.0786 
     93 H93        20.9482  -29.2169  -42.0953 H         1 UNK         0.0786 
     94 H94        21.8571  -30.7187  -42.1423 H         1 UNK         0.0786 
     95 H95        22.4016  -27.1741  -40.9661 H         1 UNK         0.3172 
     96 H96        22.8168  -26.5319  -38.8761 H         1 UNK         0.0595 
     97 H97        25.0901  -26.0368  -39.6593 H         1 UNK         0.0839 
     98 H98        25.6311  -27.6726  -39.3231 H         1 UNK         0.0839 
     99 H99        25.1562  -26.6053  -38.0035 H         1 UNK         0.0839 
    100 H100       25.0178  -28.9557  -37.8549 H         1 UNK         0.2998 
    101 H101       23.0163  -30.1625  -36.0737 H         1 UNK         0.0822 
    102 H102       26.0453  -30.5812  -36.3182 H         1 UNK         0.0787 
    103 H103       25.2450  -29.4848  -35.1908 H         1 UNK         0.0787 
    104 H104       25.0192  -31.2188  -35.0411 H         1 UNK         0.0787 
    105 H105       24.2544  -30.9065  -39.2261 H         1 UNK         0.3055 
    106 H106       24.2435  -33.8127  -38.9157 H         1 UNK         0.1106 
    107 H107       25.7907  -32.5949  -40.5159 H         1 UNK         0.0828 
    108 H108       24.8019  -33.8092  -41.3102 H         1 UNK         0.0828 
    109 H109       24.3853  -32.1132  -41.4668 H         1 UNK         0.0828 
    110 H110       22.8813  -35.2079  -40.0708 H         1 UNK         0.2931 
    111 H111       21.0197  -36.1700  -40.5310 H         1 UNK         0.0412 
    112 H112       18.7344  -34.0998  -38.2660 H         1 UNK         0.3472 
    113 H113       20.4774  -34.0001  -38.3467 H         1 UNK         0.3472 
    114 H114       19.9871  -35.6568  -42.6447 H         1 UNK         0.0970 
    115 H115       21.6981  -35.4267  -42.7255 H         1 UNK         0.0970 
    116 H116       18.2080  -33.7509  -42.8547 H         1 UNK         0.0612 
    117 H117       18.8593  -34.2312  -44.4043 H         1 UNK         0.0612 
@<TRIPOS>BOND
     1    1    2 1    
     2    1   62 1    
     3    1   63 1    
     4    1   64 1    
     5    2    3 2    
     6    2    4 am   BACKBONE|DICT|INTERRES
     7    4    5 1    
     8    4   65 1    
     9    5    6 1    
    10    5   25 1    
    11    5   66 1    
    12    6    7 1    
    13    6   67 1    
    14    6   68 1    
    15    7    8 1    
    16    8    9 1    
    17    8   69 1    
    18    8   70 1    
    19    9   10 ar   
    20    9   14 ar   
    21   10   11 ar   
    22   10   71 1    
    23   11   12 ar   
    24   11   61 1    
    25   12   13 ar   
    26   12   72 1    
    27   13   14 ar   
    28   13   15 1    
    29   14   73 1    
    30   15   16 1    
    31   15   74 1    
    32   15   75 1    
    33   16   17 1    
    34   17   18 1    
    35   17   76 1    
    36   17   77 1    
    37   18   19 1    
    38   18   27 1    
    39   18   78 1    
    40   19   20 am   BACKBONE|DICT|INTERRES
    41   19   79 1    
    42   20   21 2    
    43   20   22 1    
    44   22   23 1    
    45   22   24 1    
    46   22   80 1    
    47   23   81 1    
    48   23   82 1    
    49   23   83 1    
    50   24   25 am   BACKBONE|DICT|INTERRES
    51   24   84 1    
    52   25   26 2    
    53   27   28 2    
    54   27   29 am   BACKBONE|DICT|INTERRES
    55   29   30 1    
    56   29   85 1    
    57   30   31 1    
    58   30   32 1    
    59   30   86 1    
    60   31   87 1    
    61   31   88 1    
    62   31   89 1    
    63   32   33 2    
    64   32   34 am   BACKBONE|DICT|INTERRES
    65   34   35 1    
    66   34   90 1    
    67   35   36 1    
    68   35   37 1    
    69   35   91 1    
    70   36   92 1    
    71   36   93 1    
    72   36   94 1    
    73   37   38 2    
    74   37   39 am   BACKBONE|DICT|INTERRES
    75   39   40 1    
    76   39   95 1    
    77   40   41 1    
    78   40   42 1    
    79   40   96 1    
    80   41   97 1    
    81   41   98 1    
    82   41   99 1    
    83   42   43 2    
    84   42   44 am   BACKBONE|DICT|INTERRES
    85   44   45 1    
    86   44  100 1    
    87   45   46 1    
    88   45   47 1    
    89   45  101 1    
    90   46  102 1    
    91   46  103 1    
    92   46  104 1    
    93   47   48 2    
    94   47   49 am   BACKBONE|DICT|INTERRES
    95   49   50 1    
    96   49  105 1    
    97   50   51 1    
    98   50   52 1    
    99   50  106 1    
   100   51  107 1    
   101   51  108 1    
   102   51  109 1    
   103   52   53 2    
   104   52   54 am   BACKBONE|DICT|INTERRES
   105   54   55 1    
   106   54  110 1    
   107   55   56 1    
   108   55   59 1    
   109   55  111 1    
   110   56   57 am   BACKBONE|DICT|INTERRES
   111   56   58 2    
   112   57  112 1    
   113   57  113 1    
   114   59   60 1    
   115   59  114 1    
   116   59  115 1    
   117   60   61 1    
   118   61  116 1    
   119   61  117 1    
@<TRIPOS>SUBSTRUCTURE
     1 UNK         1 GROUP             0       ****    0 ROOT    
