@<TRIPOS>MOLECULE
3R8
117   119    1
SMALL
USER_CHARGES


@<TRIPOS>ATOM
      1 CA         16.3180  -25.1745  -47.4460 C.3       0 UNK        -0.2013 
      2 C          16.6299  -26.3020  -46.4732 C.2       0 UNK         0.4866 
      3 O          16.1244  -27.4117  -46.6434 O.2       0 UNK        -0.5176 
      4 N          17.4581  -26.0239  -45.4613 N.am      1 UNK        -0.4884 
      5 CA         17.9090  -26.9808  -44.4512 C.3       1 UNK         0.0853 
      6 C6         17.4377  -26.5836  -43.0272 C.3       10 UNK        -0.0849 
      7 S7         15.6335  -26.6443  -42.7545 S.3       10 UNK        -0.2776 
      8 C8         15.1791  -28.3749  -43.1313 C.3       10 UNK         0.0316 
      9 C9         16.1782  -29.4140  -42.6300 C.ar      10 UNK        -0.0863 
     10 C10        16.6478  -30.3944  -43.5093 C.ar      10 UNK        -0.1009 
     11 C11        17.5762  -31.3463  -43.0834 C.ar      10 UNK        -0.0712 
     12 C12        18.0381  -31.3160  -41.7655 C.ar      10 UNK        -0.0894 
     13 C13        17.5694  -30.3490  -40.8713 C.ar      10 UNK        -0.0745 
     14 C14        16.6288  -29.4090  -41.3044 C.ar      10 UNK        -0.0972 
     15 C15        18.0617  -30.3464  -39.4318 C.3       10 UNK         0.0209 
     16 S16        19.8341  -29.9485  -39.3135 S.3       10 UNK        -0.2568 
     17 C17        19.8357  -28.1284  -39.4399 C.3       10 UNK        -0.0983 
     18 CA         21.0384  -27.6138  -40.2700 C.3       3 UNK         0.0876 
     19 N          20.9309  -28.0228  -41.6788 N.am      3 UNK        -0.4424 
     20 C          21.8472  -27.8370  -42.6411 C.2       2 UNK         0.4918 
     21 O          22.9129  -27.2506  -42.4703 O.2       2 UNK        -0.4875 
     22 CA         21.4856  -28.3238  -44.0501 C.3       2 UNK         0.0481 
     23 CB         21.9500  -29.7733  -44.2330 C.3       2 UNK        -0.1831 
     24 N          20.0489  -28.1895  -44.3232 N.am      2 UNK        -0.4498 
     25 C          19.4431  -26.9996  -44.4651 C.2       1 UNK         0.5027 
     26 O          20.0509  -25.9267  -44.5134 O.2       1 UNK        -0.4969 
     27 C          21.2668  -26.0987  -40.0460 C.2       3 UNK         0.5005 
     28 O          21.6120  -25.7041  -38.9313 O.2       3 UNK        -0.5279 
     29 N          21.1029  -25.2760  -41.0924 N.am      4 UNK        -0.4463 
     30 CA         21.4584  -23.8573  -41.1054 C.3       4 UNK         0.0283 
     31 CB         20.7955  -23.1918  -42.3224 C.3       4 UNK        -0.1875 
     32 C          22.9800  -23.5976  -41.1173 C.2       4 UNK         0.4949 
     33 O          23.3876  -22.4995  -40.7370 O.2       4 UNK        -0.5039 
     34 N          23.7887  -24.5740  -41.5596 N.am      5 UNK        -0.4663 
     35 CA         25.2470  -24.4409  -41.6877 C.3       5 UNK         0.0242 
     36 CB         25.5962  -24.0111  -43.1235 C.3       5 UNK        -0.1982 
     37 C          26.0236  -25.7111  -41.3004 C.2       5 UNK         0.5017 
     38 O          27.1448  -25.5933  -40.8041 O.2       5 UNK        -0.5012 
     39 N          25.4379  -26.8893  -41.5349 N.am      6 UNK        -0.4439 
     40 CA         25.9788  -28.2081  -41.2182 C.3       6 UNK         0.0297 
     41 CB         26.4342  -28.8948  -42.5231 C.3       6 UNK        -0.2006 
     42 C          24.8983  -28.9749  -40.4378 C.2       6 UNK         0.4892 
     43 O          24.4224  -28.4536  -39.4281 O.2       6 UNK        -0.5089 
     44 N          24.5146  -30.1704  -40.9033 N.am      7 UNK        -0.4243 
     45 CA         23.4621  -31.0135  -40.3394 C.3       7 UNK         0.0196 
     46 CB         23.9036  -31.5941  -38.9780 C.3       7 UNK        -0.2007 
     47 C          23.1315  -32.1436  -41.3234 C.2       7 UNK         0.5020 
     48 O          23.8568  -32.3357  -42.3021 O.2       7 UNK        -0.5147 
     49 N          22.0596  -32.8874  -41.0171 N.am      8 UNK        -0.4734 
     50 CA         21.6471  -34.1964  -41.5564 C.3       8 UNK         0.0238 
     51 CB         22.7201  -35.2610  -41.2514 C.3       8 UNK        -0.1912 
     52 C          21.2349  -34.2708  -43.0401 C.2       8 UNK         0.5038 
     53 O          20.4541  -35.1618  -43.3780 O.2       8 UNK        -0.5046 
     54 N          21.7438  -33.3694  -43.8871 N.am      9 UNK        -0.4200 
     55 CA         21.5883  -33.3590  -45.3542 C.3       9 UNK         0.0839 
     56 C          22.3377  -34.5351  -46.0543 C.2       9 UNK         0.5513 
     57 N          22.2183  -34.6640  -47.3695 N.am      9 UNK        -0.7519 
     58 O          23.0631  -35.3120  -45.4358 O.2       9 UNK        -0.4960 
     59 C59        20.1083  -33.2123  -45.8314 C.3       10 UNK        -0.0876 
     60 S60        19.2962  -31.7084  -45.1957 S.3       10 UNK        -0.2414 
     61 C61        18.0770  -32.4079  -44.0470 C.3       10 UNK         0.0169 
     62 H62        15.2461  -24.9790  -47.4612 H         1 UNK         0.0903 
     63 H63        16.8269  -24.2493  -47.1759 H         1 UNK         0.0903 
     64 H64        16.6285  -25.4510  -48.4532 H         1 UNK         0.0903 
     65 H65        17.8958  -25.1138  -45.4022 H         1 UNK         0.3096 
     66 H66        17.5580  -27.9851  -44.6911 H         1 UNK         0.1121 
     67 H67        17.9107  -27.2121  -42.2716 H         1 UNK         0.0849 
     68 H68        17.7614  -25.5667  -42.7946 H         1 UNK         0.0849 
     69 H69        14.2028  -28.5849  -42.6926 H         1 UNK         0.0865 
     70 H70        15.0486  -28.4598  -44.2114 H         1 UNK         0.0865 
     71 H71        16.2983  -30.4167  -44.5330 H         1 UNK         0.1346 
     72 H72        18.7607  -32.0477  -41.4309 H         1 UNK         0.1412 
     73 H73        16.2571  -28.6612  -40.6168 H         1 UNK         0.1426 
     74 H74        17.8977  -31.3361  -39.0035 H         1 UNK         0.0716 
     75 H75        17.4890  -29.6501  -38.8170 H         1 UNK         0.0716 
     76 H76        19.8674  -27.7409  -38.4196 H         1 UNK         0.0695 
     77 H77        18.8954  -27.7795  -39.8705 H         1 UNK         0.0695 
     78 H78        21.9354  -28.0905  -39.8759 H         1 UNK         0.0983 
     79 H79        20.0924  -28.5322  -41.9143 H         1 UNK         0.3095 
     80 H80        22.0310  -27.7055  -44.7665 H         1 UNK         0.0454 
     81 H81        23.0164  -29.8728  -44.0251 H         1 UNK         0.0851 
     82 H82        21.4246  -30.4547  -43.5633 H         1 UNK         0.0851 
     83 H83        21.7929  -30.1062  -45.2582 H         1 UNK         0.0851 
     84 H84        19.4990  -29.0386  -44.3170 H         1 UNK         0.2976 
     85 H85        20.8273  -25.6773  -41.9776 H         1 UNK         0.3116 
     86 H86        21.0533  -23.3956  -40.2024 H         1 UNK         0.0646 
     87 H87        21.0043  -22.1213  -42.3443 H         1 UNK         0.0847 
     88 H88        19.7119  -23.3086  -42.3000 H         1 UNK         0.0847 
     89 H89        21.1588  -23.6132  -43.2609 H         1 UNK         0.0847 
     90 H90        23.3751  -25.4541  -41.8486 H         1 UNK         0.3040 
     91 H91        25.5990  -23.6621  -41.0070 H         1 UNK         0.1015 
     92 H92        25.1493  -23.0474  -43.3680 H         1 UNK         0.0786 
     93 H93        25.2463  -24.7390  -43.8566 H         1 UNK         0.0786 
     94 H94        26.6748  -23.9089  -43.2514 H         1 UNK         0.0786 
     95 H95        24.4936  -26.9121  -41.9179 H         1 UNK         0.3172 
     96 H96        26.8404  -28.1180  -40.5539 H         1 UNK         0.0595 
     97 H97        26.8725  -29.8741  -42.3264 H         1 UNK         0.0839 
     98 H98        27.1990  -28.3027  -43.0262 H         1 UNK         0.0839 
     99 H99        25.6094  -29.0269  -43.2250 H         1 UNK         0.0839 
    100 H100       24.9283  -30.5439  -41.7493 H         1 UNK         0.2998 
    101 H101       22.5670  -30.4054  -40.2097 H         1 UNK         0.0822 
    102 H102       24.8122  -32.1898  -39.0739 H         1 UNK         0.0787 
    103 H103       24.0953  -30.8100  -38.2461 H         1 UNK         0.0787 
    104 H104       23.1350  -32.2384  -38.5496 H         1 UNK         0.0787 
    105 H105       21.5115  -32.5803  -40.2244 H         1 UNK         0.3055 
    106 H106       20.7528  -34.4696  -40.9932 H         1 UNK         0.1106 
    107 H107       23.6502  -35.0629  -41.7854 H         1 UNK         0.0828 
    108 H108       22.9464  -35.3049  -40.1860 H         1 UNK         0.0828 
    109 H109       22.3823  -36.2542  -41.5507 H         1 UNK         0.0828 
    110 H110       22.4603  -32.7567  -43.5111 H         1 UNK         0.2931 
    111 H111       22.1250  -32.4670  -45.6772 H         1 UNK         0.0412 
    112 H112       22.7121  -35.4121  -47.8315 H         1 UNK         0.3472 
    113 H113       21.6617  -34.0239  -47.9138 H         1 UNK         0.3472 
    114 H114       20.0610  -33.1440  -46.9187 H         1 UNK         0.0970 
    115 H115       19.5234  -34.0953  -45.5705 H         1 UNK         0.0970 
    116 H116       17.2426  -32.8230  -44.6140 H         1 UNK         0.0612 
    117 H117       18.5180  -33.2369  -43.4939 H         1 UNK         0.0612 
@<TRIPOS>BOND
     1    1    2 1    
     2    1   62 1    
     3    1   63 1    
     4    1   64 1    
     5    2    3 2    
     6    2    4 am   BACKBONE|DICT|INTERRES
     7    4    5 1    
     8    4   65 1    
     9    5    6 1    
    10    5   25 1    
    11    5   66 1    
    12    6    7 1    
    13    6   67 1    
    14    6   68 1    
    15    7    8 1    
    16    8    9 1    
    17    8   69 1    
    18    8   70 1    
    19    9   10 ar   
    20    9   14 ar   
    21   10   11 ar   
    22   10   71 1    
    23   11   12 ar   
    24   11   61 1    
    25   12   13 ar   
    26   12   72 1    
    27   13   14 ar   
    28   13   15 1    
    29   14   73 1    
    30   15   16 1    
    31   15   74 1    
    32   15   75 1    
    33   16   17 1    
    34   17   18 1    
    35   17   76 1    
    36   17   77 1    
    37   18   19 1    
    38   18   27 1    
    39   18   78 1    
    40   19   20 am   BACKBONE|DICT|INTERRES
    41   19   79 1    
    42   20   21 2    
    43   20   22 1    
    44   22   23 1    
    45   22   24 1    
    46   22   80 1    
    47   23   81 1    
    48   23   82 1    
    49   23   83 1    
    50   24   25 am   BACKBONE|DICT|INTERRES
    51   24   84 1    
    52   25   26 2    
    53   27   28 2    
    54   27   29 am   BACKBONE|DICT|INTERRES
    55   29   30 1    
    56   29   85 1    
    57   30   31 1    
    58   30   32 1    
    59   30   86 1    
    60   31   87 1    
    61   31   88 1    
    62   31   89 1    
    63   32   33 2    
    64   32   34 am   BACKBONE|DICT|INTERRES
    65   34   35 1    
    66   34   90 1    
    67   35   36 1    
    68   35   37 1    
    69   35   91 1    
    70   36   92 1    
    71   36   93 1    
    72   36   94 1    
    73   37   38 2    
    74   37   39 am   BACKBONE|DICT|INTERRES
    75   39   40 1    
    76   39   95 1    
    77   40   41 1    
    78   40   42 1    
    79   40   96 1    
    80   41   97 1    
    81   41   98 1    
    82   41   99 1    
    83   42   43 2    
    84   42   44 am   BACKBONE|DICT|INTERRES
    85   44   45 1    
    86   44  100 1    
    87   45   46 1    
    88   45   47 1    
    89   45  101 1    
    90   46  102 1    
    91   46  103 1    
    92   46  104 1    
    93   47   48 2    
    94   47   49 am   BACKBONE|DICT|INTERRES
    95   49   50 1    
    96   49  105 1    
    97   50   51 1    
    98   50   52 1    
    99   50  106 1    
   100   51  107 1    
   101   51  108 1    
   102   51  109 1    
   103   52   53 2    
   104   52   54 am   BACKBONE|DICT|INTERRES
   105   54   55 1    
   106   54  110 1    
   107   55   56 1    
   108   55   59 1    
   109   55  111 1    
   110   56   57 am   BACKBONE|DICT|INTERRES
   111   56   58 2    
   112   57  112 1    
   113   57  113 1    
   114   59   60 1    
   115   59  114 1    
   116   59  115 1    
   117   60   61 1    
   118   61  116 1    
   119   61  117 1    
@<TRIPOS>SUBSTRUCTURE
     1 UNK         1 GROUP             0       ****    0 ROOT    
