@<TRIPOS>MOLECULE
3R8
117   119    1
SMALL
USER_CHARGES


@<TRIPOS>ATOM
      1 CA         16.4871  -24.2403  -45.3985 C.3       0 UNK        -0.2013 
      2 C          15.0293  -24.6664  -45.2597 C.2       0 UNK         0.4866 
      3 O          14.1412  -23.8243  -45.3798 O.2       0 UNK        -0.5176 
      4 N          14.7245  -25.9495  -45.0247 N.am      1 UNK        -0.4884 
      5 CA         15.6577  -27.0620  -44.7951 C.3       1 UNK         0.0853 
      6 C6         15.0091  -28.4159  -45.1867 C.3       10 UNK        -0.0849 
      7 S7         14.9246  -28.5681  -47.0026 S.3       10 UNK        -0.2776 
      8 C8         16.2345  -29.7923  -47.3529 C.3       10 UNK         0.0316 
      9 C9         17.5784  -29.4512  -46.7136 C.ar      10 UNK        -0.0863 
     10 C10        18.1794  -30.3545  -45.8314 C.ar      10 UNK        -0.1009 
     11 C11        19.4208  -30.0698  -45.2543 C.ar      10 UNK        -0.0712 
     12 C12        20.0614  -28.8662  -45.5626 C.ar      10 UNK        -0.0894 
     13 C13        19.4740  -27.9539  -46.4434 C.ar      10 UNK        -0.0745 
     14 C14        18.2370  -28.2563  -47.0229 C.ar      10 UNK        -0.0972 
     15 C15        20.1925  -26.6622  -46.8060 C.3       10 UNK         0.0209 
     16 S16        19.8784  -25.3403  -45.5944 S.3       10 UNK        -0.2568 
     17 C17        21.2066  -25.5959  -44.3680 C.3       10 UNK        -0.0983 
     18 CA         20.6726  -25.6731  -42.9155 C.3       3 UNK         0.0876 
     19 N          19.7152  -26.7726  -42.7518 N.am      3 UNK        -0.4424 
     20 C          18.9023  -26.9576  -41.7033 C.2       2 UNK         0.4918 
     21 O          18.9040  -26.2538  -40.6930 O.2       2 UNK        -0.4875 
     22 CA         17.9160  -28.1284  -41.8455 C.3       2 UNK         0.0481 
     23 CB         17.0309  -28.3537  -40.6010 C.3       2 UNK        -0.1831 
     24 N          17.1236  -28.0041  -43.0752 N.am      2 UNK        -0.4498 
     25 C          16.2021  -27.0669  -43.3507 C.2       1 UNK         0.5027 
     26 O          15.8081  -26.2268  -42.5382 O.2       1 UNK        -0.4969 
     27 C          21.8507  -25.7014  -41.9148 C.2       3 UNK         0.5005 
     28 O          22.5323  -24.6851  -41.7809 O.2       3 UNK        -0.5279 
     29 N          22.0977  -26.8505  -41.2642 N.am      4 UNK        -0.4463 
     30 CA         23.1529  -27.1391  -40.2775 C.3       4 UNK         0.0283 
     31 CB         23.1946  -26.1076  -39.1320 C.3       4 UNK        -0.1875 
     32 C          24.5438  -27.3728  -40.8900 C.2       4 UNK         0.4949 
     33 O          25.4096  -27.9164  -40.2054 O.2       4 UNK        -0.5039 
     34 N          24.7300  -27.0360  -42.1739 N.am      5 UNK        -0.4663 
     35 CA         25.9524  -27.2785  -42.9495 C.3       5 UNK         0.0242 
     36 CB         25.8214  -26.5888  -44.3171 C.3       5 UNK        -0.1982 
     37 C          26.2829  -28.7725  -43.1289 C.2       5 UNK         0.5017 
     38 O          27.4536  -29.1186  -43.2870 O.2       5 UNK        -0.5012 
     39 N          25.2508  -29.6260  -43.0751 N.am      6 UNK        -0.4439 
     40 CA         25.3602  -31.0854  -43.1025 C.3       6 UNK         0.0297 
     41 CB         24.0383  -31.6658  -43.6325 C.3       6 UNK        -0.2006 
     42 C          25.7028  -31.6992  -41.7303 C.2       6 UNK         0.4892 
     43 O          25.9104  -32.9115  -41.6660 O.2       6 UNK        -0.5089 
     44 N          25.7156  -30.8859  -40.6600 N.am      7 UNK        -0.4243 
     45 CA         25.9421  -31.2146  -39.2432 C.3       7 UNK         0.0196 
     46 CB         27.3322  -31.8398  -39.0144 C.3       7 UNK        -0.2007 
     47 C          24.8300  -32.0697  -38.6103 C.2       7 UNK         0.5020 
     48 O          24.3059  -31.7019  -37.5597 O.2       7 UNK        -0.5147 
     49 N          24.4684  -33.1763  -39.2680 N.am      8 UNK        -0.4734 
     50 CA         23.3851  -34.0854  -38.8805 C.3       8 UNK         0.0238 
     51 CB         23.6615  -35.4663  -39.4988 C.3       8 UNK        -0.1912 
     52 C          21.9875  -33.5809  -39.2902 C.2       8 UNK         0.5038 
     53 O          20.9923  -34.1870  -38.8912 O.2       8 UNK        -0.5046 
     54 N          21.9327  -32.5066  -40.0841 N.am      9 UNK        -0.4200 
     55 CA         20.7173  -31.8817  -40.6031 C.3       9 UNK         0.0839 
     56 C          20.9548  -30.3515  -40.6159 C.2       9 UNK         0.5513 
     57 N          20.3710  -29.6260  -39.6713 N.am      9 UNK        -0.7519 
     58 O          21.6686  -29.8215  -41.4647 O.2       9 UNK        -0.4960 
     59 C59        20.3162  -32.5192  -41.9652 C.3       10 UNK        -0.0876 
     60 S60        19.0746  -31.6040  -42.9447 S.3       10 UNK        -0.2414 
     61 C61        20.1080  -31.0842  -44.3512 C.3       10 UNK         0.0169 
     62 H62        16.9467  -24.7192  -46.2626 H         1 UNK         0.0903 
     63 H63        16.5593  -23.1624  -45.5415 H         1 UNK         0.0903 
     64 H64        17.0594  -24.4918  -44.5063 H         1 UNK         0.0903 
     65 H65        13.7490  -26.1909  -44.9269 H         1 UNK         0.3096 
     66 H66        16.5319  -26.9092  -45.4278 H         1 UNK         0.1121 
     67 H67        15.5539  -29.2747  -44.7918 H         1 UNK         0.0849 
     68 H68        14.0016  -28.4974  -44.7749 H         1 UNK         0.0849 
     69 H69        15.8877  -30.7728  -47.0225 H         1 UNK         0.0865 
     70 H70        16.3663  -29.8671  -48.4332 H         1 UNK         0.0865 
     71 H71        17.6913  -31.2926  -45.6029 H         1 UNK         0.1346 
     72 H72        21.0333  -28.6531  -45.1399 H         1 UNK         0.1412 
     73 H73        17.7825  -27.5612  -47.7163 H         1 UNK         0.1426 
     74 H74        19.8554  -26.3160  -47.7843 H         1 UNK         0.0716 
     75 H75        21.2648  -26.8360  -46.9074 H         1 UNK         0.0716 
     76 H76        21.7792  -26.4910  -44.6139 H         1 UNK         0.0695 
     77 H77        21.9001  -24.7593  -44.4759 H         1 UNK         0.0695 
     78 H78        20.1291  -24.7479  -42.7103 H         1 UNK         0.0983 
     79 H79        19.6150  -27.3840  -43.5484 H         1 UNK         0.3095 
     80 H80        18.5283  -29.0194  -41.9659 H         1 UNK         0.0454 
     81 H81        17.6438  -28.5684  -39.7253 H         1 UNK         0.0851 
     82 H82        16.3597  -29.2006  -40.7410 H         1 UNK         0.0851 
     83 H83        16.4260  -27.4801  -40.3587 H         1 UNK         0.0851 
     84 H84        17.3762  -28.6516  -43.8102 H         1 UNK         0.2976 
     85 H85        21.5383  -27.6576  -41.5164 H         1 UNK         0.3116 
     86 H86        22.8747  -28.0908  -39.8247 H         1 UNK         0.0646 
     87 H87        23.5720  -25.1399  -39.4625 H         1 UNK         0.0847 
     88 H88        22.2070  -25.9550  -38.6971 H         1 UNK         0.0847 
     89 H89        23.8522  -26.4477  -38.3311 H         1 UNK         0.0847 
     90 H90        23.9764  -26.5578  -42.6453 H         1 UNK         0.3040 
     91 H91        26.7864  -26.8246  -42.4095 H         1 UNK         0.1015 
     92 H92        26.7259  -26.7262  -44.9116 H         1 UNK         0.0786 
     93 H93        25.6690  -25.5148  -44.2074 H         1 UNK         0.0786 
     94 H94        24.9876  -26.9898  -44.8949 H         1 UNK         0.0786 
     95 H95        24.3259  -29.2419  -42.9415 H         1 UNK         0.3172 
     96 H96        26.1571  -31.3684  -43.7935 H         1 UNK         0.0595 
     97 H97        23.2041  -31.4216  -42.9762 H         1 UNK         0.0839 
     98 H98        24.0867  -32.7531  -43.7080 H         1 UNK         0.0839 
     99 H99        23.8060  -31.2849  -44.6272 H         1 UNK         0.0839 
    100 H100       25.5373  -29.9008  -40.8228 H         1 UNK         0.2998 
    101 H101       25.9305  -30.2568  -38.7201 H         1 UNK         0.0822 
    102 H102       27.5232  -31.9800  -37.9497 H         1 UNK         0.0787 
    103 H103       28.1225  -31.1978  -39.4035 H         1 UNK         0.0787 
    104 H104       27.4294  -32.8161  -39.4900 H         1 UNK         0.0787 
    105 H105       24.9600  -33.3774  -40.1372 H         1 UNK         0.3055 
    106 H106       23.3835  -34.1882  -37.7930 H         1 UNK         0.1106 
    107 H107       24.6207  -35.8643  -39.1672 H         1 UNK         0.0828 
    108 H108       22.8965  -36.1876  -39.2078 H         1 UNK         0.0828 
    109 H109       23.6738  -35.4251  -40.5887 H         1 UNK         0.0828 
    110 H110       22.7964  -32.0441  -40.3270 H         1 UNK         0.2931 
    111 H111       19.8973  -32.0726  -39.9073 H         1 UNK         0.0412 
    112 H112       20.5223  -28.6323  -39.6292 H         1 UNK         0.3472 
    113 H113       19.8059  -30.0699  -38.9642 H         1 UNK         0.3472 
    114 H114       21.2037  -32.6729  -42.5800 H         1 UNK         0.0970 
    115 H115       19.9217  -33.5203  -41.7856 H         1 UNK         0.0970 
    116 H116       20.3755  -31.9615  -44.9415 H         1 UNK         0.0612 
    117 H117       21.0415  -30.6712  -43.9674 H         1 UNK         0.0612 
@<TRIPOS>BOND
     1    1    2 1    
     2    1   62 1    
     3    1   63 1    
     4    1   64 1    
     5    2    3 2    
     6    2    4 am   BACKBONE|DICT|INTERRES
     7    4    5 1    
     8    4   65 1    
     9    5    6 1    
    10    5   25 1    
    11    5   66 1    
    12    6    7 1    
    13    6   67 1    
    14    6   68 1    
    15    7    8 1    
    16    8    9 1    
    17    8   69 1    
    18    8   70 1    
    19    9   10 ar   
    20    9   14 ar   
    21   10   11 ar   
    22   10   71 1    
    23   11   12 ar   
    24   11   61 1    
    25   12   13 ar   
    26   12   72 1    
    27   13   14 ar   
    28   13   15 1    
    29   14   73 1    
    30   15   16 1    
    31   15   74 1    
    32   15   75 1    
    33   16   17 1    
    34   17   18 1    
    35   17   76 1    
    36   17   77 1    
    37   18   19 1    
    38   18   27 1    
    39   18   78 1    
    40   19   20 am   BACKBONE|DICT|INTERRES
    41   19   79 1    
    42   20   21 2    
    43   20   22 1    
    44   22   23 1    
    45   22   24 1    
    46   22   80 1    
    47   23   81 1    
    48   23   82 1    
    49   23   83 1    
    50   24   25 am   BACKBONE|DICT|INTERRES
    51   24   84 1    
    52   25   26 2    
    53   27   28 2    
    54   27   29 am   BACKBONE|DICT|INTERRES
    55   29   30 1    
    56   29   85 1    
    57   30   31 1    
    58   30   32 1    
    59   30   86 1    
    60   31   87 1    
    61   31   88 1    
    62   31   89 1    
    63   32   33 2    
    64   32   34 am   BACKBONE|DICT|INTERRES
    65   34   35 1    
    66   34   90 1    
    67   35   36 1    
    68   35   37 1    
    69   35   91 1    
    70   36   92 1    
    71   36   93 1    
    72   36   94 1    
    73   37   38 2    
    74   37   39 am   BACKBONE|DICT|INTERRES
    75   39   40 1    
    76   39   95 1    
    77   40   41 1    
    78   40   42 1    
    79   40   96 1    
    80   41   97 1    
    81   41   98 1    
    82   41   99 1    
    83   42   43 2    
    84   42   44 am   BACKBONE|DICT|INTERRES
    85   44   45 1    
    86   44  100 1    
    87   45   46 1    
    88   45   47 1    
    89   45  101 1    
    90   46  102 1    
    91   46  103 1    
    92   46  104 1    
    93   47   48 2    
    94   47   49 am   BACKBONE|DICT|INTERRES
    95   49   50 1    
    96   49  105 1    
    97   50   51 1    
    98   50   52 1    
    99   50  106 1    
   100   51  107 1    
   101   51  108 1    
   102   51  109 1    
   103   52   53 2    
   104   52   54 am   BACKBONE|DICT|INTERRES
   105   54   55 1    
   106   54  110 1    
   107   55   56 1    
   108   55   59 1    
   109   55  111 1    
   110   56   57 am   BACKBONE|DICT|INTERRES
   111   56   58 2    
   112   57  112 1    
   113   57  113 1    
   114   59   60 1    
   115   59  114 1    
   116   59  115 1    
   117   60   61 1    
   118   61  116 1    
   119   61  117 1    
@<TRIPOS>SUBSTRUCTURE
     1 UNK         1 GROUP             0       ****    0 ROOT    
