@<TRIPOS>MOLECULE
3R8
117   119    1
SMALL
USER_CHARGES


@<TRIPOS>ATOM
      1 CA         20.1128  -29.7515  -47.8676 C.3       0 UNK        -0.2013 
      2 C          19.2808  -28.9301  -46.8953 C.2       0 UNK         0.4866 
      3 O          19.6163  -28.8610  -45.7146 O.2       0 UNK        -0.5176 
      4 N          18.2067  -28.2930  -47.3837 N.am      1 UNK        -0.4884 
      5 CA         17.2592  -27.5151  -46.5696 C.3       1 UNK         0.0853 
      6 C6         15.8639  -27.3894  -47.2260 C.3       10 UNK        -0.0849 
      7 S7         15.0881  -29.0156  -47.5109 S.3       10 UNK        -0.2776 
      8 C8         14.1407  -29.2514  -45.9693 C.3       10 UNK         0.0316 
      9 C9         15.0357  -29.5708  -44.7770 C.ar      10 UNK        -0.0863 
     10 C10        15.6986  -30.8015  -44.7115 C.ar      10 UNK        -0.1009 
     11 C11        16.4982  -31.1242  -43.6104 C.ar      10 UNK        -0.0712 
     12 C12        16.6194  -30.2063  -42.5644 C.ar      10 UNK        -0.0894 
     13 C13        15.9952  -28.9584  -42.6310 C.ar      10 UNK        -0.0745 
     14 C14        15.1942  -28.6482  -43.7354 C.ar      10 UNK        -0.0972 
     15 C15        16.1920  -27.9566  -41.5000 C.3       10 UNK         0.0209 
     16 S16        17.4294  -26.6769  -41.8985 S.3       10 UNK        -0.2568 
     17 C17        18.9339  -27.6632  -42.2389 C.3       10 UNK        -0.0983 
     18 CA         20.1523  -26.8449  -42.7478 C.3       3 UNK         0.0876 
     19 N          19.7706  -25.8963  -43.7866 N.am      3 UNK        -0.4424 
     20 C          20.5736  -25.4029  -44.7336 C.2       2 UNK         0.4918 
     21 O          21.7983  -25.5358  -44.7398 O.2       2 UNK        -0.4875 
     22 CA         19.8501  -24.7482  -45.9302 C.3       2 UNK         0.0481 
     23 CB         20.8237  -24.1676  -46.9717 C.3       2 UNK        -0.1831 
     24 N          18.9997  -25.7558  -46.5743 N.am      2 UNK        -0.4498 
     25 C          17.7988  -26.1420  -46.1178 C.2       1 UNK         0.5027 
     26 O          17.1554  -25.4873  -45.2965 O.2       1 UNK        -0.4969 
     27 C          20.9536  -26.1886  -41.6097 C.2       3 UNK         0.5005 
     28 O          20.7162  -25.0279  -41.2625 O.2       3 UNK        -0.5279 
     29 N          21.8767  -26.9690  -41.0410 N.am      4 UNK        -0.4463 
     30 CA         22.7419  -26.6296  -39.9175 C.3       4 UNK         0.0283 
     31 CB         23.8465  -25.6483  -40.3500 C.3       4 UNK        -0.1875 
     32 C          23.3305  -27.9454  -39.4035 C.2       4 UNK         0.4949 
     33 O          23.8830  -28.7020  -40.2039 O.2       4 UNK        -0.5039 
     34 N          23.1772  -28.2047  -38.0987 N.am      5 UNK        -0.4663 
     35 CA         23.4761  -29.4765  -37.4296 C.3       5 UNK         0.0242 
     36 CB         23.2879  -29.3053  -35.9126 C.3       5 UNK        -0.1982 
     37 C          24.8722  -30.0442  -37.7464 C.2       5 UNK         0.5017 
     38 O          25.8752  -29.4312  -37.3769 O.2       5 UNK        -0.5012 
     39 N          24.8876  -31.1924  -38.4378 N.am      6 UNK        -0.4439 
     40 CA         26.0435  -31.9732  -38.8968 C.3       6 UNK         0.0297 
     41 CB         26.9937  -32.3346  -37.7353 C.3       6 UNK        -0.2006 
     42 C          26.7991  -31.3728  -40.0990 C.2       6 UNK         0.4892 
     43 O          27.7255  -32.0202  -40.5899 O.2       6 UNK        -0.5089 
     44 N          26.3904  -30.1928  -40.5836 N.am      7 UNK        -0.4243 
     45 CA         26.8790  -29.5941  -41.8276 C.3       7 UNK         0.0196 
     46 CB         27.0406  -28.0769  -41.6433 C.3       7 UNK        -0.2007 
     47 C          25.9141  -29.9100  -42.9796 C.2       7 UNK         0.5020 
     48 O          26.3619  -30.2749  -44.0668 O.2       7 UNK        -0.5147 
     49 N          24.6096  -29.7970  -42.7102 N.am      8 UNK        -0.4734 
     50 CA         23.5142  -30.1445  -43.6052 C.3       8 UNK         0.0238 
     51 CB         23.2006  -28.9637  -44.5429 C.3       8 UNK        -0.1912 
     52 C          22.3238  -30.5081  -42.7149 C.2       8 UNK         0.5038 
     53 O          21.7482  -29.6115  -42.0960 O.2       8 UNK        -0.5046 
     54 N          22.0122  -31.8069  -42.6241 N.am      9 UNK        -0.4200 
     55 CA         20.9995  -32.3787  -41.7188 C.3       9 UNK         0.0839 
     56 C          21.3903  -32.2395  -40.2112 C.2       9 UNK         0.5513 
     57 N          20.4599  -32.4344  -39.2857 N.am      9 UNK        -0.7519 
     58 O          22.5475  -32.0153  -39.8582 O.2       9 UNK        -0.4960 
     59 C59        19.5549  -31.8888  -42.0443 C.3       10 UNK        -0.0876 
     60 S60        19.0226  -32.2994  -43.7445 S.3       10 UNK        -0.2414 
     61 C61        17.2160  -32.4675  -43.5449 C.3       10 UNK         0.0169 
     62 H62        19.7078  -29.7220  -48.8789 H         1 UNK         0.0903 
     63 H63        21.1348  -29.3745  -47.8981 H         1 UNK         0.0903 
     64 H64        20.1432  -30.7917  -47.5440 H         1 UNK         0.0903 
     65 H65        17.9673  -28.3895  -48.3608 H         1 UNK         0.3096 
     66 H66        17.1304  -28.0670  -45.6371 H         1 UNK         0.1121 
     67 H67        15.1924  -26.7884  -46.6093 H         1 UNK         0.0849 
     68 H68        15.9395  -26.8696  -48.1827 H         1 UNK         0.0849 
     69 H69        13.5279  -28.3696  -45.7756 H         1 UNK         0.0865 
     70 H70        13.4410  -30.0760  -46.1136 H         1 UNK         0.0865 
     71 H71        15.5883  -31.5085  -45.5226 H         1 UNK         0.1346 
     72 H72        17.2183  -30.4522  -41.7005 H         1 UNK         0.1412 
     73 H73        14.7021  -27.6861  -43.7834 H         1 UNK         0.1426 
     74 H74        16.4923  -28.4664  -40.5832 H         1 UNK         0.0716 
     75 H75        15.2418  -27.4690  -41.2776 H         1 UNK         0.0716 
     76 H76        19.1906  -28.2491  -41.3542 H         1 UNK         0.0695 
     77 H77        18.6832  -28.3930  -43.0099 H         1 UNK         0.0695 
     78 H78        20.8214  -27.5547  -43.2363 H         1 UNK         0.0983 
     79 H79        18.7767  -25.7153  -43.8572 H         1 UNK         0.3095 
     80 H80        19.2348  -23.9306  -45.5490 H         1 UNK         0.0454 
     81 H81        21.4658  -23.4088  -46.5228 H         1 UNK         0.0851 
     82 H82        21.4727  -24.9356  -47.3941 H         1 UNK         0.0851 
     83 H83        20.2875  -23.6927  -47.7933 H         1 UNK         0.0851 
     84 H84        19.4610  -26.3798  -47.2208 H         1 UNK         0.2976 
     85 H85        21.9709  -27.9329  -41.3690 H         1 UNK         0.3116 
     86 H86        22.1375  -26.1710  -39.1322 H         1 UNK         0.0646 
     87 H87        24.5701  -25.4928  -39.5488 H         1 UNK         0.0847 
     88 H88        23.4328  -24.6731  -40.6061 H         1 UNK         0.0847 
     89 H89        24.3904  -26.0149  -41.2203 H         1 UNK         0.0847 
     90 H90        22.7384  -27.4996  -37.5241 H         1 UNK         0.3040 
     91 H91        22.7277  -30.1930  -37.7749 H         1 UNK         0.1015 
     92 H92        23.9591  -28.5472  -35.5065 H         1 UNK         0.0786 
     93 H93        23.4942  -30.2382  -35.3859 H         1 UNK         0.0786 
     94 H94        22.2658  -29.0166  -35.6671 H         1 UNK         0.0786 
     95 H95        23.9933  -31.5375  -38.7872 H         1 UNK         0.3172 
     96 H96        25.6178  -32.9086  -39.2630 H         1 UNK         0.0595 
     97 H97        27.7436  -33.0582  -38.0574 H         1 UNK         0.0839 
     98 H98        27.5316  -31.4633  -37.3611 H         1 UNK         0.0839 
     99 H99        26.4523  -32.7813  -36.9015 H         1 UNK         0.0839 
    100 H100       25.5941  -29.7384  -40.1475 H         1 UNK         0.2998 
    101 H101       27.8574  -30.0044  -42.0870 H         1 UNK         0.0822 
    102 H102       27.3969  -27.6079  -42.5614 H         1 UNK         0.0787 
    103 H103       26.0990  -27.5993  -41.3761 H         1 UNK         0.0787 
    104 H104       27.7633  -27.8498  -40.8595 H         1 UNK         0.0787 
    105 H105       24.3201  -29.4758  -41.7856 H         1 UNK         0.3055 
    106 H106       23.7889  -31.0122  -44.2091 H         1 UNK         0.1106 
    107 H107       24.0182  -28.7862  -45.2414 H         1 UNK         0.0828 
    108 H108       22.3044  -29.1589  -45.1330 H         1 UNK         0.0828 
    109 H109       23.0342  -28.0398  -43.9884 H         1 UNK         0.0828 
    110 H110       22.5626  -32.4795  -43.1366 H         1 UNK         0.2931 
    111 H111       21.0281  -33.4523  -41.9074 H         1 UNK         0.0412 
    112 H112       19.5107  -32.6635  -39.5317 H         1 UNK         0.3472 
    113 H113       20.7199  -32.3730  -38.3142 H         1 UNK         0.3472 
    114 H114       19.4757  -30.8109  -41.9023 H         1 UNK         0.0970 
    115 H115       18.8388  -32.3399  -41.3579 H         1 UNK         0.0970 
    116 H116       16.9817  -32.9697  -42.6055 H         1 UNK         0.0612 
    117 H117       16.8499  -33.1254  -44.3344 H         1 UNK         0.0612 
@<TRIPOS>BOND
     1    1    2 1    
     2    1   62 1    
     3    1   63 1    
     4    1   64 1    
     5    2    3 2    
     6    2    4 am   BACKBONE|DICT|INTERRES
     7    4    5 1    
     8    4   65 1    
     9    5    6 1    
    10    5   25 1    
    11    5   66 1    
    12    6    7 1    
    13    6   67 1    
    14    6   68 1    
    15    7    8 1    
    16    8    9 1    
    17    8   69 1    
    18    8   70 1    
    19    9   10 ar   
    20    9   14 ar   
    21   10   11 ar   
    22   10   71 1    
    23   11   12 ar   
    24   11   61 1    
    25   12   13 ar   
    26   12   72 1    
    27   13   14 ar   
    28   13   15 1    
    29   14   73 1    
    30   15   16 1    
    31   15   74 1    
    32   15   75 1    
    33   16   17 1    
    34   17   18 1    
    35   17   76 1    
    36   17   77 1    
    37   18   19 1    
    38   18   27 1    
    39   18   78 1    
    40   19   20 am   BACKBONE|DICT|INTERRES
    41   19   79 1    
    42   20   21 2    
    43   20   22 1    
    44   22   23 1    
    45   22   24 1    
    46   22   80 1    
    47   23   81 1    
    48   23   82 1    
    49   23   83 1    
    50   24   25 am   BACKBONE|DICT|INTERRES
    51   24   84 1    
    52   25   26 2    
    53   27   28 2    
    54   27   29 am   BACKBONE|DICT|INTERRES
    55   29   30 1    
    56   29   85 1    
    57   30   31 1    
    58   30   32 1    
    59   30   86 1    
    60   31   87 1    
    61   31   88 1    
    62   31   89 1    
    63   32   33 2    
    64   32   34 am   BACKBONE|DICT|INTERRES
    65   34   35 1    
    66   34   90 1    
    67   35   36 1    
    68   35   37 1    
    69   35   91 1    
    70   36   92 1    
    71   36   93 1    
    72   36   94 1    
    73   37   38 2    
    74   37   39 am   BACKBONE|DICT|INTERRES
    75   39   40 1    
    76   39   95 1    
    77   40   41 1    
    78   40   42 1    
    79   40   96 1    
    80   41   97 1    
    81   41   98 1    
    82   41   99 1    
    83   42   43 2    
    84   42   44 am   BACKBONE|DICT|INTERRES
    85   44   45 1    
    86   44  100 1    
    87   45   46 1    
    88   45   47 1    
    89   45  101 1    
    90   46  102 1    
    91   46  103 1    
    92   46  104 1    
    93   47   48 2    
    94   47   49 am   BACKBONE|DICT|INTERRES
    95   49   50 1    
    96   49  105 1    
    97   50   51 1    
    98   50   52 1    
    99   50  106 1    
   100   51  107 1    
   101   51  108 1    
   102   51  109 1    
   103   52   53 2    
   104   52   54 am   BACKBONE|DICT|INTERRES
   105   54   55 1    
   106   54  110 1    
   107   55   56 1    
   108   55   59 1    
   109   55  111 1    
   110   56   57 am   BACKBONE|DICT|INTERRES
   111   56   58 2    
   112   57  112 1    
   113   57  113 1    
   114   59   60 1    
   115   59  114 1    
   116   59  115 1    
   117   60   61 1    
   118   61  116 1    
   119   61  117 1    
@<TRIPOS>SUBSTRUCTURE
     1 UNK         1 GROUP             0       ****    0 ROOT    
