@<TRIPOS>MOLECULE
3R8
117   119    1
SMALL
USER_CHARGES


@<TRIPOS>ATOM
      1 CA         19.6259  -28.7561  -42.0399 C.3       0 UNK        -0.2013 
      2 C          18.9225  -27.4119  -42.0835 C.2       0 UNK         0.4866 
      3 O          19.2458  -26.5190  -41.3004 O.2       0 UNK        -0.5176 
      4 N          17.9695  -27.2603  -43.0081 N.am      1 UNK        -0.4884 
      5 CA         17.1077  -26.0861  -43.1848 C.3       1 UNK         0.0853 
      6 C6         15.8052  -26.4554  -43.9459 C.3       10 UNK        -0.0849 
      7 S7         14.9481  -27.9087  -43.2426 S.3       10 UNK        -0.2776 
      8 C8         15.0488  -29.1058  -44.6155 C.3       10 UNK         0.0316 
      9 C9         16.4496  -29.6767  -44.8178 C.ar      10 UNK        -0.0863 
     10 C10        16.8701  -30.7834  -44.0727 C.ar      10 UNK        -0.1009 
     11 C11        18.1126  -31.3766  -44.3194 C.ar      10 UNK        -0.0712 
     12 C12        18.9447  -30.8434  -45.3086 C.ar      10 UNK        -0.0894 
     13 C13        18.5526  -29.7180  -46.0417 C.ar      10 UNK        -0.0745 
     14 C14        17.2996  -29.1455  -45.7948 C.ar      10 UNK        -0.0972 
     15 C15        19.4543  -29.1395  -47.1318 C.3       10 UNK         0.0209 
     16 S16        21.1820  -28.8801  -46.5970 S.3       10 UNK        -0.2568 
     17 C17        20.9694  -27.7237  -45.2063 C.3       10 UNK        -0.0983 
     18 CA         21.7274  -26.3814  -45.3623 C.3       3 UNK         0.0876 
     19 N          21.1402  -25.4044  -44.4523 N.am      3 UNK        -0.4424 
     20 C          20.7620  -24.1607  -44.7589 C.2       2 UNK         0.4918 
     21 O          20.9970  -23.6076  -45.8346 O.2       2 UNK        -0.4875 
     22 CA         19.9131  -23.4636  -43.6751 C.3       2 UNK         0.0481 
     23 CB         19.3206  -22.1148  -44.1350 C.3       2 UNK        -0.1831 
     24 N          18.8684  -24.3698  -43.1683 N.am      2 UNK        -0.4498 
     25 C          17.8797  -24.9398  -43.8777 C.2       1 UNK         0.5027 
     26 O          17.6139  -24.6401  -45.0433 O.2       1 UNK        -0.4969 
     27 C          23.2195  -26.5594  -45.0350 C.2       3 UNK         0.5005 
     28 O          23.6326  -26.3404  -43.8917 O.2       3 UNK        -0.5279 
     29 N          23.9830  -27.0609  -46.0167 N.am      4 UNK        -0.4463 
     30 CA         25.3853  -27.4791  -45.8795 C.3       4 UNK         0.0283 
     31 CB         25.9303  -27.8755  -47.2611 C.3       4 UNK        -0.1875 
     32 C          25.6034  -28.6228  -44.8668 C.2       4 UNK         0.4949 
     33 O          26.7272  -28.8099  -44.4016 O.2       4 UNK        -0.5039 
     34 N          24.5240  -29.3384  -44.5167 N.am      5 UNK        -0.4663 
     35 CA         24.4626  -30.3197  -43.4318 C.3       5 UNK         0.0242 
     36 CB         23.1262  -31.0751  -43.5226 C.3       5 UNK        -0.1982 
     37 C          24.6387  -29.7136  -42.0245 C.2       5 UNK         0.5017 
     38 O          24.8859  -30.4726  -41.0886 O.2       5 UNK        -0.5012 
     39 N          24.4944  -28.3836  -41.8818 N.am      6 UNK        -0.4439 
     40 CA         24.7246  -27.5985  -40.6588 C.3       6 UNK         0.0297 
     41 CB         26.2340  -27.5384  -40.3426 C.3       6 UNK        -0.2006 
     42 C          23.8828  -28.0649  -39.4524 C.2       6 UNK         0.4892 
     43 O          24.3773  -28.0924  -38.3245 O.2       6 UNK        -0.5089 
     44 N          22.6288  -28.4450  -39.7358 N.am      7 UNK        -0.4243 
     45 CA         21.6116  -28.9775  -38.8191 C.3       7 UNK         0.0196 
     46 CB         21.2777  -27.9673  -37.7011 C.3       7 UNK        -0.2007 
     47 C          21.9047  -30.3857  -38.2625 C.2       7 UNK         0.5020 
     48 O          21.1281  -30.8639  -37.4346 O.2       7 UNK        -0.5147 
     49 N          22.9643  -31.0624  -38.7355 N.am      8 UNK        -0.4734 
     50 CA         23.3366  -32.4151  -38.2957 C.3       8 UNK         0.0238 
     51 CB         24.7369  -32.7662  -38.8219 C.3       8 UNK        -0.1912 
     52 C          22.3228  -33.4983  -38.7061 C.2       8 UNK         0.5038 
     53 O          22.2286  -34.5217  -38.0274 O.2       8 UNK        -0.5046 
     54 N          21.5789  -33.2464  -39.7904 N.am      9 UNK        -0.4200 
     55 CA         20.4566  -34.0713  -40.2570 C.3       9 UNK         0.0839 
     56 C          19.1282  -33.8674  -39.4678 C.2       9 UNK         0.5513 
     57 N          19.0490  -32.9550  -38.5047 N.am      9 UNK        -0.7519 
     58 O          18.1517  -34.5666  -39.7253 O.2       9 UNK        -0.4960 
     59 C59        20.2707  -33.9530  -41.7924 C.3       10 UNK        -0.0876 
     60 S60        19.8786  -32.2642  -42.3701 S.3       10 UNK        -0.2414 
     61 C61        18.5429  -32.6192  -43.5528 C.3       10 UNK         0.0169 
     62 H62        20.6949  -28.6253  -41.8876 H         1 UNK         0.0903 
     63 H63        19.2253  -29.3626  -41.2286 H         1 UNK         0.0903 
     64 H64        19.4878  -29.3058  -42.9687 H         1 UNK         0.0903 
     65 H65        17.7445  -28.0399  -43.6131 H         1 UNK         0.3096 
     66 H66        16.8170  -25.7265  -42.1948 H         1 UNK         0.1121 
     67 H67        15.1111  -25.6133  -43.9237 H         1 UNK         0.0849 
     68 H68        16.0075  -26.6409  -45.0014 H         1 UNK         0.0849 
     69 H69        14.3552  -29.9229  -44.4109 H         1 UNK         0.0865 
     70 H70        14.6888  -28.6395  -45.5341 H         1 UNK         0.0865 
     71 H71        16.2148  -31.2018  -43.3206 H         1 UNK         0.1346 
     72 H72        19.9027  -31.3056  -45.5050 H         1 UNK         0.1412 
     73 H73        16.9755  -28.2984  -46.3840 H         1 UNK         0.1426 
     74 H74        19.0603  -28.1888  -47.4948 H         1 UNK         0.0716 
     75 H75        19.4509  -29.8197  -47.9842 H         1 UNK         0.0716 
     76 H76        19.9026  -27.5198  -45.1065 H         1 UNK         0.0695 
     77 H77        21.2580  -28.2369  -44.2885 H         1 UNK         0.0695 
     78 H78        21.6298  -26.0266  -46.3911 H         1 UNK         0.0983 
     79 H79        20.9776  -25.7304  -43.5114 H         1 UNK         0.3095 
     80 H80        20.5820  -23.2622  -42.8372 H         1 UNK         0.0454 
     81 H81        20.1131  -21.4124  -44.3956 H         1 UNK         0.0851 
     82 H82        18.6858  -22.2239  -45.0146 H         1 UNK         0.0851 
     83 H83        18.7256  -21.6537  -43.3470 H         1 UNK         0.0851 
     84 H84        19.0317  -24.7556  -42.2423 H         1 UNK         0.2976 
     85 H85        23.5492  -27.2462  -46.9110 H         1 UNK         0.3116 
     86 H86        25.9526  -26.6182  -45.5199 H         1 UNK         0.0646 
     87 H87        26.9811  -28.1623  -47.1989 H         1 UNK         0.0847 
     88 H88        25.8654  -27.0479  -47.9677 H         1 UNK         0.0847 
     89 H89        25.3869  -28.7225  -47.6821 H         1 UNK         0.0847 
     90 H90        23.6547  -29.1338  -44.9880 H         1 UNK         0.3040 
     91 H91        25.2761  -31.0339  -43.5769 H         1 UNK         0.1015 
     92 H92        23.0135  -31.5722  -44.4863 H         1 UNK         0.0786 
     93 H93        22.2727  -30.4095  -43.3890 H         1 UNK         0.0786 
     94 H94        23.0598  -31.8472  -42.7546 H         1 UNK         0.0786 
     95 H95        24.2613  -27.8342  -42.7050 H         1 UNK         0.3172 
     96 H96        24.3946  -26.5833  -40.8842 H         1 UNK         0.0595 
     97 H97        26.8047  -27.1828  -41.2005 H         1 UNK         0.0839 
     98 H98        26.6262  -28.5165  -40.0615 H         1 UNK         0.0839 
     99 H99        26.4355  -26.8566  -39.5155 H         1 UNK         0.0839 
    100 H100       22.3523  -28.3877  -40.7045 H         1 UNK         0.2998 
    101 H101       20.7074  -29.0926  -39.4149 H         1 UNK         0.0822 
    102 H102       21.0366  -26.9870  -38.1124 H         1 UNK         0.0787 
    103 H103       20.4122  -28.2946  -37.1236 H         1 UNK         0.0787 
    104 H104       22.1039  -27.8458  -37.0003 H         1 UNK         0.0787 
    105 H105       23.5684  -30.6262  -39.4245 H         1 UNK         0.3055 
    106 H106       23.3761  -32.4084  -37.2040 H         1 UNK         0.1106 
    107 H107       24.7503  -32.8502  -39.9092 H         1 UNK         0.0828 
    108 H108       25.4721  -32.0144  -38.5340 H         1 UNK         0.0828 
    109 H109       25.0753  -33.7220  -38.4197 H         1 UNK         0.0828 
    110 H110       21.7163  -32.3734  -40.2767 H         1 UNK         0.2931 
    111 H111       20.7313  -35.1113  -40.0701 H         1 UNK         0.0412 
    112 H112       18.1809  -32.8470  -38.0046 H         1 UNK         0.3472 
    113 H113       19.8434  -32.3784  -38.2585 H         1 UNK         0.3472 
    114 H114       19.4995  -34.6488  -42.1280 H         1 UNK         0.0970 
    115 H115       21.1844  -34.2728  -42.2955 H         1 UNK         0.0970 
    116 H116       17.6981  -33.0532  -43.0153 H         1 UNK         0.0612 
    117 H117       18.8823  -33.3755  -44.2622 H         1 UNK         0.0612 
@<TRIPOS>BOND
     1    1    2 1    
     2    1   62 1    
     3    1   63 1    
     4    1   64 1    
     5    2    3 2    
     6    2    4 am   BACKBONE|DICT|INTERRES
     7    4    5 1    
     8    4   65 1    
     9    5    6 1    
    10    5   25 1    
    11    5   66 1    
    12    6    7 1    
    13    6   67 1    
    14    6   68 1    
    15    7    8 1    
    16    8    9 1    
    17    8   69 1    
    18    8   70 1    
    19    9   10 ar   
    20    9   14 ar   
    21   10   11 ar   
    22   10   71 1    
    23   11   12 ar   
    24   11   61 1    
    25   12   13 ar   
    26   12   72 1    
    27   13   14 ar   
    28   13   15 1    
    29   14   73 1    
    30   15   16 1    
    31   15   74 1    
    32   15   75 1    
    33   16   17 1    
    34   17   18 1    
    35   17   76 1    
    36   17   77 1    
    37   18   19 1    
    38   18   27 1    
    39   18   78 1    
    40   19   20 am   BACKBONE|DICT|INTERRES
    41   19   79 1    
    42   20   21 2    
    43   20   22 1    
    44   22   23 1    
    45   22   24 1    
    46   22   80 1    
    47   23   81 1    
    48   23   82 1    
    49   23   83 1    
    50   24   25 am   BACKBONE|DICT|INTERRES
    51   24   84 1    
    52   25   26 2    
    53   27   28 2    
    54   27   29 am   BACKBONE|DICT|INTERRES
    55   29   30 1    
    56   29   85 1    
    57   30   31 1    
    58   30   32 1    
    59   30   86 1    
    60   31   87 1    
    61   31   88 1    
    62   31   89 1    
    63   32   33 2    
    64   32   34 am   BACKBONE|DICT|INTERRES
    65   34   35 1    
    66   34   90 1    
    67   35   36 1    
    68   35   37 1    
    69   35   91 1    
    70   36   92 1    
    71   36   93 1    
    72   36   94 1    
    73   37   38 2    
    74   37   39 am   BACKBONE|DICT|INTERRES
    75   39   40 1    
    76   39   95 1    
    77   40   41 1    
    78   40   42 1    
    79   40   96 1    
    80   41   97 1    
    81   41   98 1    
    82   41   99 1    
    83   42   43 2    
    84   42   44 am   BACKBONE|DICT|INTERRES
    85   44   45 1    
    86   44  100 1    
    87   45   46 1    
    88   45   47 1    
    89   45  101 1    
    90   46  102 1    
    91   46  103 1    
    92   46  104 1    
    93   47   48 2    
    94   47   49 am   BACKBONE|DICT|INTERRES
    95   49   50 1    
    96   49  105 1    
    97   50   51 1    
    98   50   52 1    
    99   50  106 1    
   100   51  107 1    
   101   51  108 1    
   102   51  109 1    
   103   52   53 2    
   104   52   54 am   BACKBONE|DICT|INTERRES
   105   54   55 1    
   106   54  110 1    
   107   55   56 1    
   108   55   59 1    
   109   55  111 1    
   110   56   57 am   BACKBONE|DICT|INTERRES
   111   56   58 2    
   112   57  112 1    
   113   57  113 1    
   114   59   60 1    
   115   59  114 1    
   116   59  115 1    
   117   60   61 1    
   118   61  116 1    
   119   61  117 1    
@<TRIPOS>SUBSTRUCTURE
     1 UNK         1 GROUP             0       ****    0 ROOT    
