@<TRIPOS>MOLECULE
3R8
117   119    1
SMALL
USER_CHARGES


@<TRIPOS>ATOM
      1 CA         15.2157  -22.0085  -45.1882 C.3       0 UNK        -0.2013 
      2 C          16.2574  -22.9954  -45.6942 C.2       0 UNK         0.4866 
      3 O          17.2365  -22.5846  -46.3186 O.2       0 UNK        -0.5176 
      4 N          16.0499  -24.2932  -45.4373 N.am      1 UNK        -0.4884 
      5 CA         16.9831  -25.3722  -45.7812 C.3       1 UNK         0.0853 
      6 C6         16.2350  -26.7177  -45.9534 C.3       10 UNK        -0.0849 
      7 S7         17.0779  -27.8322  -47.1303 S.3       10 UNK        -0.2776 
      8 C8         16.6629  -29.4736  -46.4622 C.3       10 UNK         0.0316 
      9 C9         17.4535  -29.7910  -45.2020 C.ar      10 UNK        -0.0863 
     10 C10        18.7507  -30.3013  -45.2934 C.ar      10 UNK        -0.1009 
     11 C11        19.4672  -30.6292  -44.1382 C.ar      10 UNK        -0.0712 
     12 C12        18.8910  -30.4102  -42.8822 C.ar      10 UNK        -0.0894 
     13 C13        17.6018  -29.8772  -42.7787 C.ar      10 UNK        -0.0745 
     14 C14        16.8816  -29.5960  -43.9431 C.ar      10 UNK        -0.0972 
     15 C15        16.9649  -29.6171  -41.4198 C.3       10 UNK         0.0209 
     16 S16        16.5081  -27.8618  -41.2184 S.3       10 UNK        -0.2568 
     17 C17        17.8856  -27.1644  -40.2463 C.3       10 UNK        -0.0983 
     18 CA         19.2994  -27.3428  -40.8539 C.3       3 UNK         0.0876 
     19 N          19.3984  -26.8617  -42.2346 N.am      3 UNK        -0.4424 
     20 C          20.4650  -27.0338  -43.0248 C.2       2 UNK         0.4918 
     21 O          21.4551  -27.6794  -42.6740 O.2       2 UNK        -0.4875 
     22 CA         20.4645  -26.3522  -44.4122 C.3       2 UNK         0.0481 
     23 CB         21.4673  -27.0170  -45.3743 C.3       2 UNK        -0.1831 
     24 N          19.1641  -26.2584  -45.0872 N.am      2 UNK        -0.4498 
     25 C          18.1449  -25.4531  -44.7621 C.2       1 UNK         0.5027 
     26 O          18.1088  -24.7939  -43.7193 O.2       1 UNK        -0.4969 
     27 C          20.3464  -26.6244  -39.9800 C.2       3 UNK         0.5005 
     28 O          20.4030  -25.3927  -40.0023 O.2       3 UNK        -0.5279 
     29 N          21.1852  -27.3971  -39.2751 N.am      4 UNK        -0.4463 
     30 CA         22.3282  -26.9832  -38.4423 C.3       4 UNK         0.0283 
     31 CB         21.8878  -26.0603  -37.2885 C.3       4 UNK        -0.1875 
     32 C          23.5182  -26.3770  -39.2161 C.2       4 UNK         0.4949 
     33 O          24.6489  -26.4866  -38.7412 O.2       4 UNK        -0.5039 
     34 N          23.2678  -25.7722  -40.3858 N.am      5 UNK        -0.4663 
     35 CA         24.2826  -25.2936  -41.3277 C.3       5 UNK         0.0242 
     36 CB         23.6127  -24.4487  -42.4228 C.3       5 UNK        -0.1982 
     37 C          25.0850  -26.4522  -41.9424 C.2       5 UNK         0.5017 
     38 O          26.3085  -26.3536  -42.0432 O.2       5 UNK        -0.5012 
     39 N          24.3848  -27.5365  -42.2983 N.am      6 UNK        -0.4439 
     40 CA         24.9683  -28.8368  -42.6111 C.3       6 UNK         0.0297 
     41 CB         24.1923  -29.4698  -43.7754 C.3       6 UNK        -0.2006 
     42 C          24.8816  -29.7260  -41.3632 C.2       6 UNK         0.4892 
     43 O          23.9600  -29.5702  -40.5556 O.2       6 UNK        -0.5089 
     44 N          25.8248  -30.6678  -41.2415 N.am      7 UNK        -0.4243 
     45 CA         25.9223  -31.6308  -40.1412 C.3       7 UNK         0.0196 
     46 CB         27.3575  -32.1877  -40.0929 C.3       7 UNK        -0.2007 
     47 C          24.8627  -32.7426  -40.2617 C.2       7 UNK         0.5020 
     48 O          25.1996  -33.8889  -40.5607 O.2       7 UNK        -0.5147 
     49 N          23.5904  -32.3654  -40.0803 N.am      8 UNK        -0.4734 
     50 CA         22.3560  -33.1684  -40.1198 C.3       8 UNK         0.0238 
     51 CB         22.3815  -34.2826  -39.0547 C.3       8 UNK        -0.1912 
     52 C          21.9742  -33.7380  -41.5005 C.2       8 UNK         0.5038 
     53 O          20.7824  -33.9161  -41.7458 O.2       8 UNK        -0.5046 
     54 N          22.9725  -34.0090  -42.3510 N.am      9 UNK        -0.4200 
     55 CA         22.9101  -34.5184  -43.7327 C.3       9 UNK         0.0839 
     56 C          22.2048  -35.8933  -43.9493 C.2       9 UNK         0.5513 
     57 N          21.9108  -36.6607  -42.9071 N.am      9 UNK        -0.7519 
     58 O          21.9691  -36.2994  -45.0847 O.2       9 UNK        -0.4960 
     59 C59        22.5445  -33.4263  -44.7826 C.3       10 UNK        -0.0876 
     60 S60        20.7851  -32.9424  -44.8534 S.3       10 UNK        -0.2414 
     61 C61        20.8598  -31.2270  -44.2544 C.3       10 UNK         0.0169 
     62 H62        14.7951  -21.4461  -46.0214 H         1 UNK         0.0903 
     63 H63        14.3976  -22.5081  -44.6694 H         1 UNK         0.0903 
     64 H64        15.6741  -21.3020  -44.4967 H         1 UNK         0.0903 
     65 H65        15.2488  -24.5650  -44.8850 H         1 UNK         0.3096 
     66 H66        17.4310  -25.1097  -46.7430 H         1 UNK         0.1121 
     67 H67        16.0765  -27.2001  -44.9893 H         1 UNK         0.0849 
     68 H68        15.2376  -26.5443  -46.3614 H         1 UNK         0.0849 
     69 H69        15.5899  -29.5321  -46.2724 H         1 UNK         0.0865 
     70 H70        16.8751  -30.2265  -47.2229 H         1 UNK         0.0865 
     71 H71        19.1971  -30.4655  -46.2648 H         1 UNK         0.1346 
     72 H72        19.4468  -30.6584  -41.9888 H         1 UNK         0.1412 
     73 H73        15.8743  -29.2110  -43.8622 H         1 UNK         0.1426 
     74 H74        17.6160  -29.9328  -40.6036 H         1 UNK         0.0716 
     75 H75        16.0609  -30.2223  -41.3395 H         1 UNK         0.0716 
     76 H76        17.8467  -27.6098  -39.2503 H         1 UNK         0.0695 
     77 H77        17.6664  -26.1034  -40.1082 H         1 UNK         0.0695 
     78 H78        19.5371  -28.4071  -40.8659 H         1 UNK         0.0983 
     79 H79        18.6600  -26.2475  -42.5603 H         1 UNK         0.3095 
     80 H80        20.8077  -25.3302  -44.2429 H         1 UNK         0.0454 
     81 H81        21.2102  -28.0604  -45.5606 H         1 UNK         0.0851 
     82 H82        22.4790  -26.9976  -44.9668 H         1 UNK         0.0851 
     83 H83        21.5033  -26.5015  -46.3339 H         1 UNK         0.0851 
     84 H84        19.0556  -26.8301  -45.9146 H         1 UNK         0.2976 
     85 H85        21.0916  -28.3988  -39.3752 H         1 UNK         0.3116 
     86 H86        22.7026  -27.9054  -37.9948 H         1 UNK         0.0646 
     87 H87        21.5396  -25.0917  -37.6478 H         1 UNK         0.0847 
     88 H88        22.7183  -25.8692  -36.6077 H         1 UNK         0.0847 
     89 H89        21.0864  -26.5101  -36.7026 H         1 UNK         0.0847 
     90 H90        22.2950  -25.6623  -40.6493 H         1 UNK         0.3040 
     91 H91        24.9804  -24.6579  -40.7781 H         1 UNK         0.1015 
     92 H92        22.9079  -25.0355  -43.0113 H         1 UNK         0.0786 
     93 H93        24.3562  -24.0462  -43.1122 H         1 UNK         0.0786 
     94 H94        23.0730  -23.6023  -41.9976 H         1 UNK         0.0786 
     95 H95        23.3786  -27.5367  -42.1541 H         1 UNK         0.3172 
     96 H96        26.0149  -28.7283  -42.9037 H         1 UNK         0.0595 
     97 H97        24.5912  -30.4526  -44.0287 H         1 UNK         0.0839 
     98 H98        24.2516  -28.8537  -44.6725 H         1 UNK         0.0839 
     99 H99        23.1395  -29.5957  -43.5263 H         1 UNK         0.0839 
    100 H100       26.5219  -30.7492  -41.9680 H         1 UNK         0.2998 
    101 H101       25.7389  -31.1066  -39.2004 H         1 UNK         0.0822 
    102 H102       27.4716  -32.9012  -39.2754 H         1 UNK         0.0787 
    103 H103       27.6243  -32.7042  -41.0159 H         1 UNK         0.0787 
    104 H104       28.0861  -31.3931  -39.9303 H         1 UNK         0.0787 
    105 H105       23.4486  -31.3647  -39.9614 H         1 UNK         0.3055 
    106 H106       21.5535  -32.4792  -39.8508 H         1 UNK         0.1106 
    107 H107       21.4250  -34.8058  -39.0163 H         1 UNK         0.0828 
    108 H108       23.1490  -35.0291  -39.2610 H         1 UNK         0.0828 
    109 H109       22.5671  -33.8766  -38.0604 H         1 UNK         0.0828 
    110 H110       23.9084  -33.9119  -41.9696 H         1 UNK         0.2931 
    111 H111       23.9541  -34.7598  -43.9360 H         1 UNK         0.0412 
    112 H112       22.0947  -36.3385  -41.9708 H         1 UNK         0.3472 
    113 H113       21.4718  -37.5552  -43.0589 H         1 UNK         0.3472 
    114 H114       23.1586  -32.5407  -44.6156 H         1 UNK         0.0970 
    115 H115       22.8213  -33.7758  -45.7788 H         1 UNK         0.0970 
    116 H116       21.3680  -31.2052  -43.2891 H         1 UNK         0.0612 
    117 H117       21.4569  -30.6282  -44.9433 H         1 UNK         0.0612 
@<TRIPOS>BOND
     1    1    2 1    
     2    1   62 1    
     3    1   63 1    
     4    1   64 1    
     5    2    3 2    
     6    2    4 am   BACKBONE|DICT|INTERRES
     7    4    5 1    
     8    4   65 1    
     9    5    6 1    
    10    5   25 1    
    11    5   66 1    
    12    6    7 1    
    13    6   67 1    
    14    6   68 1    
    15    7    8 1    
    16    8    9 1    
    17    8   69 1    
    18    8   70 1    
    19    9   10 ar   
    20    9   14 ar   
    21   10   11 ar   
    22   10   71 1    
    23   11   12 ar   
    24   11   61 1    
    25   12   13 ar   
    26   12   72 1    
    27   13   14 ar   
    28   13   15 1    
    29   14   73 1    
    30   15   16 1    
    31   15   74 1    
    32   15   75 1    
    33   16   17 1    
    34   17   18 1    
    35   17   76 1    
    36   17   77 1    
    37   18   19 1    
    38   18   27 1    
    39   18   78 1    
    40   19   20 am   BACKBONE|DICT|INTERRES
    41   19   79 1    
    42   20   21 2    
    43   20   22 1    
    44   22   23 1    
    45   22   24 1    
    46   22   80 1    
    47   23   81 1    
    48   23   82 1    
    49   23   83 1    
    50   24   25 am   BACKBONE|DICT|INTERRES
    51   24   84 1    
    52   25   26 2    
    53   27   28 2    
    54   27   29 am   BACKBONE|DICT|INTERRES
    55   29   30 1    
    56   29   85 1    
    57   30   31 1    
    58   30   32 1    
    59   30   86 1    
    60   31   87 1    
    61   31   88 1    
    62   31   89 1    
    63   32   33 2    
    64   32   34 am   BACKBONE|DICT|INTERRES
    65   34   35 1    
    66   34   90 1    
    67   35   36 1    
    68   35   37 1    
    69   35   91 1    
    70   36   92 1    
    71   36   93 1    
    72   36   94 1    
    73   37   38 2    
    74   37   39 am   BACKBONE|DICT|INTERRES
    75   39   40 1    
    76   39   95 1    
    77   40   41 1    
    78   40   42 1    
    79   40   96 1    
    80   41   97 1    
    81   41   98 1    
    82   41   99 1    
    83   42   43 2    
    84   42   44 am   BACKBONE|DICT|INTERRES
    85   44   45 1    
    86   44  100 1    
    87   45   46 1    
    88   45   47 1    
    89   45  101 1    
    90   46  102 1    
    91   46  103 1    
    92   46  104 1    
    93   47   48 2    
    94   47   49 am   BACKBONE|DICT|INTERRES
    95   49   50 1    
    96   49  105 1    
    97   50   51 1    
    98   50   52 1    
    99   50  106 1    
   100   51  107 1    
   101   51  108 1    
   102   51  109 1    
   103   52   53 2    
   104   52   54 am   BACKBONE|DICT|INTERRES
   105   54   55 1    
   106   54  110 1    
   107   55   56 1    
   108   55   59 1    
   109   55  111 1    
   110   56   57 am   BACKBONE|DICT|INTERRES
   111   56   58 2    
   112   57  112 1    
   113   57  113 1    
   114   59   60 1    
   115   59  114 1    
   116   59  115 1    
   117   60   61 1    
   118   61  116 1    
   119   61  117 1    
@<TRIPOS>SUBSTRUCTURE
     1 UNK         1 GROUP             0       ****    0 ROOT    
