@<TRIPOS>MOLECULE
3R8
117   119    1
SMALL
USER_CHARGES


@<TRIPOS>ATOM
      1 CA         17.6549  -23.1276  -41.8764 C.3       0 UNK        -0.2013 
      2 C          17.6565  -24.3710  -42.7521 C.2       0 UNK         0.4866 
      3 O          18.4287  -25.2943  -42.4888 O.2       0 UNK        -0.5176 
      4 N          16.8048  -24.3936  -43.7902 N.am      1 UNK        -0.4884 
      5 CA         16.6597  -25.4722  -44.7801 C.3       1 UNK         0.0853 
      6 C6         16.0221  -26.7495  -44.1507 C.3       10 UNK        -0.0849 
      7 S7         15.2906  -27.8882  -45.3831 S.3       10 UNK        -0.2776 
      8 C8         14.9881  -29.3979  -44.4072 C.3       10 UNK         0.0316 
      9 C9         16.2693  -30.0399  -43.8875 C.ar      10 UNK        -0.0863 
     10 C10        17.0543  -30.8517  -44.7180 C.ar      10 UNK        -0.1009 
     11 C11        18.2098  -31.4656  -44.2185 C.ar      10 UNK        -0.0712 
     12 C12        18.5698  -31.2615  -42.8875 C.ar      10 UNK        -0.0894 
     13 C13        17.8074  -30.4456  -42.0534 C.ar      10 UNK        -0.0745 
     14 C14        16.6512  -29.8442  -42.5559 C.ar      10 UNK        -0.0972 
     15 C15        18.2477  -30.2051  -40.6165 C.3       10 UNK         0.0209 
     16 S16        19.9435  -29.5417  -40.5202 S.3       10 UNK        -0.2568 
     17 C17        19.7861  -28.0057  -41.4860 C.3       10 UNK        -0.0983 
     18 CA         20.7303  -27.9571  -42.7320 C.3       3 UNK         0.0876 
     19 N          19.9890  -27.7691  -43.9800 N.am      3 UNK        -0.4424 
     20 C          20.4926  -27.7992  -45.2258 C.2       2 UNK         0.4918 
     21 O          21.6666  -28.0557  -45.4910 O.2       2 UNK        -0.4875 
     22 CA         19.5272  -27.4824  -46.3872 C.3       2 UNK         0.0481 
     23 CB         19.2816  -28.7212  -47.2625 C.3       2 UNK        -0.1831 
     24 N          18.2393  -26.9805  -45.9132 N.am      2 UNK        -0.4498 
     25 C          17.9913  -25.7221  -45.5347 C.2       1 UNK         0.5027 
     26 O          18.7709  -24.7877  -45.7388 O.2       1 UNK        -0.4969 
     27 C          21.8068  -26.8661  -42.5834 C.2       3 UNK         0.5005 
     28 O          22.9968  -27.1498  -42.7216 O.2       3 UNK        -0.5279 
     29 N          21.3646  -25.6285  -42.3078 N.am      4 UNK        -0.4463 
     30 CA         22.1919  -24.4781  -41.9286 C.3       4 UNK         0.0283 
     31 CB         22.9679  -23.9352  -43.1497 C.3       4 UNK        -0.1875 
     32 C          23.0798  -24.8212  -40.7125 C.2       4 UNK         0.4949 
     33 O          22.5582  -24.9018  -39.6000 O.2       4 UNK        -0.5039 
     34 N          24.3787  -25.0503  -40.9457 N.am      5 UNK        -0.4663 
     35 CA         25.3484  -25.4913  -39.9391 C.3       5 UNK         0.0242 
     36 CB         26.6468  -24.6883  -40.1313 C.3       5 UNK        -0.1982 
     37 C          25.6438  -27.0043  -39.9975 C.2       5 UNK         0.5017 
     38 O          26.3113  -27.5071  -39.0922 O.2       5 UNK        -0.5012 
     39 N          25.1806  -27.7074  -41.0408 N.am      6 UNK        -0.4439 
     40 CA         25.4106  -29.1350  -41.2574 C.3       6 UNK         0.0297 
     41 CB         25.6687  -29.3874  -42.7547 C.3       6 UNK        -0.2006 
     42 C          24.1926  -29.9175  -40.7538 C.2       6 UNK         0.4892 
     43 O          23.2345  -30.1097  -41.5043 O.2       6 UNK        -0.5089 
     44 N          24.2454  -30.3369  -39.4821 N.am      7 UNK        -0.4243 
     45 CA         23.1995  -31.1046  -38.7996 C.3       7 UNK         0.0196 
     46 CB         23.6591  -31.4369  -37.3710 C.3       7 UNK        -0.2007 
     47 C          22.8238  -32.3864  -39.5638 C.2       7 UNK         0.5020 
     48 O          23.7049  -33.1927  -39.8709 O.2       7 UNK        -0.5147 
     49 N          21.5306  -32.5167  -39.8910 N.am      8 UNK        -0.4734 
     50 CA         20.9219  -33.5877  -40.6939 C.3       8 UNK         0.0238 
     51 CB         20.9775  -34.9310  -39.9350 C.3       8 UNK        -0.1912 
     52 C          21.4898  -33.6967  -42.1276 C.2       8 UNK         0.5038 
     53 O          21.4169  -34.7734  -42.7218 O.2       8 UNK        -0.5046 
     54 N          22.0457  -32.5929  -42.6521 N.am      9 UNK        -0.4200 
     55 CA         22.7920  -32.5148  -43.9192 C.3       9 UNK         0.0839 
     56 C          24.1435  -33.2951  -43.8994 C.2       9 UNK         0.5513 
     57 N          24.6963  -33.6426  -42.7415 N.am      9 UNK        -0.7519 
     58 O          24.7247  -33.5641  -44.9477 O.2       9 UNK        -0.4960 
     59 C59        21.9208  -32.8101  -45.1797 C.3       10 UNK        -0.0876 
     60 S60        20.6627  -31.5199  -45.4721 S.3       10 UNK        -0.2414 
     61 C61        19.0889  -32.3520  -45.0888 C.3       10 UNK         0.0169 
     62 H62        18.6378  -22.6576  -41.8937 H         1 UNK         0.0903 
     63 H63        16.9210  -22.3937  -42.2088 H         1 UNK         0.0903 
     64 H64        17.4237  -23.3965  -40.8461 H         1 UNK         0.0903 
     65 H65        16.2288  -23.5806  -43.9616 H         1 UNK         0.3096 
     66 H66        15.9670  -25.0889  -45.5315 H         1 UNK         0.1121 
     67 H67        15.2173  -26.4603  -43.4729 H         1 UNK         0.0849 
     68 H68        16.7507  -27.2730  -43.5314 H         1 UNK         0.0849 
     69 H69        14.3144  -29.1609  -43.5820 H         1 UNK         0.0865 
     70 H70        14.4541  -30.1162  -45.0311 H         1 UNK         0.0865 
     71 H71        16.7632  -31.0070  -45.7479 H         1 UNK         0.1346 
     72 H72        19.4705  -31.7140  -42.5073 H         1 UNK         0.1412 
     73 H73        16.0502  -29.2170  -41.9115 H         1 UNK         0.1426 
     74 H74        18.2007  -31.1459  -40.0667 H         1 UNK         0.0716 
     75 H75        17.5705  -29.5154  -40.1103 H         1 UNK         0.0716 
     76 H76        19.9610  -27.1910  -40.7810 H         1 UNK         0.0695 
     77 H77        18.7451  -27.8780  -41.7838 H         1 UNK         0.0695 
     78 H78        21.2539  -28.9108  -42.8287 H         1 UNK         0.0983 
     79 H79        19.0201  -27.5138  -43.8735 H         1 UNK         0.3095 
     80 H80        20.0021  -26.7199  -47.0081 H         1 UNK         0.0454 
     81 H81        18.6722  -28.4778  -48.1327 H         1 UNK         0.0851 
     82 H82        18.7742  -29.5110  -46.7089 H         1 UNK         0.0851 
     83 H83        20.2217  -29.1339  -47.6308 H         1 UNK         0.0851 
     84 H84        17.5128  -27.6691  -45.7541 H         1 UNK         0.2976 
     85 H85        20.3570  -25.4911  -42.2529 H         1 UNK         0.3116 
     86 H86        21.5055  -23.6963  -41.5999 H         1 UNK         0.0646 
     87 H87        23.6224  -24.6827  -43.5986 H         1 UNK         0.0847 
     88 H88        23.5819  -23.0764  -42.8751 H         1 UNK         0.0847 
     89 H89        22.2800  -23.5998  -43.9260 H         1 UNK         0.0847 
     90 H90        24.7085  -24.9944  -41.8990 H         1 UNK         0.3040 
     91 H91        24.9684  -25.2815  -38.9367 H         1 UNK         0.1015 
     92 H92        27.0934  -24.8694  -41.1098 H         1 UNK         0.0786 
     93 H93        27.3898  -24.9573  -39.3790 H         1 UNK         0.0786 
     94 H94        26.4675  -23.6171  -40.0369 H         1 UNK         0.0786 
     95 H95        24.5137  -27.2771  -41.6812 H         1 UNK         0.3172 
     96 H96        26.2948  -29.4701  -40.7108 H         1 UNK         0.0595 
     97 H97        24.8322  -29.0601  -43.3742 H         1 UNK         0.0839 
     98 H98        25.8193  -30.4502  -42.9489 H         1 UNK         0.0839 
     99 H99        26.5613  -28.8636  -43.0962 H         1 UNK         0.0839 
    100 H100       25.0725  -30.1226  -38.9433 H         1 UNK         0.2998 
    101 H101       22.3209  -30.4598  -38.7332 H         1 UNK         0.0822 
    102 H102       22.8895  -31.9927  -36.8336 H         1 UNK         0.0787 
    103 H103       24.5626  -32.0484  -37.3707 H         1 UNK         0.0787 
    104 H104       23.8642  -30.5324  -36.7979 H         1 UNK         0.0787 
    105 H105       20.9062  -31.7622  -39.6347 H         1 UNK         0.3055 
    106 H106       19.8693  -33.3252  -40.8084 H         1 UNK         0.1106 
    107 H107       20.3966  -35.6974  -40.4497 H         1 UNK         0.0828 
    108 H108       21.9983  -35.3041  -39.8463 H         1 UNK         0.0828 
    109 H109       20.5658  -34.8374  -38.9302 H         1 UNK         0.0828 
    110 H110       22.1178  -31.7607  -42.0756 H         1 UNK         0.2931 
    111 H111       23.1031  -31.4717  -43.9907 H         1 UNK         0.0412 
    112 H112       24.2449  -33.4301  -41.8589 H         1 UNK         0.3472 
    113 H113       25.5741  -34.1371  -42.7468 H         1 UNK         0.3472 
    114 H114       21.4623  -33.7976  -45.1287 H         1 UNK         0.0970 
    115 H115       22.5424  -32.8264  -46.0763 H         1 UNK         0.0970 
    116 H116       19.2722  -33.2912  -44.5652 H         1 UNK         0.0612 
    117 H117       18.5835  -32.6076  -46.0211 H         1 UNK         0.0612 
@<TRIPOS>BOND
     1    1    2 1    
     2    1   62 1    
     3    1   63 1    
     4    1   64 1    
     5    2    3 2    
     6    2    4 am   BACKBONE|DICT|INTERRES
     7    4    5 1    
     8    4   65 1    
     9    5    6 1    
    10    5   25 1    
    11    5   66 1    
    12    6    7 1    
    13    6   67 1    
    14    6   68 1    
    15    7    8 1    
    16    8    9 1    
    17    8   69 1    
    18    8   70 1    
    19    9   10 ar   
    20    9   14 ar   
    21   10   11 ar   
    22   10   71 1    
    23   11   12 ar   
    24   11   61 1    
    25   12   13 ar   
    26   12   72 1    
    27   13   14 ar   
    28   13   15 1    
    29   14   73 1    
    30   15   16 1    
    31   15   74 1    
    32   15   75 1    
    33   16   17 1    
    34   17   18 1    
    35   17   76 1    
    36   17   77 1    
    37   18   19 1    
    38   18   27 1    
    39   18   78 1    
    40   19   20 am   BACKBONE|DICT|INTERRES
    41   19   79 1    
    42   20   21 2    
    43   20   22 1    
    44   22   23 1    
    45   22   24 1    
    46   22   80 1    
    47   23   81 1    
    48   23   82 1    
    49   23   83 1    
    50   24   25 am   BACKBONE|DICT|INTERRES
    51   24   84 1    
    52   25   26 2    
    53   27   28 2    
    54   27   29 am   BACKBONE|DICT|INTERRES
    55   29   30 1    
    56   29   85 1    
    57   30   31 1    
    58   30   32 1    
    59   30   86 1    
    60   31   87 1    
    61   31   88 1    
    62   31   89 1    
    63   32   33 2    
    64   32   34 am   BACKBONE|DICT|INTERRES
    65   34   35 1    
    66   34   90 1    
    67   35   36 1    
    68   35   37 1    
    69   35   91 1    
    70   36   92 1    
    71   36   93 1    
    72   36   94 1    
    73   37   38 2    
    74   37   39 am   BACKBONE|DICT|INTERRES
    75   39   40 1    
    76   39   95 1    
    77   40   41 1    
    78   40   42 1    
    79   40   96 1    
    80   41   97 1    
    81   41   98 1    
    82   41   99 1    
    83   42   43 2    
    84   42   44 am   BACKBONE|DICT|INTERRES
    85   44   45 1    
    86   44  100 1    
    87   45   46 1    
    88   45   47 1    
    89   45  101 1    
    90   46  102 1    
    91   46  103 1    
    92   46  104 1    
    93   47   48 2    
    94   47   49 am   BACKBONE|DICT|INTERRES
    95   49   50 1    
    96   49  105 1    
    97   50   51 1    
    98   50   52 1    
    99   50  106 1    
   100   51  107 1    
   101   51  108 1    
   102   51  109 1    
   103   52   53 2    
   104   52   54 am   BACKBONE|DICT|INTERRES
   105   54   55 1    
   106   54  110 1    
   107   55   56 1    
   108   55   59 1    
   109   55  111 1    
   110   56   57 am   BACKBONE|DICT|INTERRES
   111   56   58 2    
   112   57  112 1    
   113   57  113 1    
   114   59   60 1    
   115   59  114 1    
   116   59  115 1    
   117   60   61 1    
   118   61  116 1    
   119   61  117 1    
@<TRIPOS>SUBSTRUCTURE
     1 UNK         1 GROUP             0       ****    0 ROOT    
