@<TRIPOS>MOLECULE
3R8
117   119    1
SMALL
USER_CHARGES


@<TRIPOS>ATOM
      1 CA         16.2360  -28.0656  -40.8767 C.3       0 UNK        -0.2013 
      2 C          16.3260  -26.8879  -41.8352 C.2       0 UNK         0.4866 
      3 O          16.0130  -25.7615  -41.4470 O.2       0 UNK        -0.5176 
      4 N          16.7322  -27.1449  -43.0847 N.am      1 UNK        -0.4884 
      5 CA         16.8722  -26.1399  -44.1477 C.3       1 UNK         0.0853 
      6 C6         16.4461  -26.6849  -45.5417 C.3       10 UNK        -0.0849 
      7 S7         14.8340  -27.5521  -45.5010 S.3       10 UNK        -0.2776 
      8 C8         15.1801  -29.1408  -46.3339 C.3       10 UNK         0.0316 
      9 C9         16.4294  -29.8433  -45.8140 C.ar      10 UNK        -0.0863 
     10 C10        16.4960  -30.3048  -44.4939 C.ar      10 UNK        -0.1009 
     11 C11        17.6555  -30.9309  -44.0242 C.ar      10 UNK        -0.0712 
     12 C12        18.7304  -31.1295  -44.8931 C.ar      10 UNK        -0.0894 
     13 C13        18.6920  -30.6374  -46.1989 C.ar      10 UNK        -0.0745 
     14 C14        17.5324  -30.0101  -46.6596 C.ar      10 UNK        -0.0972 
     15 C15        19.9195  -30.7474  -47.0928 C.3       10 UNK         0.0209 
     16 S16        20.9034  -29.2091  -47.0895 S.3       10 UNK        -0.2568 
     17 C17        21.4947  -29.1501  -45.3616 C.3       10 UNK        -0.0983 
     18 CA         21.9871  -27.7599  -44.8913 C.3       3 UNK         0.0876 
     19 N          21.0470  -26.6914  -45.2394 N.am      3 UNK        -0.4424 
     20 C          21.2838  -25.3772  -45.1338 C.2       2 UNK         0.4918 
     21 O          22.3602  -24.9049  -44.7670 O.2       2 UNK        -0.4875 
     22 CA         20.1085  -24.4290  -45.4528 C.3       2 UNK         0.0481 
     23 CB         20.2365  -23.8900  -46.8862 C.3       2 UNK        -0.1831 
     24 N          18.7707  -25.0171  -45.2741 N.am      2 UNK        -0.4498 
     25 C          18.3067  -25.5604  -44.1367 C.2       1 UNK         0.5027 
     26 O          18.9920  -25.6340  -43.1146 O.2       1 UNK        -0.4969 
     27 C          22.3012  -27.8208  -43.3779 C.2       3 UNK         0.5005 
     28 O          23.3394  -28.3719  -43.0130 O.2       3 UNK        -0.5279 
     29 N          21.4267  -27.2605  -42.5223 N.am      4 UNK        -0.4463 
     30 CA         21.5285  -27.2835  -41.0553 C.3       4 UNK         0.0283 
     31 CB         20.2003  -26.8132  -40.4412 C.3       4 UNK        -0.1875 
     32 C          22.7113  -26.4863  -40.4698 C.2       4 UNK         0.4949 
     33 O          22.9334  -26.5432  -39.2599 O.2       4 UNK        -0.5039 
     34 N          23.4685  -25.7806  -41.3219 N.am      5 UNK        -0.4663 
     35 CA         24.7957  -25.2466  -41.0052 C.3       5 UNK         0.0242 
     36 CB         25.2294  -24.2910  -42.1283 C.3       5 UNK        -0.1982 
     37 C          25.8493  -26.3563  -40.7999 C.2       5 UNK         0.5017 
     38 O          26.8502  -26.1139  -40.1243 O.2       5 UNK        -0.5012 
     39 N          25.6023  -27.5425  -41.3717 N.am      6 UNK        -0.4439 
     40 CA         26.3606  -28.7736  -41.1710 C.3       6 UNK         0.0297 
     41 CB         26.7133  -29.3529  -42.5537 C.3       6 UNK        -0.2006 
     42 C          25.5145  -29.7684  -40.3565 C.2       6 UNK         0.4892 
     43 O          24.3538  -29.4984  -40.0418 O.2       6 UNK        -0.5089 
     44 N          26.1016  -30.9327  -40.0535 N.am      7 UNK        -0.4243 
     45 CA         25.4735  -32.0293  -39.3037 C.3       7 UNK         0.0196 
     46 CB         26.5807  -32.9685  -38.7926 C.3       7 UNK        -0.2007 
     47 C          24.3983  -32.8188  -40.0844 C.2       7 UNK         0.5020 
     48 O          23.8846  -33.8055  -39.5564 O.2       7 UNK        -0.5147 
     49 N          24.0766  -32.3948  -41.3154 N.am      8 UNK        -0.4734 
     50 CA         23.1514  -33.0399  -42.2552 C.3       8 UNK         0.0238 
     51 CB         23.0711  -32.1877  -43.5320 C.3       8 UNK        -0.1912 
     52 C          21.7355  -33.2996  -41.7099 C.2       8 UNK         0.5038 
     53 O          21.1321  -34.3082  -42.0786 O.2       8 UNK        -0.5046 
     54 N          21.2423  -32.4003  -40.8499 N.am      9 UNK        -0.4200 
     55 CA         19.9397  -32.5184  -40.1735 C.3       9 UNK         0.0839 
     56 C          20.0207  -33.2024  -38.7776 C.2       9 UNK         0.5513 
     57 N          21.1709  -33.6959  -38.3328 N.am      9 UNK        -0.7519 
     58 O          19.0119  -33.3017  -38.0839 O.2       9 UNK        -0.4960 
     59 C59        19.1800  -31.1635  -40.1111 C.3       10 UNK        -0.0876 
     60 S60        19.0345  -30.3293  -41.7270 S.3       10 UNK        -0.2414 
     61 C61        17.7901  -31.3595  -42.5724 C.3       10 UNK         0.0169 
     62 H62        17.0690  -28.0478  -40.1747 H         1 UNK         0.0903 
     63 H63        15.3085  -28.0180  -40.3067 H         1 UNK         0.0903 
     64 H64        16.2526  -29.0167  -41.4060 H         1 UNK         0.0903 
     65 H65        16.9996  -28.0848  -43.3413 H         1 UNK         0.3096 
     66 H66        16.2115  -25.3000  -43.9212 H         1 UNK         0.1121 
     67 H67        17.2162  -27.3404  -45.9475 H         1 UNK         0.0849 
     68 H68        16.3468  -25.8657  -46.2557 H         1 UNK         0.0849 
     69 H69        14.3212  -29.8007  -46.2040 H         1 UNK         0.0865 
     70 H70        15.2594  -28.9583  -47.4068 H         1 UNK         0.0865 
     71 H71        15.6537  -30.1551  -43.8319 H         1 UNK         0.1346 
     72 H72        19.6267  -31.6112  -44.5259 H         1 UNK         0.1412 
     73 H73        17.5012  -29.6308  -47.6722 H         1 UNK         0.1426 
     74 H74        19.6094  -30.9670  -48.1155 H         1 UNK         0.0716 
     75 H75        20.5508  -31.5805  -46.7794 H         1 UNK         0.0716 
     76 H76        22.2945  -29.8854  -45.2632 H         1 UNK         0.0695 
     77 H77        20.6938  -29.4774  -44.7020 H         1 UNK         0.0695 
     78 H78        22.9268  -27.5424  -45.4037 H         1 UNK         0.0983 
     79 H79        20.1454  -26.9930  -45.5768 H         1 UNK         0.3095 
     80 H80        20.1835  -23.5846  -44.7647 H         1 UNK         0.0454 
     81 H81        21.2096  -23.4217  -47.0419 H         1 UNK         0.0851 
     82 H82        19.4803  -23.1338  -47.0971 H         1 UNK         0.0851 
     83 H83        20.1360  -24.6841  -47.6272 H         1 UNK         0.0851 
     84 H84        18.1607  -24.9837  -46.0781 H         1 UNK         0.2976 
     85 H85        20.6087  -26.7881  -42.8970 H         1 UNK         0.3116 
     86 H86        21.6805  -28.3249  -40.7630 H         1 UNK         0.0646 
     87 H87        20.2012  -26.9424  -39.3583 H         1 UNK         0.0847 
     88 H88        20.0151  -25.7577  -40.6431 H         1 UNK         0.0847 
     89 H89        19.3586  -27.3824  -40.8336 H         1 UNK         0.0847 
     90 H90        23.1898  -25.7592  -42.2932 H         1 UNK         0.3040 
     91 H91        24.7265  -24.6814  -40.0731 H         1 UNK         0.1015 
     92 H92        26.2070  -23.8561  -41.9153 H         1 UNK         0.0786 
     93 H93        24.5258  -23.4659  -42.2412 H         1 UNK         0.0786 
     94 H94        25.3016  -24.8034  -43.0888 H         1 UNK         0.0786 
     95 H95        24.7161  -27.6726  -41.8557 H         1 UNK         0.3172 
     96 H96        27.2816  -28.5750  -40.6194 H         1 UNK         0.0595 
     97 H97        25.8203  -29.6308  -43.1156 H         1 UNK         0.0839 
     98 H98        27.3382  -30.2425  -42.4698 H         1 UNK         0.0839 
     99 H99        27.2683  -28.6303  -43.1524 H         1 UNK         0.0839 
    100 H100       27.0516  -31.0888  -40.3596 H         1 UNK         0.2998 
    101 H101       24.9711  -31.5981  -38.4351 H         1 UNK         0.0822 
    102 H102       26.1682  -33.7618  -38.1675 H         1 UNK         0.0787 
    103 H103       27.1146  -33.4465  -39.6150 H         1 UNK         0.0787 
    104 H104       27.3091  -32.4311  -38.1849 H         1 UNK         0.0787 
    105 H105       24.5269  -31.5525  -41.6417 H         1 UNK         0.3055 
    106 H106       23.5777  -34.0118  -42.5129 H         1 UNK         0.1106 
    107 H107       24.0461  -32.0882  -44.0094 H         1 UNK         0.0828 
    108 H108       22.3971  -32.6354  -44.2640 H         1 UNK         0.0828 
    109 H109       22.6991  -31.1858  -43.3145 H         1 UNK         0.0828 
    110 H110       21.8140  -31.6086  -40.5943 H         1 UNK         0.2931 
    111 H111       19.3132  -33.1917  -40.7593 H         1 UNK         0.0412 
    112 H112       22.0149  -33.6634  -38.8950 H         1 UNK         0.3472 
    113 H113       21.1943  -34.1389  -37.4280 H         1 UNK         0.3472 
    114 H114       18.1756  -31.3020  -39.7065 H         1 UNK         0.0970 
    115 H115       19.6878  -30.4792  -39.4292 H         1 UNK         0.0970 
    116 H116       16.8358  -31.2897  -42.0489 H         1 UNK         0.0612 
    117 H117       18.0910  -32.4069  -42.5421 H         1 UNK         0.0612 
@<TRIPOS>BOND
     1    1    2 1    
     2    1   62 1    
     3    1   63 1    
     4    1   64 1    
     5    2    3 2    
     6    2    4 am   BACKBONE|DICT|INTERRES
     7    4    5 1    
     8    4   65 1    
     9    5    6 1    
    10    5   25 1    
    11    5   66 1    
    12    6    7 1    
    13    6   67 1    
    14    6   68 1    
    15    7    8 1    
    16    8    9 1    
    17    8   69 1    
    18    8   70 1    
    19    9   10 ar   
    20    9   14 ar   
    21   10   11 ar   
    22   10   71 1    
    23   11   12 ar   
    24   11   61 1    
    25   12   13 ar   
    26   12   72 1    
    27   13   14 ar   
    28   13   15 1    
    29   14   73 1    
    30   15   16 1    
    31   15   74 1    
    32   15   75 1    
    33   16   17 1    
    34   17   18 1    
    35   17   76 1    
    36   17   77 1    
    37   18   19 1    
    38   18   27 1    
    39   18   78 1    
    40   19   20 am   BACKBONE|DICT|INTERRES
    41   19   79 1    
    42   20   21 2    
    43   20   22 1    
    44   22   23 1    
    45   22   24 1    
    46   22   80 1    
    47   23   81 1    
    48   23   82 1    
    49   23   83 1    
    50   24   25 am   BACKBONE|DICT|INTERRES
    51   24   84 1    
    52   25   26 2    
    53   27   28 2    
    54   27   29 am   BACKBONE|DICT|INTERRES
    55   29   30 1    
    56   29   85 1    
    57   30   31 1    
    58   30   32 1    
    59   30   86 1    
    60   31   87 1    
    61   31   88 1    
    62   31   89 1    
    63   32   33 2    
    64   32   34 am   BACKBONE|DICT|INTERRES
    65   34   35 1    
    66   34   90 1    
    67   35   36 1    
    68   35   37 1    
    69   35   91 1    
    70   36   92 1    
    71   36   93 1    
    72   36   94 1    
    73   37   38 2    
    74   37   39 am   BACKBONE|DICT|INTERRES
    75   39   40 1    
    76   39   95 1    
    77   40   41 1    
    78   40   42 1    
    79   40   96 1    
    80   41   97 1    
    81   41   98 1    
    82   41   99 1    
    83   42   43 2    
    84   42   44 am   BACKBONE|DICT|INTERRES
    85   44   45 1    
    86   44  100 1    
    87   45   46 1    
    88   45   47 1    
    89   45  101 1    
    90   46  102 1    
    91   46  103 1    
    92   46  104 1    
    93   47   48 2    
    94   47   49 am   BACKBONE|DICT|INTERRES
    95   49   50 1    
    96   49  105 1    
    97   50   51 1    
    98   50   52 1    
    99   50  106 1    
   100   51  107 1    
   101   51  108 1    
   102   51  109 1    
   103   52   53 2    
   104   52   54 am   BACKBONE|DICT|INTERRES
   105   54   55 1    
   106   54  110 1    
   107   55   56 1    
   108   55   59 1    
   109   55  111 1    
   110   56   57 am   BACKBONE|DICT|INTERRES
   111   56   58 2    
   112   57  112 1    
   113   57  113 1    
   114   59   60 1    
   115   59  114 1    
   116   59  115 1    
   117   60   61 1    
   118   61  116 1    
   119   61  117 1    
@<TRIPOS>SUBSTRUCTURE
     1 UNK         1 GROUP             0       ****    0 ROOT    
