@<TRIPOS>MOLECULE
3R8
117   119    1
SMALL
USER_CHARGES


@<TRIPOS>ATOM
      1 CA         11.0294  -26.3515  -45.2026 C.3       0 UNK        -0.2013 
      2 C          12.4451  -25.8225  -45.0273 C.2       0 UNK         0.4866 
      3 O          12.6707  -24.9368  -44.2018 O.2       0 UNK        -0.5176 
      4 N          13.3986  -26.3508  -45.8036 N.am      1 UNK        -0.4884 
      5 CA         14.8261  -26.0281  -45.7173 C.3       1 UNK         0.0853 
      6 C6         15.5751  -26.4161  -47.0199 C.3       10 UNK        -0.0849 
      7 S7         15.4021  -28.1769  -47.4929 S.3       10 UNK        -0.2776 
      8 C8         17.1147  -28.6508  -47.9003 C.3       10 UNK         0.0316 
      9 C9         18.0539  -28.5635  -46.7041 C.ar      10 UNK        -0.0863 
     10 C10        17.9241  -29.4540  -45.6359 C.ar      10 UNK        -0.1009 
     11 C11        18.7909  -29.3818  -44.5419 C.ar      10 UNK        -0.0712 
     12 C12        19.8096  -28.4234  -44.5336 C.ar      10 UNK        -0.0894 
     13 C13        19.9488  -27.5151  -45.5936 C.ar      10 UNK        -0.0745 
     14 C14        19.0638  -27.5983  -46.6726 C.ar      10 UNK        -0.0972 
     15 C15        21.0241  -26.4259  -45.6422 C.3       10 UNK         0.0209 
     16 S16        22.2634  -26.4516  -44.3024 S.3       10 UNK        -0.2568 
     17 C17        21.6436  -25.1930  -43.1276 C.3       10 UNK        -0.0983 
     18 CA         20.9020  -25.7215  -41.8616 C.3       3 UNK         0.0876 
     19 N          19.5611  -26.2355  -42.1218 N.am      3 UNK        -0.4424 
     20 C          18.5157  -25.5919  -42.6424 C.2       2 UNK         0.4918 
     21 O          18.5295  -24.4191  -43.0234 O.2       2 UNK        -0.4875 
     22 CA         17.2142  -26.3957  -42.7149 C.3       2 UNK         0.0481 
     23 CB         16.3871  -26.2083  -41.4288 C.3       2 UNK        -0.1831 
     24 N          16.4552  -25.9636  -43.8841 N.am      2 UNK        -0.4498 
     25 C          15.4633  -26.6547  -44.4567 C.2       1 UNK         0.5027 
     26 O          15.0520  -27.7390  -44.0324 O.2       1 UNK        -0.4969 
     27 C          21.6601  -26.8436  -41.1223 C.2       3 UNK         0.5005 
     28 O          21.1068  -27.9337  -40.9408 O.2       3 UNK        -0.5279 
     29 N          22.9110  -26.5868  -40.7186 N.am      4 UNK        -0.4463 
     30 CA         23.7866  -27.6105  -40.1388 C.3       4 UNK         0.0283 
     31 CB         24.9732  -26.9437  -39.4256 C.3       4 UNK        -0.1875 
     32 C          24.2877  -28.6164  -41.1888 C.2       4 UNK         0.4949 
     33 O          24.4005  -29.8032  -40.8824 O.2       4 UNK        -0.5039 
     34 N          24.6058  -28.1238  -42.3961 N.am      5 UNK        -0.4663 
     35 CA         25.0986  -28.8638  -43.5730 C.3       5 UNK         0.0242 
     36 CB         24.0118  -29.8322  -44.0858 C.3       5 UNK        -0.1982 
     37 C          26.4384  -29.6029  -43.3605 C.2       5 UNK         0.5017 
     38 O          26.7902  -30.4570  -44.1749 O.2       5 UNK        -0.5012 
     39 N          27.1347  -29.2960  -42.2542 N.am      6 UNK        -0.4439 
     40 CA         28.2905  -30.0081  -41.6914 C.3       6 UNK         0.0297 
     41 CB         29.5188  -29.8927  -42.6192 C.3       6 UNK        -0.2006 
     42 C          27.9822  -31.4706  -41.2921 C.2       6 UNK         0.4892 
     43 O          28.9104  -32.2735  -41.1810 O.2       6 UNK        -0.5089 
     44 N          26.6970  -31.7916  -41.0813 N.am      7 UNK        -0.4243 
     45 CA         26.1988  -33.1399  -40.7913 C.3       7 UNK         0.0196 
     46 CB         25.6100  -33.7310  -42.0857 C.3       7 UNK        -0.2007 
     47 C          25.1581  -33.1653  -39.6580 C.2       7 UNK         0.5020 
     48 O          24.6880  -34.2497  -39.3132 O.2       7 UNK        -0.5147 
     49 N          24.8005  -31.9903  -39.1168 N.am      8 UNK        -0.4734 
     50 CA         23.7059  -31.7349  -38.1721 C.3       8 UNK         0.0238 
     51 CB         23.9616  -32.4215  -36.8126 C.3       8 UNK        -0.1912 
     52 C          22.3347  -32.0772  -38.7877 C.2       8 UNK         0.5038 
     53 O          21.5452  -32.7953  -38.1709 O.2       8 UNK        -0.5046 
     54 N          22.1005  -31.5749  -40.0100 N.am      9 UNK        -0.4200 
     55 CA         20.8638  -31.7656  -40.7849 C.3       9 UNK         0.0839 
     56 C          19.6018  -31.2242  -40.0545 C.2       9 UNK         0.5513 
     57 N          19.5680  -29.9480  -39.6944 N.am      9 UNK        -0.7519 
     58 O          18.6563  -31.9673  -39.8043 O.2       9 UNK        -0.4960 
     59 C59        21.0179  -31.2111  -42.2275 C.3       10 UNK        -0.0876 
     60 S60        19.6971  -31.7446  -43.3704 S.3       10 UNK        -0.2414 
     61 C61        18.5828  -30.3036  -43.3487 C.3       10 UNK         0.0169 
     62 H62        10.6725  -26.7835  -44.2680 H         1 UNK         0.0903 
     63 H63        10.3574  -25.5407  -45.4823 H         1 UNK         0.0903 
     64 H64        10.9737  -27.1195  -45.9740 H         1 UNK         0.0903 
     65 H65        13.1719  -27.1053  -46.4367 H         1 UNK         0.3096 
     66 H66        14.9040  -24.9433  -45.6108 H         1 UNK         0.1121 
     67 H67        15.1906  -25.8169  -47.8467 H         1 UNK         0.0849 
     68 H68        16.6292  -26.1477  -46.9406 H         1 UNK         0.0849 
     69 H69        17.1151  -29.6748  -48.2766 H         1 UNK         0.0865 
     70 H70        17.4702  -28.0275  -48.7225 H         1 UNK         0.0865 
     71 H71        17.1325  -30.1909  -45.6494 H         1 UNK         0.1346 
     72 H72        20.4764  -28.3816  -43.6860 H         1 UNK         0.1412 
     73 H73        19.1661  -26.9061  -47.4976 H         1 UNK         0.1426 
     74 H74        20.5410  -25.4488  -45.6792 H         1 UNK         0.0716 
     75 H75        21.5674  -26.5294  -46.5825 H         1 UNK         0.0716 
     76 H76        22.5138  -24.6178  -42.8083 H         1 UNK         0.0695 
     77 H77        21.0288  -24.4690  -43.6614 H         1 UNK         0.0695 
     78 H78        20.7909  -24.8955  -41.1565 H         1 UNK         0.0983 
     79 H79        19.4612  -27.1925  -41.8033 H         1 UNK         0.3095 
     80 H80        17.4628  -27.4522  -42.8304 H         1 UNK         0.0454 
     81 H81        16.9594  -26.5031  -40.5484 H         1 UNK         0.0851 
     82 H82        16.0887  -25.1682  -41.2920 H         1 UNK         0.0851 
     83 H83        15.4828  -26.8165  -41.4410 H         1 UNK         0.0851 
     84 H84        16.7682  -25.0862  -44.2811 H         1 UNK         0.2976 
     85 H85        23.3065  -25.6706  -40.8760 H         1 UNK         0.3116 
     86 H86        23.2194  -28.1703  -39.3916 H         1 UNK         0.0646 
     87 H87        24.6340  -26.2886  -38.6230 H         1 UNK         0.0847 
     88 H88        25.5801  -26.3486  -40.1090 H         1 UNK         0.0847 
     89 H89        25.6273  -27.6910  -38.9737 H         1 UNK         0.0847 
     90 H90        24.4643  -27.1341  -42.5446 H         1 UNK         0.3040 
     91 H91        25.2777  -28.1194  -44.3505 H         1 UNK         0.1015 
     92 H92        23.9155  -30.6997  -43.4339 H         1 UNK         0.0786 
     93 H93        24.2579  -30.2040  -45.0810 H         1 UNK         0.0786 
     94 H94        23.0367  -29.3505  -44.1539 H         1 UNK         0.0786 
     95 H95        26.7484  -28.5671  -41.6712 H         1 UNK         0.3172 
     96 H96        28.5343  -29.4927  -40.7614 H         1 UNK         0.0595 
     97 H97        30.4153  -30.2784  -42.1320 H         1 UNK         0.0839 
     98 H98        29.3852  -30.4577  -43.5421 H         1 UNK         0.0839 
     99 H99        29.7194  -28.8553  -42.8864 H         1 UNK         0.0839 
    100 H100       25.9943  -31.0707  -41.2069 H         1 UNK         0.2998 
    101 H101       27.0203  -33.7789  -40.4608 H         1 UNK         0.0822 
    102 H102       25.2560  -34.7509  -41.9297 H         1 UNK         0.0787 
    103 H103       24.7658  -33.1420  -42.4470 H         1 UNK         0.0787 
    104 H104       26.3564  -33.7663  -42.8796 H         1 UNK         0.0787 
    105 H105       25.2057  -31.1542  -39.5177 H         1 UNK         0.3055 
    106 H106       23.6949  -30.6578  -37.9958 H         1 UNK         0.1106 
    107 H107       24.9331  -32.1433  -36.4044 H         1 UNK         0.0828 
    108 H108       23.2072  -32.1277  -36.0818 H         1 UNK         0.0828 
    109 H109       23.9287  -33.5085  -36.8896 H         1 UNK         0.0828 
    110 H110       22.8147  -30.9900  -40.4291 H         1 UNK         0.2931 
    111 H111       20.7369  -32.8466  -40.8730 H         1 UNK         0.0412 
    112 H112       20.2996  -29.3041  -39.9851 H         1 UNK         0.3472 
    113 H113       18.7611  -29.5984  -39.2041 H         1 UNK         0.3472 
    114 H114       21.1075  -30.1259  -42.2304 H         1 UNK         0.0970 
    115 H115       21.9508  -31.5831  -42.6499 H         1 UNK         0.0970 
    116 H116       17.5544  -30.6678  -43.3362 H         1 UNK         0.0612 
    117 H117       18.7051  -29.7383  -42.4247 H         1 UNK         0.0612 
@<TRIPOS>BOND
     1    1    2 1    
     2    1   62 1    
     3    1   63 1    
     4    1   64 1    
     5    2    3 2    
     6    2    4 am   BACKBONE|DICT|INTERRES
     7    4    5 1    
     8    4   65 1    
     9    5    6 1    
    10    5   25 1    
    11    5   66 1    
    12    6    7 1    
    13    6   67 1    
    14    6   68 1    
    15    7    8 1    
    16    8    9 1    
    17    8   69 1    
    18    8   70 1    
    19    9   10 ar   
    20    9   14 ar   
    21   10   11 ar   
    22   10   71 1    
    23   11   12 ar   
    24   11   61 1    
    25   12   13 ar   
    26   12   72 1    
    27   13   14 ar   
    28   13   15 1    
    29   14   73 1    
    30   15   16 1    
    31   15   74 1    
    32   15   75 1    
    33   16   17 1    
    34   17   18 1    
    35   17   76 1    
    36   17   77 1    
    37   18   19 1    
    38   18   27 1    
    39   18   78 1    
    40   19   20 am   BACKBONE|DICT|INTERRES
    41   19   79 1    
    42   20   21 2    
    43   20   22 1    
    44   22   23 1    
    45   22   24 1    
    46   22   80 1    
    47   23   81 1    
    48   23   82 1    
    49   23   83 1    
    50   24   25 am   BACKBONE|DICT|INTERRES
    51   24   84 1    
    52   25   26 2    
    53   27   28 2    
    54   27   29 am   BACKBONE|DICT|INTERRES
    55   29   30 1    
    56   29   85 1    
    57   30   31 1    
    58   30   32 1    
    59   30   86 1    
    60   31   87 1    
    61   31   88 1    
    62   31   89 1    
    63   32   33 2    
    64   32   34 am   BACKBONE|DICT|INTERRES
    65   34   35 1    
    66   34   90 1    
    67   35   36 1    
    68   35   37 1    
    69   35   91 1    
    70   36   92 1    
    71   36   93 1    
    72   36   94 1    
    73   37   38 2    
    74   37   39 am   BACKBONE|DICT|INTERRES
    75   39   40 1    
    76   39   95 1    
    77   40   41 1    
    78   40   42 1    
    79   40   96 1    
    80   41   97 1    
    81   41   98 1    
    82   41   99 1    
    83   42   43 2    
    84   42   44 am   BACKBONE|DICT|INTERRES
    85   44   45 1    
    86   44  100 1    
    87   45   46 1    
    88   45   47 1    
    89   45  101 1    
    90   46  102 1    
    91   46  103 1    
    92   46  104 1    
    93   47   48 2    
    94   47   49 am   BACKBONE|DICT|INTERRES
    95   49   50 1    
    96   49  105 1    
    97   50   51 1    
    98   50   52 1    
    99   50  106 1    
   100   51  107 1    
   101   51  108 1    
   102   51  109 1    
   103   52   53 2    
   104   52   54 am   BACKBONE|DICT|INTERRES
   105   54   55 1    
   106   54  110 1    
   107   55   56 1    
   108   55   59 1    
   109   55  111 1    
   110   56   57 am   BACKBONE|DICT|INTERRES
   111   56   58 2    
   112   57  112 1    
   113   57  113 1    
   114   59   60 1    
   115   59  114 1    
   116   59  115 1    
   117   60   61 1    
   118   61  116 1    
   119   61  117 1    
@<TRIPOS>SUBSTRUCTURE
     1 UNK         1 GROUP             0       ****    0 ROOT    
