@<TRIPOS>MOLECULE
3R8
117   119    1
SMALL
USER_CHARGES


@<TRIPOS>ATOM
      1 CA         19.6696  -23.4993  -39.5973 C.3       0 UNK        -0.2013 
      2 C          18.7847  -23.7911  -40.7995 C.2       0 UNK         0.4866 
      3 O          17.9712  -22.9492  -41.1793 O.2       0 UNK        -0.5176 
      4 N          18.9361  -24.9788  -41.4009 N.am      1 UNK        -0.4884 
      5 CA         18.1406  -25.4545  -42.5435 C.3       1 UNK         0.0853 
      6 C6         18.3546  -26.9640  -42.8264 C.3       10 UNK        -0.0849 
      7 S7         18.2383  -28.0262  -41.3497 S.3       10 UNK        -0.2776 
      8 C8         17.6025  -29.5747  -42.0689 C.3       10 UNK         0.0316 
      9 C9         18.5294  -30.1431  -43.1366 C.ar      10 UNK        -0.0863 
     10 C10        19.6892  -30.8281  -42.7674 C.ar      10 UNK        -0.1009 
     11 C11        20.5289  -31.3843  -43.7362 C.ar      10 UNK        -0.0712 
     12 C12        20.2063  -31.2379  -45.0899 C.ar      10 UNK        -0.0894 
     13 C13        19.0591  -30.5367  -45.4753 C.ar      10 UNK        -0.0745 
     14 C14        18.2200  -30.0011  -44.4927 C.ar      10 UNK        -0.0972 
     15 C15        18.7071  -30.3759  -46.9503 C.3       10 UNK         0.0209 
     16 S16        19.8546  -29.2795  -47.8522 S.3       10 UNK        -0.2568 
     17 C17        19.6622  -27.6854  -46.9745 C.3       10 UNK        -0.0983 
     18 CA         20.9916  -26.9182  -46.7351 C.3       3 UNK         0.0876 
     19 N          20.7874  -25.7570  -45.8815 N.am      3 UNK        -0.4424 
     20 C          20.4003  -24.5418  -46.2831 C.2       2 UNK         0.4918 
     21 O          20.1935  -24.2437  -47.4605 O.2       2 UNK        -0.4875 
     22 CA         20.2060  -23.4939  -45.1654 C.3       2 UNK         0.0481 
     23 CB         19.4186  -22.2502  -45.6292 C.3       2 UNK        -0.1831 
     24 N          19.6137  -24.0812  -43.9554 N.am      2 UNK        -0.4498 
     25 C          18.4136  -24.6772  -43.8482 C.2       1 UNK         0.5027 
     26 O          17.5644  -24.6890  -44.7401 O.2       1 UNK        -0.4969 
     27 C          22.0739  -27.7626  -46.0449 C.2       3 UNK         0.5005 
     28 O          21.9162  -28.0888  -44.8651 O.2       3 UNK        -0.5279 
     29 N          23.1396  -28.0892  -46.7932 N.am      4 UNK        -0.4463 
     30 CA         24.2683  -28.9472  -46.4159 C.3       4 UNK         0.0283 
     31 CB         23.8438  -30.4285  -46.5106 C.3       4 UNK        -0.1875 
     32 C          24.8961  -28.5505  -45.0635 C.2       4 UNK         0.4949 
     33 O          25.4460  -27.4535  -44.9586 O.2       4 UNK        -0.5039 
     34 N          24.8033  -29.4360  -44.0622 N.am      5 UNK        -0.4663 
     35 CA         25.3089  -29.2231  -42.7040 C.3       5 UNK         0.0242 
     36 CB         25.3929  -30.5797  -41.9837 C.3       5 UNK        -0.1982 
     37 C          24.4750  -28.2305  -41.8729 C.2       5 UNK         0.5017 
     38 O          25.0009  -27.7050  -40.8913 O.2       5 UNK        -0.5012 
     39 N          23.2076  -28.0051  -42.2609 N.am      6 UNK        -0.4439 
     40 CA         22.2231  -27.1257  -41.6165 C.3       6 UNK         0.0297 
     41 CB         22.5852  -25.6472  -41.8743 C.3       6 UNK        -0.2006 
     42 C          21.9962  -27.4425  -40.1227 C.2       6 UNK         0.4892 
     43 O          21.9337  -26.5255  -39.3018 O.2       6 UNK        -0.5089 
     44 N          21.8962  -28.7373  -39.8009 N.am      7 UNK        -0.4243 
     45 CA         21.7826  -29.2651  -38.4419 C.3       7 UNK         0.0196 
     46 CB         23.1953  -29.5616  -37.8931 C.3       7 UNK        -0.2007 
     47 C          20.8445  -30.4832  -38.4338 C.2       7 UNK         0.5020 
     48 O          19.9269  -30.5494  -39.2511 O.2       7 UNK        -0.5147 
     49 N          21.0761  -31.4313  -37.5147 N.am      8 UNK        -0.4734 
     50 CA         20.2811  -32.6572  -37.3573 C.3       8 UNK         0.0238 
     51 CB         20.6773  -33.3510  -36.0435 C.3       8 UNK        -0.1912 
     52 C          20.3926  -33.6403  -38.5389 C.2       8 UNK         0.5038 
     53 O          19.4756  -34.4365  -38.7426 O.2       8 UNK        -0.5046 
     54 N          21.5000  -33.5620  -39.2906 N.am      9 UNK        -0.4200 
     55 CA         21.7956  -34.3655  -40.4887 C.3       9 UNK         0.0839 
     56 C          22.0939  -35.8722  -40.2144 C.2       9 UNK         0.5513 
     57 N          22.3820  -36.2715  -38.9811 N.am      9 UNK        -0.7519 
     58 O          22.0941  -36.6902  -41.1306 O.2       9 UNK        -0.4960 
     59 C59        20.7563  -34.1302  -41.6288 C.3       10 UNK        -0.0876 
     60 S60        21.5444  -33.9292  -43.2617 S.3       10 UNK        -0.2414 
     61 C61        21.7908  -32.1270  -43.3202 C.3       10 UNK         0.0169 
     62 H62        20.3344  -22.6637  -39.8141 H         1 UNK         0.0903 
     63 H63        19.0570  -23.2332  -38.7364 H         1 UNK         0.0903 
     64 H64        20.2815  -24.3579  -39.3220 H         1 UNK         0.0903 
     65 H65        19.5709  -25.6572  -41.0045 H         1 UNK         0.3096 
     66 H66        17.0882  -25.3006  -42.2940 H         1 UNK         0.1121 
     67 H67        17.6115  -27.2993  -43.5524 H         1 UNK         0.0849 
     68 H68        19.3246  -27.1499  -43.2914 H         1 UNK         0.0849 
     69 H69        16.6046  -29.4022  -42.4749 H         1 UNK         0.0865 
     70 H70        17.4818  -30.3070  -41.2688 H         1 UNK         0.0865 
     71 H71        19.9326  -30.9311  -41.7207 H         1 UNK         0.1346 
     72 H72        20.8489  -31.6654  -45.8466 H         1 UNK         0.1412 
     73 H73        17.3237  -29.4713  -44.7848 H         1 UNK         0.1426 
     74 H74        17.6922  -29.9926  -47.0666 H         1 UNK         0.0716 
     75 H75        18.7162  -31.3577  -47.4256 H         1 UNK         0.0716 
     76 H76        19.1628  -27.8541  -46.0202 H         1 UNK         0.0695 
     77 H77        18.9804  -27.0634  -47.5560 H         1 UNK         0.0695 
     78 H78        21.3767  -26.5835  -47.7010 H         1 UNK         0.0983 
     79 H79        20.9795  -25.9251  -44.9039 H         1 UNK         0.3095 
     80 H80        21.2061  -23.1616  -44.8837 H         1 UNK         0.0454 
     81 H81        19.2944  -21.5337  -44.8175 H         1 UNK         0.0851 
     82 H82        18.4275  -22.5100  -46.0020 H         1 UNK         0.0851 
     83 H83        19.9420  -21.7367  -46.4365 H         1 UNK         0.0851 
     84 H84        20.2113  -24.1094  -43.1418 H         1 UNK         0.2976 
     85 H85        23.1793  -27.7279  -47.7362 H         1 UNK         0.3116 
     86 H86        25.0459  -28.7834  -47.1635 H         1 UNK         0.0646 
     87 H87        24.6611  -31.1017  -46.2485 H         1 UNK         0.0847 
     88 H88        23.5409  -30.6806  -47.5270 H         1 UNK         0.0847 
     89 H89        22.9983  -30.6452  -45.8612 H         1 UNK         0.0847 
     90 H90        24.3293  -30.3084  -44.2407 H         1 UNK         0.3040 
     91 H91        26.3183  -28.8117  -42.7775 H         1 UNK         0.1015 
     92 H92        24.4126  -31.0436  -41.8749 H         1 UNK         0.0786 
     93 H93        25.8089  -30.4637  -40.9817 H         1 UNK         0.0786 
     94 H94        26.0379  -31.2759  -42.5202 H         1 UNK         0.0786 
     95 H95        22.8920  -28.4259  -43.1312 H         1 UNK         0.3172 
     96 H96        21.2753  -27.3275  -42.1130 H         1 UNK         0.0595 
     97 H97        23.5292  -25.3784  -41.3989 H         1 UNK         0.0839 
     98 H98        21.8251  -24.9743  -41.4792 H         1 UNK         0.0839 
     99 H99        22.6804  -25.4437  -42.9408 H         1 UNK         0.0839 
    100 H100       21.8694  -29.4220  -40.5428 H         1 UNK         0.2998 
    101 H101       21.3103  -28.5166  -37.8021 H         1 UNK         0.0822 
    102 H102       23.6796  -30.3718  -38.4398 H         1 UNK         0.0787 
    103 H103       23.8380  -28.6841  -37.9733 H         1 UNK         0.0787 
    104 H104       23.1700  -29.8339  -36.8375 H         1 UNK         0.0787 
    105 H105       21.8448  -31.3015  -36.8722 H         1 UNK         0.3055 
    106 H106       19.2304  -32.3659  -37.2872 H         1 UNK         0.1106 
    107 H107       20.0875  -34.2554  -35.8858 H         1 UNK         0.0828 
    108 H108       21.7281  -33.6430  -36.0394 H         1 UNK         0.0828 
    109 H109       20.5046  -32.7028  -35.1842 H         1 UNK         0.0828 
    110 H110       22.2062  -32.8931  -39.0229 H         1 UNK         0.2931 
    111 H111       22.7535  -33.9647  -40.8225 H         1 UNK         0.0412 
    112 H112       22.3964  -35.6128  -38.2194 H         1 UNK         0.3472 
    113 H113       22.5832  -37.2448  -38.8118 H         1 UNK         0.3472 
    114 H114       20.0346  -34.9474  -41.6814 H         1 UNK         0.0970 
    115 H115       20.1543  -33.2440  -41.4310 H         1 UNK         0.0970 
    116 H116       22.1389  -31.7744  -42.3484 H         1 UNK         0.0612 
    117 H117       22.5943  -31.9148  -44.0236 H         1 UNK         0.0612 
@<TRIPOS>BOND
     1    1    2 1    
     2    1   62 1    
     3    1   63 1    
     4    1   64 1    
     5    2    3 2    
     6    2    4 am   BACKBONE|DICT|INTERRES
     7    4    5 1    
     8    4   65 1    
     9    5    6 1    
    10    5   25 1    
    11    5   66 1    
    12    6    7 1    
    13    6   67 1    
    14    6   68 1    
    15    7    8 1    
    16    8    9 1    
    17    8   69 1    
    18    8   70 1    
    19    9   10 ar   
    20    9   14 ar   
    21   10   11 ar   
    22   10   71 1    
    23   11   12 ar   
    24   11   61 1    
    25   12   13 ar   
    26   12   72 1    
    27   13   14 ar   
    28   13   15 1    
    29   14   73 1    
    30   15   16 1    
    31   15   74 1    
    32   15   75 1    
    33   16   17 1    
    34   17   18 1    
    35   17   76 1    
    36   17   77 1    
    37   18   19 1    
    38   18   27 1    
    39   18   78 1    
    40   19   20 am   BACKBONE|DICT|INTERRES
    41   19   79 1    
    42   20   21 2    
    43   20   22 1    
    44   22   23 1    
    45   22   24 1    
    46   22   80 1    
    47   23   81 1    
    48   23   82 1    
    49   23   83 1    
    50   24   25 am   BACKBONE|DICT|INTERRES
    51   24   84 1    
    52   25   26 2    
    53   27   28 2    
    54   27   29 am   BACKBONE|DICT|INTERRES
    55   29   30 1    
    56   29   85 1    
    57   30   31 1    
    58   30   32 1    
    59   30   86 1    
    60   31   87 1    
    61   31   88 1    
    62   31   89 1    
    63   32   33 2    
    64   32   34 am   BACKBONE|DICT|INTERRES
    65   34   35 1    
    66   34   90 1    
    67   35   36 1    
    68   35   37 1    
    69   35   91 1    
    70   36   92 1    
    71   36   93 1    
    72   36   94 1    
    73   37   38 2    
    74   37   39 am   BACKBONE|DICT|INTERRES
    75   39   40 1    
    76   39   95 1    
    77   40   41 1    
    78   40   42 1    
    79   40   96 1    
    80   41   97 1    
    81   41   98 1    
    82   41   99 1    
    83   42   43 2    
    84   42   44 am   BACKBONE|DICT|INTERRES
    85   44   45 1    
    86   44  100 1    
    87   45   46 1    
    88   45   47 1    
    89   45  101 1    
    90   46  102 1    
    91   46  103 1    
    92   46  104 1    
    93   47   48 2    
    94   47   49 am   BACKBONE|DICT|INTERRES
    95   49   50 1    
    96   49  105 1    
    97   50   51 1    
    98   50   52 1    
    99   50  106 1    
   100   51  107 1    
   101   51  108 1    
   102   51  109 1    
   103   52   53 2    
   104   52   54 am   BACKBONE|DICT|INTERRES
   105   54   55 1    
   106   54  110 1    
   107   55   56 1    
   108   55   59 1    
   109   55  111 1    
   110   56   57 am   BACKBONE|DICT|INTERRES
   111   56   58 2    
   112   57  112 1    
   113   57  113 1    
   114   59   60 1    
   115   59  114 1    
   116   59  115 1    
   117   60   61 1    
   118   61  116 1    
   119   61  117 1    
@<TRIPOS>SUBSTRUCTURE
     1 UNK         1 GROUP             0       ****    0 ROOT    
