@<TRIPOS>MOLECULE
3R8
117   119    1
SMALL
USER_CHARGES


@<TRIPOS>ATOM
      1 CA         14.0169  -24.9796  -46.3400 C.3       0 UNK        -0.2013 
      2 C          15.4500  -24.7608  -46.8011 C.2       0 UNK         0.4866 
      3 O          15.7186  -23.8139  -47.5401 O.2       0 UNK        -0.5176 
      4 N          16.3761  -25.6245  -46.3632 N.am      1 UNK        -0.4884 
      5 CA         17.8027  -25.5806  -46.7185 C.3       1 UNK         0.0853 
      6 C6         18.4199  -27.0108  -46.7252 C.3       10 UNK        -0.0849 
      7 S7         18.9488  -27.6709  -45.1033 S.3       10 UNK        -0.2776 
      8 C8         17.5136  -28.6429  -44.5494 C.3       10 UNK         0.0316 
      9 C9         17.7423  -29.0761  -43.1107 C.ar      10 UNK        -0.0863 
     10 C10        18.3536  -30.3016  -42.8323 C.ar      10 UNK        -0.1009 
     11 C11        18.6827  -30.6521  -41.5159 C.ar      10 UNK        -0.0712 
     12 C12        18.4176  -29.7417  -40.4878 C.ar      10 UNK        -0.0894 
     13 C13        17.8087  -28.5111  -40.7507 C.ar      10 UNK        -0.0745 
     14 C14        17.4262  -28.2081  -42.0617 C.ar      10 UNK        -0.0972 
     15 C15        17.5951  -27.5168  -39.6107 C.3       10 UNK         0.0209 
     16 S16        18.0241  -25.7890  -40.0318 S.3       10 UNK        -0.2568 
     17 C17        19.8059  -25.8694  -40.4531 C.3       10 UNK        -0.0983 
     18 CA         20.0589  -26.0017  -41.9816 C.3       3 UNK         0.0876 
     19 N          19.2909  -25.0600  -42.8051 N.am      3 UNK        -0.4424 
     20 C          19.4273  -23.7288  -42.8764 C.2       2 UNK         0.4918 
     21 O          20.2327  -23.0834  -42.2047 O.2       2 UNK        -0.4875 
     22 CA         18.5054  -23.0033  -43.8815 C.3       2 UNK         0.0481 
     23 CB         19.1808  -21.7682  -44.5140 C.3       2 UNK        -0.1831 
     24 N          17.9464  -23.8931  -44.9134 N.am      2 UNK        -0.4498 
     25 C          18.6110  -24.5664  -45.8693 C.2       1 UNK         0.5027 
     26 O          19.8249  -24.4631  -46.0502 O.2       1 UNK        -0.4969 
     27 C          21.5499  -26.0679  -42.3802 C.2       3 UNK         0.5005 
     28 O          22.3861  -26.4928  -41.5803 O.2       3 UNK        -0.5279 
     29 N          21.8509  -25.7176  -43.6431 N.am      4 UNK        -0.4463 
     30 CA         23.1775  -25.7942  -44.2660 C.3       4 UNK         0.0283 
     31 CB         23.1260  -25.1032  -45.6375 C.3       4 UNK        -0.1875 
     32 C          23.7141  -27.2312  -44.4077 C.2       4 UNK         0.4949 
     33 O          24.9196  -27.4124  -44.5766 O.2       4 UNK        -0.5039 
     34 N          22.8184  -28.2232  -44.3062 N.am      5 UNK        -0.4663 
     35 CA         23.1254  -29.6529  -44.2369 C.3       5 UNK         0.0242 
     36 CB         21.8098  -30.4311  -44.3981 C.3       5 UNK        -0.1982 
     37 C          23.8546  -30.0723  -42.9411 C.2       5 UNK         0.5017 
     38 O          24.4198  -31.1675  -42.9113 O.2       5 UNK        -0.5012 
     39 N          23.8371  -29.2043  -41.9139 N.am      6 UNK        -0.4439 
     40 CA         24.4593  -29.3526  -40.5922 C.3       6 UNK         0.0297 
     41 CB         25.9905  -29.5172  -40.7237 C.3       6 UNK        -0.2006 
     42 C          23.8160  -30.4642  -39.7410 C.2       6 UNK         0.4892 
     43 O          22.8076  -31.0491  -40.1380 O.2       6 UNK        -0.5089 
     44 N          24.4058  -30.7349  -38.5675 N.am      7 UNK        -0.4243 
     45 CA         23.9408  -31.7424  -37.6044 C.3       7 UNK         0.0196 
     46 CB         24.7749  -31.6364  -36.3175 C.3       7 UNK        -0.2007 
     47 C          23.9633  -33.1857  -38.1424 C.2       7 UNK         0.5020 
     48 O          23.1647  -34.0092  -37.6961 O.2       7 UNK        -0.5147 
     49 N          24.8589  -33.4623  -39.1002 N.am      8 UNK        -0.4734 
     50 CA         24.9348  -34.7333  -39.8263 C.3       8 UNK         0.0238 
     51 CB         26.3055  -34.8321  -40.5161 C.3       8 UNK        -0.1912 
     52 C          23.8047  -34.9134  -40.8582 C.2       8 UNK         0.5038 
     53 O          23.5256  -36.0498  -41.2422 O.2       8 UNK        -0.5046 
     54 N          23.1872  -33.8039  -41.2864 N.am      9 UNK        -0.4200 
     55 CA         22.1460  -33.7235  -42.3163 C.3       9 UNK         0.0839 
     56 C          22.6158  -34.2423  -43.7062 C.2       9 UNK         0.5513 
     57 N          23.7454  -33.7484  -44.1973 N.am      9 UNK        -0.7519 
     58 O          21.9781  -35.0812  -44.3378 O.2       9 UNK        -0.4960 
     59 C59        20.7768  -34.2798  -41.8274 C.3       10 UNK        -0.0876 
     60 S60        19.3929  -33.2578  -42.4346 S.3       10 UNK        -0.2414 
     61 C61        19.3942  -31.9559  -41.1528 C.3       10 UNK         0.0169 
     62 H62        13.9254  -25.8449  -45.6839 H         1 UNK         0.0903 
     63 H63        13.6585  -24.1043  -45.7989 H         1 UNK         0.0903 
     64 H64        13.3670  -25.1372  -47.2004 H         1 UNK         0.0903 
     65 H65        16.0971  -26.3833  -45.7588 H         1 UNK         0.3096 
     66 H66        17.8718  -25.2103  -47.7444 H         1 UNK         0.1121 
     67 H67        17.7425  -27.7197  -47.2043 H         1 UNK         0.0849 
     68 H68        19.3103  -27.0025  -47.3566 H         1 UNK         0.0849 
     69 H69        17.3798  -29.5090  -45.1995 H         1 UNK         0.0865 
     70 H70        16.6018  -28.0497  -44.6212 H         1 UNK         0.0865 
     71 H71        18.6043  -30.9577  -43.6535 H         1 UNK         0.1346 
     72 H72        18.7082  -29.9877  -39.4752 H         1 UNK         0.1412 
     73 H73        16.9579  -27.2573  -42.2761 H         1 UNK         0.1426 
     74 H74        18.1738  -27.8075  -38.7325 H         1 UNK         0.0716 
     75 H75        16.5464  -27.5520  -39.3134 H         1 UNK         0.0716 
     76 H76        20.2587  -26.7040  -39.9146 H         1 UNK         0.0695 
     77 H77        20.2823  -24.9651  -40.0712 H         1 UNK         0.0695 
     78 H78        19.7013  -26.9877  -42.2669 H         1 UNK         0.0983 
     79 H79        18.6004  -25.4843  -43.4063 H         1 UNK         0.3095 
     80 H80        17.6530  -22.6481  -43.3010 H         1 UNK         0.0454 
     81 H81        18.5187  -21.2733  -45.2242 H         1 UNK         0.0851 
     82 H82        20.1006  -22.0299  -45.0377 H         1 UNK         0.0851 
     83 H83        19.4428  -21.0331  -43.7521 H         1 UNK         0.0851 
     84 H84        16.9498  -24.0518  -44.8584 H         1 UNK         0.2976 
     85 H85        21.1005  -25.3875  -44.2376 H         1 UNK         0.3116 
     86 H86        23.8755  -25.2469  -43.6292 H         1 UNK         0.0646 
     87 H87        24.1078  -25.1020  -46.1129 H         1 UNK         0.0847 
     88 H88        22.8086  -24.0639  -45.5482 H         1 UNK         0.0847 
     89 H89        22.4352  -25.6058  -46.3160 H         1 UNK         0.0847 
     90 H90        21.8465  -27.9681  -44.2058 H         1 UNK         0.3040 
     91 H91        23.7810  -29.8969  -45.0756 H         1 UNK         0.1015 
     92 H92        21.2448  -30.0922  -45.2670 H         1 UNK         0.0786 
     93 H93        21.1711  -30.3264  -43.5202 H         1 UNK         0.0786 
     94 H94        22.0010  -31.4930  -44.5419 H         1 UNK         0.0786 
     95 H95        23.3087  -28.3467  -42.0345 H         1 UNK         0.3172 
     96 H96        24.2657  -28.4139  -40.0711 H         1 UNK         0.0595 
     97 H97        26.2637  -30.4994  -41.1112 H         1 UNK         0.0839 
     98 H98        26.4922  -29.3944  -39.7637 H         1 UNK         0.0839 
     99 H99        26.4103  -28.7683  -41.3956 H         1 UNK         0.0839 
    100 H100       25.2230  -30.2036  -38.3033 H         1 UNK         0.2998 
    101 H101       22.9025  -31.5075  -37.3598 H         1 UNK         0.0822 
    102 H102       25.8314  -31.8348  -36.5030 H         1 UNK         0.0787 
    103 H103       24.6912  -30.6461  -35.8694 H         1 UNK         0.0787 
    104 H104       24.4346  -32.3564  -35.5715 H         1 UNK         0.0787 
    105 H105       25.4845  -32.7269  -39.3957 H         1 UNK         0.3055 
    106 H106       24.8508  -35.5504  -39.1060 H         1 UNK         0.1106 
    107 H107       26.4094  -35.7820  -41.0426 H         1 UNK         0.0828 
    108 H108       26.4471  -34.0372  -41.2498 H         1 UNK         0.0828 
    109 H109       27.1199  -34.7741  -39.7938 H         1 UNK         0.0828 
    110 H110       23.4628  -32.9104  -40.8966 H         1 UNK         0.2931 
    111 H111       22.0277  -32.6488  -42.4506 H         1 UNK         0.0412 
    112 H112       24.2251  -33.0027  -43.7034 H         1 UNK         0.3472 
    113 H113       24.0837  -34.0668  -45.0913 H         1 UNK         0.3472 
    114 H114       20.6305  -35.3182  -42.1296 H         1 UNK         0.0970 
    115 H115       20.7321  -34.2894  -40.7370 H         1 UNK         0.0970 
    116 H116       18.9512  -32.3729  -40.2471 H         1 UNK         0.0612 
    117 H117       20.4251  -31.7059  -40.9059 H         1 UNK         0.0612 
@<TRIPOS>BOND
     1    1    2 1    
     2    1   62 1    
     3    1   63 1    
     4    1   64 1    
     5    2    3 2    
     6    2    4 am   BACKBONE|DICT|INTERRES
     7    4    5 1    
     8    4   65 1    
     9    5    6 1    
    10    5   25 1    
    11    5   66 1    
    12    6    7 1    
    13    6   67 1    
    14    6   68 1    
    15    7    8 1    
    16    8    9 1    
    17    8   69 1    
    18    8   70 1    
    19    9   10 ar   
    20    9   14 ar   
    21   10   11 ar   
    22   10   71 1    
    23   11   12 ar   
    24   11   61 1    
    25   12   13 ar   
    26   12   72 1    
    27   13   14 ar   
    28   13   15 1    
    29   14   73 1    
    30   15   16 1    
    31   15   74 1    
    32   15   75 1    
    33   16   17 1    
    34   17   18 1    
    35   17   76 1    
    36   17   77 1    
    37   18   19 1    
    38   18   27 1    
    39   18   78 1    
    40   19   20 am   BACKBONE|DICT|INTERRES
    41   19   79 1    
    42   20   21 2    
    43   20   22 1    
    44   22   23 1    
    45   22   24 1    
    46   22   80 1    
    47   23   81 1    
    48   23   82 1    
    49   23   83 1    
    50   24   25 am   BACKBONE|DICT|INTERRES
    51   24   84 1    
    52   25   26 2    
    53   27   28 2    
    54   27   29 am   BACKBONE|DICT|INTERRES
    55   29   30 1    
    56   29   85 1    
    57   30   31 1    
    58   30   32 1    
    59   30   86 1    
    60   31   87 1    
    61   31   88 1    
    62   31   89 1    
    63   32   33 2    
    64   32   34 am   BACKBONE|DICT|INTERRES
    65   34   35 1    
    66   34   90 1    
    67   35   36 1    
    68   35   37 1    
    69   35   91 1    
    70   36   92 1    
    71   36   93 1    
    72   36   94 1    
    73   37   38 2    
    74   37   39 am   BACKBONE|DICT|INTERRES
    75   39   40 1    
    76   39   95 1    
    77   40   41 1    
    78   40   42 1    
    79   40   96 1    
    80   41   97 1    
    81   41   98 1    
    82   41   99 1    
    83   42   43 2    
    84   42   44 am   BACKBONE|DICT|INTERRES
    85   44   45 1    
    86   44  100 1    
    87   45   46 1    
    88   45   47 1    
    89   45  101 1    
    90   46  102 1    
    91   46  103 1    
    92   46  104 1    
    93   47   48 2    
    94   47   49 am   BACKBONE|DICT|INTERRES
    95   49   50 1    
    96   49  105 1    
    97   50   51 1    
    98   50   52 1    
    99   50  106 1    
   100   51  107 1    
   101   51  108 1    
   102   51  109 1    
   103   52   53 2    
   104   52   54 am   BACKBONE|DICT|INTERRES
   105   54   55 1    
   106   54  110 1    
   107   55   56 1    
   108   55   59 1    
   109   55  111 1    
   110   56   57 am   BACKBONE|DICT|INTERRES
   111   56   58 2    
   112   57  112 1    
   113   57  113 1    
   114   59   60 1    
   115   59  114 1    
   116   59  115 1    
   117   60   61 1    
   118   61  116 1    
   119   61  117 1    
@<TRIPOS>SUBSTRUCTURE
     1 UNK         1 GROUP             0       ****    0 ROOT    
