@<TRIPOS>MOLECULE
3R8
117   119    1
SMALL
USER_CHARGES


@<TRIPOS>ATOM
      1 CA         15.4576  -25.3060  -44.3591 C.3       0 UNK        -0.2013 
      2 C          16.7485  -25.1150  -45.1398 C.2       0 UNK         0.4866 
      3 O          17.1365  -23.9799  -45.4165 O.2       0 UNK        -0.5176 
      4 N          17.4309  -26.2115  -45.4913 N.am      1 UNK        -0.4884 
      5 CA         18.6163  -26.2430  -46.3627 C.3       1 UNK         0.0853 
      6 C6         18.7237  -27.5709  -47.1706 C.3       10 UNK        -0.0849 
      7 S7         17.1214  -28.1580  -47.8390 S.3       10 UNK        -0.2776 
      8 C8         17.0533  -29.9155  -47.3326 C.3       10 UNK         0.0316 
      9 C9         17.4783  -30.1674  -45.8882 C.ar      10 UNK        -0.0863 
     10 C10        18.5792  -30.9882  -45.6236 C.ar      10 UNK        -0.1009 
     11 C11        18.9934  -31.2239  -44.3103 C.ar      10 UNK        -0.0712 
     12 C12        18.3099  -30.6196  -43.2518 C.ar      10 UNK        -0.0894 
     13 C13        17.2046  -29.8011  -43.5020 C.ar      10 UNK        -0.0745 
     14 C14        16.7843  -29.5889  -44.8205 C.ar      10 UNK        -0.0972 
     15 C15        16.4527  -29.1549  -42.3506 C.3       10 UNK         0.0209 
     16 S16        17.0358  -27.4581  -42.0541 S.3       10 UNK        -0.2568 
     17 C17        18.3079  -27.6592  -40.7581 C.3       10 UNK        -0.0983 
     18 CA         19.7685  -27.4371  -41.2376 C.3       3 UNK         0.0876 
     19 N          19.8963  -26.2714  -42.1181 N.am      3 UNK        -0.4424 
     20 C          21.0240  -25.7928  -42.6629 C.2       2 UNK         0.4918 
     21 O          22.1469  -26.2595  -42.4592 O.2       2 UNK        -0.4875 
     22 CA         20.8323  -24.6120  -43.6354 C.3       2 UNK         0.0481 
     23 CB         22.1519  -24.1017  -44.2506 C.3       2 UNK        -0.1831 
     24 N          19.8484  -24.9386  -44.6758 N.am      2 UNK        -0.4498 
     25 C          19.9087  -25.9429  -45.5659 C.2       1 UNK         0.5027 
     26 O          20.9095  -26.6415  -45.7367 O.2       1 UNK        -0.4969 
     27 C          20.7014  -27.3179  -40.0149 C.2       3 UNK         0.5005 
     28 O          20.6819  -26.2850  -39.3410 O.2       3 UNK        -0.5279 
     29 N          21.5197  -28.3497  -39.7748 N.am      4 UNK        -0.4463 
     30 CA         22.5520  -28.4833  -38.7347 C.3       4 UNK         0.0283 
     31 CB         21.9740  -28.3102  -37.3168 C.3       4 UNK        -0.1875 
     32 C          23.7935  -27.5973  -38.9506 C.2       4 UNK         0.4949 
     33 O          24.8921  -28.0254  -38.5980 O.2       4 UNK        -0.5039 
     34 N          23.6177  -26.4036  -39.5315 N.am      5 UNK        -0.4663 
     35 CA         24.6885  -25.4715  -39.8873 C.3       5 UNK         0.0242 
     36 CB         24.0864  -24.1008  -40.2380 C.3       5 UNK        -0.1982 
     37 C          25.5668  -26.0052  -41.0302 C.2       5 UNK         0.5017 
     38 O          26.7897  -26.0332  -40.8869 O.2       5 UNK        -0.5012 
     39 N          24.9293  -26.4350  -42.1279 N.am      6 UNK        -0.4439 
     40 CA         25.5872  -27.1059  -43.2499 C.3       6 UNK         0.0297 
     41 CB         24.8207  -26.8336  -44.5544 C.3       6 UNK        -0.2006 
     42 C          25.7088  -28.6123  -42.9848 C.2       6 UNK         0.4892 
     43 O          26.8041  -29.1622  -43.1058 O.2       6 UNK        -0.5089 
     44 N          24.5901  -29.2435  -42.6093 N.am      7 UNK        -0.4243 
     45 CA         24.4908  -30.6556  -42.2552 C.3       7 UNK         0.0196 
     46 CB         24.5096  -31.5346  -43.5205 C.3       7 UNK        -0.2007 
     47 C          23.1876  -30.8679  -41.4851 C.2       7 UNK         0.5020 
     48 O          22.1964  -30.1914  -41.7703 O.2       7 UNK        -0.5147 
     49 N          23.1978  -31.8058  -40.5319 N.am      8 UNK        -0.4734 
     50 CA         21.9967  -32.2411  -39.8091 C.3       8 UNK         0.0238 
     51 CB         22.3935  -32.7642  -38.4192 C.3       8 UNK        -0.1912 
     52 C          21.2141  -33.3103  -40.5900 C.2       8 UNK         0.5038 
     53 O          19.9892  -33.3429  -40.4890 O.2       8 UNK        -0.5046 
     54 N          21.9495  -34.1501  -41.3343 N.am      9 UNK        -0.4200 
     55 CA         21.5363  -35.2376  -42.2437 C.3       9 UNK         0.0839 
     56 C          20.5532  -36.3311  -41.7199 C.2       9 UNK         0.5513 
     57 N          20.0040  -36.2294  -40.5185 N.am      9 UNK        -0.7519 
     58 O          20.3255  -37.3250  -42.4053 O.2       9 UNK        -0.4960 
     59 C59        21.2057  -34.7361  -43.6780 C.3       10 UNK        -0.0876 
     60 S60        19.6132  -33.8629  -43.8557 S.3       10 UNK        -0.2414 
     61 C61        20.1715  -32.1433  -44.0395 C.3       10 UNK         0.0169 
     62 H62        15.1771  -26.3567  -44.2884 H         1 UNK         0.0903 
     63 H63        15.5673  -24.9129  -43.3488 H         1 UNK         0.0903 
     64 H64        14.6421  -24.7724  -44.8463 H         1 UNK         0.0903 
     65 H65        17.1000  -27.1198  -45.1987 H         1 UNK         0.3096 
     66 H66        18.5163  -25.4366  -47.0931 H         1 UNK         0.1121 
     67 H67        19.1719  -28.3538  -46.5594 H         1 UNK         0.0849 
     68 H68        19.4091  -27.4371  -48.0093 H         1 UNK         0.0849 
     69 H69        16.0353  -30.2820  -47.4713 H         1 UNK         0.0865 
     70 H70        17.6754  -30.4912  -48.0197 H         1 UNK         0.0865 
     71 H71        19.1151  -31.4526  -46.4403 H         1 UNK         0.1346 
     72 H72        18.6319  -30.7993  -42.2348 H         1 UNK         0.1412 
     73 H73        15.9223  -28.9664  -45.0183 H         1 UNK         0.1426 
     74 H74        16.5344  -29.7554  -41.4436 H         1 UNK         0.0716 
     75 H75        15.3886  -29.1180  -42.5889 H         1 UNK         0.0716 
     76 H76        18.2126  -28.6441  -40.2980 H         1 UNK         0.0695 
     77 H77        18.0518  -26.9423  -39.9748 H         1 UNK         0.0695 
     78 H78        20.0699  -28.3041  -41.8299 H         1 UNK         0.0983 
     79 H79        19.0229  -25.8263  -42.3566 H         1 UNK         0.3095 
     80 H80        20.4074  -23.7959  -43.0494 H         1 UNK         0.0454 
     81 H81        22.6316  -24.8580  -44.8699 H         1 UNK         0.0851 
     82 H82        22.8639  -23.8185  -43.4751 H         1 UNK         0.0851 
     83 H83        21.9832  -23.2223  -44.8715 H         1 UNK         0.0851 
     84 H84        18.9791  -24.4145  -44.6524 H         1 UNK         0.2976 
     85 H85        21.5401  -29.0927  -40.4729 H         1 UNK         0.3116 
     86 H86        22.9029  -29.5127  -38.8063 H         1 UNK         0.0646 
     87 H87        21.6451  -27.2881  -37.1284 H         1 UNK         0.0847 
     88 H88        22.7249  -28.5484  -36.5625 H         1 UNK         0.0847 
     89 H89        21.1257  -28.9738  -37.1498 H         1 UNK         0.0847 
     90 H90        22.6662  -26.1277  -39.7505 H         1 UNK         0.3040 
     91 H91        25.3293  -25.3455  -39.0115 H         1 UNK         0.1015 
     92 H92        23.3877  -24.1639  -41.0722 H         1 UNK         0.0786 
     93 H93        24.8665  -23.3912  -40.5172 H         1 UNK         0.0786 
     94 H94        23.5518  -23.6759  -39.3881 H         1 UNK         0.0786 
     95 H95        23.9122  -26.3668  -42.1636 H         1 UNK         0.3172 
     96 H96        26.5952  -26.7034  -43.3717 H         1 UNK         0.0595 
     97 H97        23.7795  -27.1542  -44.4962 H         1 UNK         0.0839 
     98 H98        25.2774  -27.3615  -45.3925 H         1 UNK         0.0839 
     99 H99        24.8330  -25.7720  -44.7992 H         1 UNK         0.0839 
    100 H100       23.7234  -28.7265  -42.5247 H         1 UNK         0.2998 
    101 H101       25.3323  -30.9174  -41.6099 H         1 UNK         0.0822 
    102 H102       25.4435  -31.4242  -44.0716 H         1 UNK         0.0787 
    103 H103       24.4092  -32.5908  -43.2675 H         1 UNK         0.0787 
    104 H104       23.6912  -31.2813  -44.1961 H         1 UNK         0.0787 
    105 H105       24.0607  -32.2907  -40.3268 H         1 UNK         0.3055 
    106 H106       21.3267  -31.3899  -39.6673 H         1 UNK         0.1106 
    107 H107       21.5135  -33.0770  -37.8553 H         1 UNK         0.0828 
    108 H108       23.0623  -33.6234  -38.4817 H         1 UNK         0.0828 
    109 H109       22.8925  -31.9922  -37.8331 H         1 UNK         0.0828 
    110 H110       22.9485  -34.0256  -41.2816 H         1 UNK         0.2931 
    111 H111       22.4653  -35.7990  -42.3530 H         1 UNK         0.0412 
    112 H112       19.3865  -36.9539  -40.1877 H         1 UNK         0.3472 
    113 H113       20.0880  -35.3569  -40.0150 H         1 UNK         0.3472 
    114 H114       21.1907  -35.5822  -44.3674 H         1 UNK         0.0970 
    115 H115       22.0129  -34.0963  -44.0374 H         1 UNK         0.0970 
    116 H116       20.8956  -32.0741  -44.8527 H         1 UNK         0.0612 
    117 H117       20.6895  -31.8339  -43.1329 H         1 UNK         0.0612 
@<TRIPOS>BOND
     1    1    2 1    
     2    1   62 1    
     3    1   63 1    
     4    1   64 1    
     5    2    3 2    
     6    2    4 am   BACKBONE|DICT|INTERRES
     7    4    5 1    
     8    4   65 1    
     9    5    6 1    
    10    5   25 1    
    11    5   66 1    
    12    6    7 1    
    13    6   67 1    
    14    6   68 1    
    15    7    8 1    
    16    8    9 1    
    17    8   69 1    
    18    8   70 1    
    19    9   10 ar   
    20    9   14 ar   
    21   10   11 ar   
    22   10   71 1    
    23   11   12 ar   
    24   11   61 1    
    25   12   13 ar   
    26   12   72 1    
    27   13   14 ar   
    28   13   15 1    
    29   14   73 1    
    30   15   16 1    
    31   15   74 1    
    32   15   75 1    
    33   16   17 1    
    34   17   18 1    
    35   17   76 1    
    36   17   77 1    
    37   18   19 1    
    38   18   27 1    
    39   18   78 1    
    40   19   20 am   BACKBONE|DICT|INTERRES
    41   19   79 1    
    42   20   21 2    
    43   20   22 1    
    44   22   23 1    
    45   22   24 1    
    46   22   80 1    
    47   23   81 1    
    48   23   82 1    
    49   23   83 1    
    50   24   25 am   BACKBONE|DICT|INTERRES
    51   24   84 1    
    52   25   26 2    
    53   27   28 2    
    54   27   29 am   BACKBONE|DICT|INTERRES
    55   29   30 1    
    56   29   85 1    
    57   30   31 1    
    58   30   32 1    
    59   30   86 1    
    60   31   87 1    
    61   31   88 1    
    62   31   89 1    
    63   32   33 2    
    64   32   34 am   BACKBONE|DICT|INTERRES
    65   34   35 1    
    66   34   90 1    
    67   35   36 1    
    68   35   37 1    
    69   35   91 1    
    70   36   92 1    
    71   36   93 1    
    72   36   94 1    
    73   37   38 2    
    74   37   39 am   BACKBONE|DICT|INTERRES
    75   39   40 1    
    76   39   95 1    
    77   40   41 1    
    78   40   42 1    
    79   40   96 1    
    80   41   97 1    
    81   41   98 1    
    82   41   99 1    
    83   42   43 2    
    84   42   44 am   BACKBONE|DICT|INTERRES
    85   44   45 1    
    86   44  100 1    
    87   45   46 1    
    88   45   47 1    
    89   45  101 1    
    90   46  102 1    
    91   46  103 1    
    92   46  104 1    
    93   47   48 2    
    94   47   49 am   BACKBONE|DICT|INTERRES
    95   49   50 1    
    96   49  105 1    
    97   50   51 1    
    98   50   52 1    
    99   50  106 1    
   100   51  107 1    
   101   51  108 1    
   102   51  109 1    
   103   52   53 2    
   104   52   54 am   BACKBONE|DICT|INTERRES
   105   54   55 1    
   106   54  110 1    
   107   55   56 1    
   108   55   59 1    
   109   55  111 1    
   110   56   57 am   BACKBONE|DICT|INTERRES
   111   56   58 2    
   112   57  112 1    
   113   57  113 1    
   114   59   60 1    
   115   59  114 1    
   116   59  115 1    
   117   60   61 1    
   118   61  116 1    
   119   61  117 1    
@<TRIPOS>SUBSTRUCTURE
     1 UNK         1 GROUP             0       ****    0 ROOT    
