@<TRIPOS>MOLECULE
3R8
117   119    1
SMALL
USER_CHARGES


@<TRIPOS>ATOM
      1 CA         14.1121  -27.7304  -42.6899 C.3       0 UNK        -0.2013 
      2 C          15.5678  -27.6188  -43.1155 C.2       0 UNK         0.4866 
      3 O          15.9418  -28.1434  -44.1650 O.2       0 UNK        -0.5176 
      4 N          16.3948  -26.9294  -42.3178 N.am      1 UNK        -0.4884 
      5 CA         17.8291  -26.7242  -42.5517 C.3       1 UNK         0.0853 
      6 C6         18.5848  -26.5136  -41.2124 C.3       10 UNK        -0.0849 
      7 S7         20.3966  -26.7154  -41.3429 S.3       10 UNK        -0.2776 
      8 C8         20.6125  -28.4993  -41.0498 C.3       10 UNK         0.0316 
      9 C9         20.1816  -29.3105  -42.2617 C.ar      10 UNK        -0.0863 
     10 C10        19.0221  -30.0883  -42.2227 C.ar      10 UNK        -0.1009 
     11 C11        18.6229  -30.8147  -43.3482 C.ar      10 UNK        -0.0712 
     12 C12        19.3874  -30.7555  -44.5180 C.ar      10 UNK        -0.0894 
     13 C13        20.5621  -29.9992  -44.5625 C.ar      10 UNK        -0.0745 
     14 C14        20.9480  -29.2774  -43.4293 C.ar      10 UNK        -0.0972 
     15 C15        21.4378  -30.0197  -45.8111 C.3       10 UNK         0.0209 
     16 S16        21.0943  -28.6377  -46.9484 S.3       10 UNK        -0.2568 
     17 C17        22.1086  -27.3086  -46.2120 C.3       10 UNK        -0.0983 
     18 CA         21.5142  -25.8822  -46.3487 C.3       3 UNK         0.0876 
     19 N          20.0706  -25.8534  -46.0957 N.am      3 UNK        -0.4424 
     20 C          19.2354  -24.8697  -46.4552 C.2       2 UNK         0.4918 
     21 O          19.5823  -23.8725  -47.0879 O.2       2 UNK        -0.4875 
     22 CA         17.7672  -25.0112  -46.0106 C.3       2 UNK         0.0481 
     23 CB         16.9092  -25.5583  -47.1616 C.3       2 UNK        -0.1831 
     24 N          17.5912  -25.8669  -44.8322 N.am      2 UNK        -0.4498 
     25 C          18.0803  -25.6253  -43.6079 C.2       1 UNK         0.5027 
     26 O          18.7093  -24.6050  -43.3214 O.2       1 UNK        -0.4969 
     27 C          22.2983  -24.9117  -45.4335 C.2       3 UNK         0.5005 
     28 O          23.4778  -24.6729  -45.6922 O.2       3 UNK        -0.5279 
     29 N          21.6562  -24.4188  -44.3608 N.am      4 UNK        -0.4463 
     30 CA         22.1630  -23.5543  -43.2859 C.3       4 UNK         0.0283 
     31 CB         22.8273  -22.2729  -43.8288 C.3       4 UNK        -0.1875 
     32 C          23.0573  -24.2629  -42.2506 C.2       4 UNK         0.4949 
     33 O          23.1680  -23.7577  -41.1328 O.2       4 UNK        -0.5039 
     34 N          23.6481  -25.4136  -42.5947 N.am      5 UNK        -0.4663 
     35 CA         24.4114  -26.2708  -41.6906 C.3       5 UNK         0.0242 
     36 CB         25.8169  -25.6843  -41.4547 C.3       5 UNK        -0.1982 
     37 C          24.5114  -27.6830  -42.2790 C.2       5 UNK         0.5017 
     38 O          24.5431  -27.8292  -43.5027 O.2       5 UNK        -0.5012 
     39 N          24.5998  -28.6770  -41.3891 N.am      6 UNK        -0.4439 
     40 CA         24.8604  -30.0985  -41.6226 C.3       6 UNK         0.0297 
     41 CB         23.7894  -30.7559  -42.5164 C.3       6 UNK        -0.2006 
     42 C          24.8850  -30.7845  -40.2506 C.2       6 UNK         0.4892 
     43 O          24.4985  -30.1695  -39.2510 O.2       6 UNK        -0.5089 
     44 N          25.2868  -32.0605  -40.2236 N.am      7 UNK        -0.4243 
     45 CA         25.2875  -32.9217  -39.0364 C.3       7 UNK         0.0196 
     46 CB         26.2979  -34.0643  -39.2541 C.3       7 UNK        -0.2007 
     47 C          23.8723  -33.4350  -38.6900 C.2       7 UNK         0.5020 
     48 O          23.6535  -34.6459  -38.6401 O.2       7 UNK        -0.5147 
     49 N          22.9434  -32.4949  -38.4591 N.am      8 UNK        -0.4734 
     50 CA         21.5250  -32.6896  -38.1274 C.3       8 UNK         0.0238 
     51 CB         21.3746  -33.3338  -36.7318 C.3       8 UNK        -0.1912 
     52 C          20.7530  -33.4457  -39.2279 C.2       8 UNK         0.5038 
     53 O          20.1093  -34.4591  -38.9469 O.2       8 UNK        -0.5046 
     54 N          20.8292  -32.9232  -40.4601 N.am      9 UNK        -0.4200 
     55 CA         20.2247  -33.4941  -41.6754 C.3       9 UNK         0.0839 
     56 C          20.9189  -34.8165  -42.1264 C.2       9 UNK         0.5513 
     57 N          20.2481  -35.6647  -42.8935 N.am      9 UNK        -0.7519 
     58 O          22.0885  -35.0571  -41.8348 O.2       9 UNK        -0.4960 
     59 C59        18.6662  -33.5611  -41.5802 C.3       10 UNK        -0.0876 
     60 S60        17.8221  -33.4570  -43.1989 S.3       10 UNK        -0.2414 
     61 C61        17.3826  -31.6914  -43.2927 C.3       10 UNK         0.0169 
     62 H62        13.9225  -27.2228  -41.7443 H         1 UNK         0.0903 
     63 H63        13.4652  -27.2895  -43.4479 H         1 UNK         0.0903 
     64 H64        13.8359  -28.7781  -42.5738 H         1 UNK         0.0903 
     65 H65        16.0215  -26.4867  -41.4895 H         1 UNK         0.3096 
     66 H66        18.2129  -27.6399  -43.0006 H         1 UNK         0.1121 
     67 H67        18.3740  -25.5240  -40.8029 H         1 UNK         0.0849 
     68 H68        18.2230  -27.2222  -40.4658 H         1 UNK         0.0849 
     69 H69        20.0642  -28.7987  -40.1553 H         1 UNK         0.0865 
     70 H70        21.6645  -28.6975  -40.8410 H         1 UNK         0.0865 
     71 H71        18.4295  -30.1280  -41.3190 H         1 UNK         0.1346 
     72 H72        19.0830  -31.3286  -45.3831 H         1 UNK         0.1412 
     73 H73        21.8596  -28.6998  -43.4347 H         1 UNK         0.1426 
     74 H74        21.2817  -30.9545  -46.3515 H         1 UNK         0.0716 
     75 H75        22.4929  -30.0112  -45.5346 H         1 UNK         0.0716 
     76 H76        23.0946  -27.3450  -46.6792 H         1 UNK         0.0695 
     77 H77        22.2803  -27.5410  -45.1639 H         1 UNK         0.0695 
     78 H78        21.6733  -25.5496  -47.3769 H         1 UNK         0.0983 
     79 H79        19.6899  -26.6604  -45.6239 H         1 UNK         0.3095 
     80 H80        17.4036  -24.0141  -45.7543 H         1 UNK         0.0454 
     81 H81        17.2138  -26.5655  -47.4489 H         1 UNK         0.0851 
     82 H82        16.9943  -24.9267  -48.0471 H         1 UNK         0.0851 
     83 H83        15.8540  -25.5914  -46.8899 H         1 UNK         0.0851 
     84 H84        17.0481  -26.7184  -44.9516 H         1 UNK         0.2976 
     85 H85        20.6891  -24.6958  -44.2334 H         1 UNK         0.3116 
     86 H86        21.2705  -23.2442  -42.7398 H         1 UNK         0.0646 
     87 H87        23.0396  -21.5754  -43.0177 H         1 UNK         0.0847 
     88 H88        22.1792  -21.7578  -44.5377 H         1 UNK         0.0847 
     89 H89        23.7749  -22.4810  -44.3258 H         1 UNK         0.0847 
     90 H90        23.5433  -25.7686  -43.5371 H         1 UNK         0.3040 
     91 H91        23.8772  -26.3306  -40.7392 H         1 UNK         0.1015 
     92 H92        25.7692  -24.7051  -40.9784 H         1 UNK         0.0786 
     93 H93        26.3664  -25.5743  -42.3905 H         1 UNK         0.0786 
     94 H94        26.4075  -26.3291  -40.8025 H         1 UNK         0.0786 
     95 H95        24.5521  -28.4633  -40.3982 H         1 UNK         0.3172 
     96 H96        25.8440  -30.1984  -42.0851 H         1 UNK         0.0595 
     97 H97        22.8041  -30.7150  -42.0543 H         1 UNK         0.0839 
     98 H98        24.0131  -31.8081  -42.6956 H         1 UNK         0.0839 
     99 H99        23.7319  -30.2853  -43.4958 H         1 UNK         0.0839 
    100 H100       25.5559  -32.5006  -41.0921 H         1 UNK         0.2998 
    101 H101       25.6325  -32.3374  -38.1804 H         1 UNK         0.0822 
    102 H102       27.2999  -33.6781  -39.4419 H         1 UNK         0.0787 
    103 H103       26.3604  -34.7042  -38.3728 H         1 UNK         0.0787 
    104 H104       26.0173  -34.6966  -40.0976 H         1 UNK         0.0787 
    105 H105       23.2527  -31.5301  -38.5464 H         1 UNK         0.3055 
    106 H106       21.0785  -31.6951  -38.0739 H         1 UNK         0.1106 
    107 H107       20.3255  -33.3873  -36.4383 H         1 UNK         0.0828 
    108 H108       21.7692  -34.3500  -36.7073 H         1 UNK         0.0828 
    109 H109       21.8940  -32.7541  -35.9689 H         1 UNK         0.0828 
    110 H110       21.4150  -32.1154  -40.6033 H         1 UNK         0.2931 
    111 H111       20.4800  -32.7747  -42.4536 H         1 UNK         0.0412 
    112 H112       19.3029  -35.4509  -43.1770 H         1 UNK         0.3472 
    113 H113       20.6950  -36.5116  -43.2084 H         1 UNK         0.3472 
    114 H114       18.2925  -32.7478  -40.9568 H         1 UNK         0.0970 
    115 H115       18.3503  -34.4755  -41.0749 H         1 UNK         0.0970 
    116 H116       16.7520  -31.4256  -42.4429 H         1 UNK         0.0612 
    117 H117       16.7801  -31.5213  -44.1862 H         1 UNK         0.0612 
@<TRIPOS>BOND
     1    1    2 1    
     2    1   62 1    
     3    1   63 1    
     4    1   64 1    
     5    2    3 2    
     6    2    4 am   BACKBONE|DICT|INTERRES
     7    4    5 1    
     8    4   65 1    
     9    5    6 1    
    10    5   25 1    
    11    5   66 1    
    12    6    7 1    
    13    6   67 1    
    14    6   68 1    
    15    7    8 1    
    16    8    9 1    
    17    8   69 1    
    18    8   70 1    
    19    9   10 ar   
    20    9   14 ar   
    21   10   11 ar   
    22   10   71 1    
    23   11   12 ar   
    24   11   61 1    
    25   12   13 ar   
    26   12   72 1    
    27   13   14 ar   
    28   13   15 1    
    29   14   73 1    
    30   15   16 1    
    31   15   74 1    
    32   15   75 1    
    33   16   17 1    
    34   17   18 1    
    35   17   76 1    
    36   17   77 1    
    37   18   19 1    
    38   18   27 1    
    39   18   78 1    
    40   19   20 am   BACKBONE|DICT|INTERRES
    41   19   79 1    
    42   20   21 2    
    43   20   22 1    
    44   22   23 1    
    45   22   24 1    
    46   22   80 1    
    47   23   81 1    
    48   23   82 1    
    49   23   83 1    
    50   24   25 am   BACKBONE|DICT|INTERRES
    51   24   84 1    
    52   25   26 2    
    53   27   28 2    
    54   27   29 am   BACKBONE|DICT|INTERRES
    55   29   30 1    
    56   29   85 1    
    57   30   31 1    
    58   30   32 1    
    59   30   86 1    
    60   31   87 1    
    61   31   88 1    
    62   31   89 1    
    63   32   33 2    
    64   32   34 am   BACKBONE|DICT|INTERRES
    65   34   35 1    
    66   34   90 1    
    67   35   36 1    
    68   35   37 1    
    69   35   91 1    
    70   36   92 1    
    71   36   93 1    
    72   36   94 1    
    73   37   38 2    
    74   37   39 am   BACKBONE|DICT|INTERRES
    75   39   40 1    
    76   39   95 1    
    77   40   41 1    
    78   40   42 1    
    79   40   96 1    
    80   41   97 1    
    81   41   98 1    
    82   41   99 1    
    83   42   43 2    
    84   42   44 am   BACKBONE|DICT|INTERRES
    85   44   45 1    
    86   44  100 1    
    87   45   46 1    
    88   45   47 1    
    89   45  101 1    
    90   46  102 1    
    91   46  103 1    
    92   46  104 1    
    93   47   48 2    
    94   47   49 am   BACKBONE|DICT|INTERRES
    95   49   50 1    
    96   49  105 1    
    97   50   51 1    
    98   50   52 1    
    99   50  106 1    
   100   51  107 1    
   101   51  108 1    
   102   51  109 1    
   103   52   53 2    
   104   52   54 am   BACKBONE|DICT|INTERRES
   105   54   55 1    
   106   54  110 1    
   107   55   56 1    
   108   55   59 1    
   109   55  111 1    
   110   56   57 am   BACKBONE|DICT|INTERRES
   111   56   58 2    
   112   57  112 1    
   113   57  113 1    
   114   59   60 1    
   115   59  114 1    
   116   59  115 1    
   117   60   61 1    
   118   61  116 1    
   119   61  117 1    
@<TRIPOS>SUBSTRUCTURE
     1 UNK         1 GROUP             0       ****    0 ROOT    
