@<TRIPOS>MOLECULE
3R8
117   119    1
SMALL
USER_CHARGES


@<TRIPOS>ATOM
      1 CA         15.1334  -23.2891  -47.2940 C.3       0 UNK        -0.2013 
      2 C          15.4783  -23.0183  -45.8318 C.2       0 UNK         0.4866 
      3 O          15.0419  -22.0067  -45.2857 O.2       0 UNK        -0.5176 
      4 N          16.2572  -23.8737  -45.1599 N.am      1 UNK        -0.4884 
      5 CA         16.8959  -25.0862  -45.6714 C.3       1 UNK         0.0853 
      6 C6         15.9383  -26.3095  -45.6637 C.3       10 UNK        -0.0849 
      7 S7         16.3783  -27.5419  -46.9408 S.3       10 UNK        -0.2776 
      8 C8         15.7435  -29.0928  -46.2258 C.3       10 UNK         0.0316 
      9 C9         16.6436  -29.6367  -45.1239 C.ar      10 UNK        -0.0863 
     10 C10        17.6837  -30.5201  -45.4248 C.ar      10 UNK        -0.1009 
     11 C11        18.4740  -31.0629  -44.4056 C.ar      10 UNK        -0.0712 
     12 C12        18.2512  -30.6749  -43.0784 C.ar      10 UNK        -0.0894 
     13 C13        17.2115  -29.7915  -42.7633 C.ar      10 UNK        -0.0745 
     14 C14        16.4004  -29.3005  -43.7917 C.ar      10 UNK        -0.0972 
     15 C15        16.9086  -29.4303  -41.3108 C.3       10 UNK         0.0209 
     16 S16        16.4857  -27.6648  -41.0884 S.3       10 UNK        -0.2568 
     17 C17        17.9649  -26.9372  -40.3109 C.3       10 UNK        -0.0983 
     18 CA         19.3215  -27.2512  -40.9877 C.3       3 UNK         0.0876 
     19 N          19.3287  -26.9615  -42.4290 N.am      3 UNK        -0.4424 
     20 C          20.3273  -27.2681  -43.2699 C.2       2 UNK         0.4918 
     21 O          21.3483  -27.8504  -42.9017 O.2       2 UNK        -0.4875 
     22 CA         20.2216  -26.8083  -44.7405 C.3       2 UNK         0.0481 
     23 CB         20.7825  -27.8613  -45.7095 C.3       2 UNK        -0.1831 
     24 N          18.8854  -26.4282  -45.2065 N.am      2 UNK        -0.4498 
     25 C          18.1969  -25.3296  -44.8802 C.2       1 UNK         0.5027 
     26 O          18.5524  -24.5373  -44.0031 O.2       1 UNK        -0.4969 
     27 C          20.4540  -26.5326  -40.2207 C.2       3 UNK         0.5005 
     28 O          20.8815  -27.0216  -39.1748 O.2       3 UNK        -0.5279 
     29 N          20.9612  -25.4187  -40.7713 N.am      4 UNK        -0.4463 
     30 CA         22.1509  -24.7062  -40.2928 C.3       4 UNK         0.0283 
     31 CB         22.3223  -23.4141  -41.1077 C.3       4 UNK        -0.1875 
     32 C          23.4443  -25.5467  -40.3417 C.2       4 UNK         0.4949 
     33 O          24.3966  -25.2186  -39.6341 O.2       4 UNK        -0.5039 
     34 N          23.4528  -26.6126  -41.1532 N.am      5 UNK        -0.4663 
     35 CA         24.5322  -27.5878  -41.2702 C.3       5 UNK         0.0242 
     36 CB         25.2147  -27.4157  -42.6406 C.3       5 UNK        -0.1982 
     37 C          23.9848  -29.0104  -41.0640 C.2       5 UNK         0.5017 
     38 O          24.4578  -29.9370  -41.7226 O.2       5 UNK        -0.5012 
     39 N          23.0066  -29.1789  -40.1564 N.am      6 UNK        -0.4439 
     40 CA         22.3161  -30.4477  -39.8700 C.3       6 UNK         0.0297 
     41 CB         21.2831  -30.2493  -38.7491 C.3       6 UNK        -0.2006 
     42 C          23.2350  -31.6343  -39.5263 C.2       6 UNK         0.4892 
     43 O          22.8993  -32.7675  -39.8687 O.2       6 UNK        -0.5089 
     44 N          24.3849  -31.3551  -38.8962 N.am      7 UNK        -0.4243 
     45 CA         25.4281  -32.3381  -38.5883 C.3       7 UNK         0.0196 
     46 CB         26.4857  -31.6855  -37.6837 C.3       7 UNK        -0.2007 
     47 C          26.0919  -32.9486  -39.8381 C.2       7 UNK         0.5020 
     48 O          26.5461  -34.0913  -39.7753 O.2       7 UNK        -0.5147 
     49 N          26.1339  -32.1902  -40.9417 N.am      8 UNK        -0.4734 
     50 CA         26.6123  -32.6486  -42.2463 C.3       8 UNK         0.0238 
     51 CB         27.3793  -31.5092  -42.9384 C.3       8 UNK        -0.1912 
     52 C          25.4477  -33.1269  -43.1265 C.2       8 UNK         0.5038 
     53 O          25.6035  -34.1221  -43.8353 O.2       8 UNK        -0.5046 
     54 N          24.3156  -32.4100  -43.0749 N.am      9 UNK        -0.4200 
     55 CA         23.0947  -32.7070  -43.8365 C.3       9 UNK         0.0839 
     56 C          22.4093  -34.0458  -43.4405 C.2       9 UNK         0.5513 
     57 N          22.3817  -34.4146  -42.1661 N.am      9 UNK        -0.7519 
     58 O          21.9084  -34.7649  -44.3009 O.2       9 UNK        -0.4960 
     59 C59        22.1000  -31.5131  -43.8050 C.3       10 UNK        -0.0876 
     60 S60        21.0825  -31.4291  -45.3150 S.3       10 UNK        -0.2414 
     61 C61        19.5056  -32.1311  -44.7434 C.3       10 UNK         0.0169 
     62 H62        14.8088  -24.3159  -47.4531 H         1 UNK         0.0903 
     63 H63        14.3236  -22.6368  -47.6205 H         1 UNK         0.0903 
     64 H64        15.9958  -23.0931  -47.9304 H         1 UNK         0.0903 
     65 H65        16.5470  -23.6408  -44.2175 H         1 UNK         0.3096 
     66 H66        17.2158  -24.8852  -46.6962 H         1 UNK         0.1121 
     67 H67        14.9124  -26.0004  -45.8664 H         1 UNK         0.0849 
     68 H68        15.9055  -26.7610  -44.6734 H         1 UNK         0.0849 
     69 H69        14.7305  -28.9359  -45.8515 H         1 UNK         0.0865 
     70 H70        15.6552  -29.8330  -47.0227 H         1 UNK         0.0865 
     71 H71        17.8577  -30.8142  -46.4511 H         1 UNK         0.1346 
     72 H72        18.8593  -31.0944  -42.2889 H         1 UNK         0.1412 
     73 H73        15.5645  -28.6600  -43.5495 H         1 UNK         0.1426 
     74 H74        17.7287  -29.7110  -40.6496 H         1 UNK         0.0716 
     75 H75        16.0517  -30.0246  -40.9914 H         1 UNK         0.0716 
     76 H76        17.9802  -27.2713  -39.2713 H         1 UNK         0.0695 
     77 H77        17.8038  -25.8578  -40.2753 H         1 UNK         0.0695 
     78 H78        19.5229  -28.3182  -40.8872 H         1 UNK         0.0983 
     79 H79        18.5365  -26.4497  -42.7906 H         1 UNK         0.3095 
     80 H80        20.8568  -25.9240  -44.8185 H         1 UNK         0.0454 
     81 H81        20.1424  -28.7422  -45.7421 H         1 UNK         0.0851 
     82 H82        21.7817  -28.1901  -45.4202 H         1 UNK         0.0851 
     83 H83        20.8583  -27.4675  -46.7229 H         1 UNK         0.0851 
     84 H84        18.4632  -27.0507  -45.8846 H         1 UNK         0.2976 
     85 H85        20.5389  -25.0778  -41.6237 H         1 UNK         0.3116 
     86 H86        21.9783  -24.4353  -39.2491 H         1 UNK         0.0646 
     87 H87        22.4820  -23.6222  -42.1665 H         1 UNK         0.0847 
     88 H88        23.1820  -22.8419  -40.7558 H         1 UNK         0.0847 
     89 H89        21.4488  -22.7678  -41.0189 H         1 UNK         0.0847 
     90 H90        22.6199  -26.8308  -41.6925 H         1 UNK         0.3040 
     91 H91        25.2799  -27.4288  -40.4903 H         1 UNK         0.1015 
     92 H92        24.5258  -27.6283  -43.4596 H         1 UNK         0.0786 
     93 H93        26.0665  -28.0890  -42.7445 H         1 UNK         0.0786 
     94 H94        25.5891  -26.4004  -42.7718 H         1 UNK         0.0786 
     95 H95        22.6548  -28.3593  -39.6755 H         1 UNK         0.3172 
     96 H96        21.7727  -30.7207  -40.7750 H         1 UNK         0.0595 
     97 H97        20.8256  -31.1975  -38.4620 H         1 UNK         0.0839 
     98 H98        20.4715  -29.5958  -39.0635 H         1 UNK         0.0839 
     99 H99        21.7342  -29.8208  -37.8534 H         1 UNK         0.0839 
    100 H100       24.5730  -30.3945  -38.6496 H         1 UNK         0.2998 
    101 H101       24.9609  -33.1562  -38.0357 H         1 UNK         0.0822 
    102 H102       27.2634  -32.4017  -37.4140 H         1 UNK         0.0787 
    103 H103       26.9748  -30.8438  -38.1760 H         1 UNK         0.0787 
    104 H104       26.0455  -31.3234  -36.7543 H         1 UNK         0.0787 
    105 H105       25.6903  -31.2779  -40.9238 H         1 UNK         0.3055 
    106 H106       27.2994  -33.4885  -42.1183 H         1 UNK         0.1106 
    107 H107       27.7614  -31.8303  -43.9084 H         1 UNK         0.0828 
    108 H108       26.7472  -30.6371  -43.1100 H         1 UNK         0.0828 
    109 H109       28.2349  -31.1900  -42.3432 H         1 UNK         0.0828 
    110 H110       24.2968  -31.5746  -42.4965 H         1 UNK         0.2931 
    111 H111       23.4297  -32.8259  -44.8693 H         1 UNK         0.0412 
    112 H112       22.7408  -33.8103  -41.4317 H         1 UNK         0.3472 
    113 H113       21.9456  -35.2883  -41.9189 H         1 UNK         0.3472 
    114 H114       22.6435  -30.5679  -43.7517 H         1 UNK         0.0970 
    115 H115       21.4678  -31.5353  -42.9169 H         1 UNK         0.0970 
    116 H116       19.1125  -32.7706  -45.5352 H         1 UNK         0.0612 
    117 H117       19.6686  -32.7900  -43.8895 H         1 UNK         0.0612 
@<TRIPOS>BOND
     1    1    2 1    
     2    1   62 1    
     3    1   63 1    
     4    1   64 1    
     5    2    3 2    
     6    2    4 am   BACKBONE|DICT|INTERRES
     7    4    5 1    
     8    4   65 1    
     9    5    6 1    
    10    5   25 1    
    11    5   66 1    
    12    6    7 1    
    13    6   67 1    
    14    6   68 1    
    15    7    8 1    
    16    8    9 1    
    17    8   69 1    
    18    8   70 1    
    19    9   10 ar   
    20    9   14 ar   
    21   10   11 ar   
    22   10   71 1    
    23   11   12 ar   
    24   11   61 1    
    25   12   13 ar   
    26   12   72 1    
    27   13   14 ar   
    28   13   15 1    
    29   14   73 1    
    30   15   16 1    
    31   15   74 1    
    32   15   75 1    
    33   16   17 1    
    34   17   18 1    
    35   17   76 1    
    36   17   77 1    
    37   18   19 1    
    38   18   27 1    
    39   18   78 1    
    40   19   20 am   BACKBONE|DICT|INTERRES
    41   19   79 1    
    42   20   21 2    
    43   20   22 1    
    44   22   23 1    
    45   22   24 1    
    46   22   80 1    
    47   23   81 1    
    48   23   82 1    
    49   23   83 1    
    50   24   25 am   BACKBONE|DICT|INTERRES
    51   24   84 1    
    52   25   26 2    
    53   27   28 2    
    54   27   29 am   BACKBONE|DICT|INTERRES
    55   29   30 1    
    56   29   85 1    
    57   30   31 1    
    58   30   32 1    
    59   30   86 1    
    60   31   87 1    
    61   31   88 1    
    62   31   89 1    
    63   32   33 2    
    64   32   34 am   BACKBONE|DICT|INTERRES
    65   34   35 1    
    66   34   90 1    
    67   35   36 1    
    68   35   37 1    
    69   35   91 1    
    70   36   92 1    
    71   36   93 1    
    72   36   94 1    
    73   37   38 2    
    74   37   39 am   BACKBONE|DICT|INTERRES
    75   39   40 1    
    76   39   95 1    
    77   40   41 1    
    78   40   42 1    
    79   40   96 1    
    80   41   97 1    
    81   41   98 1    
    82   41   99 1    
    83   42   43 2    
    84   42   44 am   BACKBONE|DICT|INTERRES
    85   44   45 1    
    86   44  100 1    
    87   45   46 1    
    88   45   47 1    
    89   45  101 1    
    90   46  102 1    
    91   46  103 1    
    92   46  104 1    
    93   47   48 2    
    94   47   49 am   BACKBONE|DICT|INTERRES
    95   49   50 1    
    96   49  105 1    
    97   50   51 1    
    98   50   52 1    
    99   50  106 1    
   100   51  107 1    
   101   51  108 1    
   102   51  109 1    
   103   52   53 2    
   104   52   54 am   BACKBONE|DICT|INTERRES
   105   54   55 1    
   106   54  110 1    
   107   55   56 1    
   108   55   59 1    
   109   55  111 1    
   110   56   57 am   BACKBONE|DICT|INTERRES
   111   56   58 2    
   112   57  112 1    
   113   57  113 1    
   114   59   60 1    
   115   59  114 1    
   116   59  115 1    
   117   60   61 1    
   118   61  116 1    
   119   61  117 1    
@<TRIPOS>SUBSTRUCTURE
     1 UNK         1 GROUP             0       ****    0 ROOT    
