@<TRIPOS>MOLECULE
3R8
117   119    1
SMALL
USER_CHARGES


@<TRIPOS>ATOM
      1 CA         16.7246  -26.0610  -39.2779 C.3       0 UNK        -0.2013 
      2 C          17.0936  -25.6053  -40.6817 C.2       0 UNK         0.4866 
      3 O          17.4433  -24.4404  -40.8763 O.2       0 UNK        -0.5176 
      4 N          17.0083  -26.5122  -41.6626 N.am      1 UNK        -0.4884 
      5 CA         17.4139  -26.2874  -43.0549 C.3       1 UNK         0.0853 
      6 C6         16.9663  -27.4480  -43.9783 C.3       10 UNK        -0.0849 
      7 S7         15.1701  -27.7598  -43.9382 S.3       10 UNK        -0.2776 
      8 C8         14.9702  -28.8696  -45.3721 C.3       10 UNK         0.0316 
      9 C9         15.8748  -30.0933  -45.2893 C.ar      10 UNK        -0.0863 
     10 C10        15.6383  -31.0820  -44.3302 C.ar      10 UNK        -0.1009 
     11 C11        16.4764  -32.1973  -44.2376 C.ar      10 UNK        -0.0712 
     12 C12        17.5428  -32.3334  -45.1312 C.ar      10 UNK        -0.0894 
     13 C13        17.8067  -31.3383  -46.0770 C.ar      10 UNK        -0.0745 
     14 C14        16.9615  -30.2269  -46.1592 C.ar      10 UNK        -0.0972 
     15 C15        19.0230  -31.4446  -46.9900 C.3       10 UNK         0.0209 
     16 S16        20.5968  -31.3272  -46.0709 S.3       10 UNK        -0.2568 
     17 C17        20.3779  -29.7824  -45.1250 C.3       10 UNK        -0.0983 
     18 CA         21.6232  -28.8682  -45.1301 C.3       3 UNK         0.0876 
     19 N          21.2718  -27.5600  -44.6018 N.am      3 UNK        -0.4424 
     20 C          21.4038  -26.3805  -45.2100 C.2       2 UNK         0.4918 
     21 O          21.8893  -26.2372  -46.3332 O.2       2 UNK        -0.4875 
     22 CA         20.8528  -25.1656  -44.4300 C.3       2 UNK         0.0481 
     23 CB         21.0475  -23.8387  -45.1862 C.3       2 UNK        -0.1831 
     24 N          19.4292  -25.3248  -44.0991 N.am      2 UNK        -0.4498 
     25 C          18.9444  -26.1395  -43.1509 C.2       1 UNK         0.5027 
     26 O          19.6628  -26.8301  -42.4247 O.2       1 UNK        -0.4969 
     27 C          22.7666  -29.3916  -44.2469 C.2       3 UNK         0.5005 
     28 O          22.5428  -29.6760  -43.0634 O.2       3 UNK        -0.5279 
     29 N          23.9691  -29.4512  -44.8394 N.am      4 UNK        -0.4463 
     30 CA         25.2842  -29.6667  -44.2201 C.3       4 UNK         0.0283 
     31 CB         25.3331  -30.9811  -43.4133 C.3       4 UNK        -0.1875 
     32 C          25.7397  -28.4639  -43.3731 C.2       4 UNK         0.4949 
     33 O          24.9507  -27.5647  -43.0767 O.2       4 UNK        -0.5039 
     34 N          27.0210  -28.4722  -42.9799 N.am      5 UNK        -0.4663 
     35 CA         27.6525  -27.4230  -42.1657 C.3       5 UNK         0.0242 
     36 CB         29.1619  -27.6974  -42.0677 C.3       5 UNK        -0.1982 
     37 C          27.0401  -27.2692  -40.7605 C.2       5 UNK         0.5017 
     38 O          27.1020  -26.1809  -40.1882 O.2       5 UNK        -0.5012 
     39 N          26.4457  -28.3539  -40.2458 N.am      6 UNK        -0.4439 
     40 CA         25.6942  -28.3854  -38.9916 C.3       6 UNK         0.0297 
     41 CB         25.5499  -29.8476  -38.5360 C.3       6 UNK        -0.2006 
     42 C          24.3054  -27.7243  -39.0858 C.2       6 UNK         0.4892 
     43 O          23.7531  -27.3855  -38.0387 O.2       6 UNK        -0.5089 
     44 N          23.7620  -27.5806  -40.3088 N.am      7 UNK        -0.4243 
     45 CA         22.3990  -27.1324  -40.6286 C.3       7 UNK         0.0196 
     46 CB         22.2365  -25.6241  -40.3467 C.3       7 UNK        -0.2007 
     47 C          21.3373  -28.0029  -39.9261 C.2       7 UNK         0.5020 
     48 O          20.5054  -27.4923  -39.1724 O.2       7 UNK        -0.5147 
     49 N          21.4378  -29.3211  -40.1363 N.am      8 UNK        -0.4734 
     50 CA         20.6855  -30.3358  -39.3978 C.3       8 UNK         0.0238 
     51 CB         21.3266  -30.5550  -38.0099 C.3       8 UNK        -0.1912 
     52 C          20.5759  -31.6295  -40.2167 C.2       8 UNK         0.5038 
     53 O          20.9169  -32.7032  -39.7164 O.2       8 UNK        -0.5046 
     54 N          20.1081  -31.4994  -41.4645 N.am      9 UNK        -0.4200 
     55 CA         19.9066  -32.6010  -42.4241 C.3       9 UNK         0.0839 
     56 C          21.2254  -33.3044  -42.8686 C.2       9 UNK         0.5513 
     57 N          22.3523  -32.6067  -42.9107 N.am      9 UNK        -0.7519 
     58 O          21.2340  -34.4900  -43.1918 O.2       9 UNK        -0.4960 
     59 C59        18.8044  -33.6130  -41.9877 C.3       10 UNK        -0.0876 
     60 S60        17.1815  -32.8468  -41.6428 S.3       10 UNK        -0.2414 
     61 C61        16.2388  -33.2372  -43.1539 C.3       10 UNK         0.0169 
     62 H62        16.3391  -27.0804  -39.2686 H         1 UNK         0.0903 
     63 H63        17.6026  -26.0253  -38.6330 H         1 UNK         0.0903 
     64 H64        15.9624  -25.4063  -38.8564 H         1 UNK         0.0903 
     65 H65        16.7151  -27.4539  -41.4469 H         1 UNK         0.3096 
     66 H66        16.9496  -25.3597  -43.3969 H         1 UNK         0.1121 
     67 H67        17.4743  -28.3746  -43.7001 H         1 UNK         0.0849 
     68 H68        17.2520  -27.2420  -45.0120 H         1 UNK         0.0849 
     69 H69        13.9300  -29.1938  -45.4276 H         1 UNK         0.0865 
     70 H70        15.1615  -28.3071  -46.2873 H         1 UNK         0.0865 
     71 H71        14.8130  -30.9698  -43.6400 H         1 UNK         0.1346 
     72 H72        18.1962  -33.1923  -45.0638 H         1 UNK         0.1412 
     73 H73        17.1612  -29.4548  -46.8899 H         1 UNK         0.1426 
     74 H74        19.0035  -30.6666  -47.7547 H         1 UNK         0.0716 
     75 H75        18.9927  -32.3971  -47.5208 H         1 UNK         0.0716 
     76 H76        20.0617  -30.0182  -44.1087 H         1 UNK         0.0695 
     77 H77        19.5475  -29.2315  -45.5678 H         1 UNK         0.0695 
     78 H78        21.9733  -28.7714  -46.1603 H         1 UNK         0.0983 
     79 H79        20.8696  -27.5572  -43.6680 H         1 UNK         0.3095 
     80 H80        21.4197  -25.0988  -43.4988 H         1 UNK         0.0454 
     81 H81        20.5055  -23.8281  -46.1325 H         1 UNK         0.0851 
     82 H82        22.1012  -23.6692  -45.4123 H         1 UNK         0.0851 
     83 H83        20.7063  -22.9900  -44.5934 H         1 UNK         0.0851 
     84 H84        18.7792  -24.8211  -44.6860 H         1 UNK         0.2976 
     85 H85        24.0132  -29.1687  -45.8088 H         1 UNK         0.3116 
     86 H86        25.9890  -29.7555  -45.0484 H         1 UNK         0.0646 
     87 H87        24.7475  -30.9229  -42.4956 H         1 UNK         0.0847 
     88 H88        26.3546  -31.2297  -43.1244 H         1 UNK         0.0847 
     89 H89        24.9585  -31.8177  -44.0023 H         1 UNK         0.0847 
     90 H90        27.6150  -29.2364  -43.2707 H         1 UNK         0.3040 
     91 H91        27.5089  -26.4711  -42.6821 H         1 UNK         0.1015 
     92 H92        29.3691  -28.6508  -41.5800 H         1 UNK         0.0786 
     93 H93        29.6632  -26.9200  -41.4890 H         1 UNK         0.0786 
     94 H94        29.6279  -27.7144  -43.0532 H         1 UNK         0.0786 
     95 H95        26.4668  -29.2038  -40.7897 H         1 UNK         0.3172 
     96 H96        26.2661  -27.8458  -38.2335 H         1 UNK         0.0595 
     97 H97        24.9852  -30.4425  -39.2553 H         1 UNK         0.0839 
     98 H98        25.0237  -29.9084  -37.5821 H         1 UNK         0.0839 
     99 H99        26.5226  -30.3197  -38.3966 H         1 UNK         0.0839 
    100 H100       24.3170  -27.8432  -41.1161 H         1 UNK         0.2998 
    101 H101       22.2685  -27.2825  -41.7008 H         1 UNK         0.0822 
    102 H102       22.9731  -25.0384  -40.8964 H         1 UNK         0.0787 
    103 H103       21.2491  -25.2777  -40.6552 H         1 UNK         0.0787 
    104 H104       22.3456  -25.3945  -39.2865 H         1 UNK         0.0787 
    105 H105       22.1009  -29.6546  -40.8277 H         1 UNK         0.3055 
    106 H106       19.6626  -29.9817  -39.2491 H         1 UNK         0.1106 
    107 H107       20.7722  -31.2964  -37.4331 H         1 UNK         0.0828 
    108 H108       22.3555  -30.9064  -38.0954 H         1 UNK         0.0828 
    109 H109       21.3369  -29.6358  -37.4238 H         1 UNK         0.0828 
    110 H110       19.8842  -30.5743  -41.7998 H         1 UNK         0.2931 
    111 H111       19.5436  -32.1194  -43.3278 H         1 UNK         0.0412 
    112 H112       23.1979  -33.0702  -43.1980 H         1 UNK         0.3472 
    113 H113       22.3525  -31.6071  -42.7401 H         1 UNK         0.3472 
    114 H114       18.6704  -34.3808  -42.7511 H         1 UNK         0.0970 
    115 H115       19.1206  -34.1496  -41.0921 H         1 UNK         0.0970 
    116 H116       15.1780  -33.2670  -42.9005 H         1 UNK         0.0612 
    117 H117       16.4881  -34.2357  -43.5155 H         1 UNK         0.0612 
@<TRIPOS>BOND
     1    1    2 1    
     2    1   62 1    
     3    1   63 1    
     4    1   64 1    
     5    2    3 2    
     6    2    4 am   BACKBONE|DICT|INTERRES
     7    4    5 1    
     8    4   65 1    
     9    5    6 1    
    10    5   25 1    
    11    5   66 1    
    12    6    7 1    
    13    6   67 1    
    14    6   68 1    
    15    7    8 1    
    16    8    9 1    
    17    8   69 1    
    18    8   70 1    
    19    9   10 ar   
    20    9   14 ar   
    21   10   11 ar   
    22   10   71 1    
    23   11   12 ar   
    24   11   61 1    
    25   12   13 ar   
    26   12   72 1    
    27   13   14 ar   
    28   13   15 1    
    29   14   73 1    
    30   15   16 1    
    31   15   74 1    
    32   15   75 1    
    33   16   17 1    
    34   17   18 1    
    35   17   76 1    
    36   17   77 1    
    37   18   19 1    
    38   18   27 1    
    39   18   78 1    
    40   19   20 am   BACKBONE|DICT|INTERRES
    41   19   79 1    
    42   20   21 2    
    43   20   22 1    
    44   22   23 1    
    45   22   24 1    
    46   22   80 1    
    47   23   81 1    
    48   23   82 1    
    49   23   83 1    
    50   24   25 am   BACKBONE|DICT|INTERRES
    51   24   84 1    
    52   25   26 2    
    53   27   28 2    
    54   27   29 am   BACKBONE|DICT|INTERRES
    55   29   30 1    
    56   29   85 1    
    57   30   31 1    
    58   30   32 1    
    59   30   86 1    
    60   31   87 1    
    61   31   88 1    
    62   31   89 1    
    63   32   33 2    
    64   32   34 am   BACKBONE|DICT|INTERRES
    65   34   35 1    
    66   34   90 1    
    67   35   36 1    
    68   35   37 1    
    69   35   91 1    
    70   36   92 1    
    71   36   93 1    
    72   36   94 1    
    73   37   38 2    
    74   37   39 am   BACKBONE|DICT|INTERRES
    75   39   40 1    
    76   39   95 1    
    77   40   41 1    
    78   40   42 1    
    79   40   96 1    
    80   41   97 1    
    81   41   98 1    
    82   41   99 1    
    83   42   43 2    
    84   42   44 am   BACKBONE|DICT|INTERRES
    85   44   45 1    
    86   44  100 1    
    87   45   46 1    
    88   45   47 1    
    89   45  101 1    
    90   46  102 1    
    91   46  103 1    
    92   46  104 1    
    93   47   48 2    
    94   47   49 am   BACKBONE|DICT|INTERRES
    95   49   50 1    
    96   49  105 1    
    97   50   51 1    
    98   50   52 1    
    99   50  106 1    
   100   51  107 1    
   101   51  108 1    
   102   51  109 1    
   103   52   53 2    
   104   52   54 am   BACKBONE|DICT|INTERRES
   105   54   55 1    
   106   54  110 1    
   107   55   56 1    
   108   55   59 1    
   109   55  111 1    
   110   56   57 am   BACKBONE|DICT|INTERRES
   111   56   58 2    
   112   57  112 1    
   113   57  113 1    
   114   59   60 1    
   115   59  114 1    
   116   59  115 1    
   117   60   61 1    
   118   61  116 1    
   119   61  117 1    
@<TRIPOS>SUBSTRUCTURE
     1 UNK         1 GROUP             0       ****    0 ROOT    
