@<TRIPOS>MOLECULE
3R8
117   119    1
SMALL
USER_CHARGES


@<TRIPOS>ATOM
      1 CA         13.4962  -24.4796  -46.1699 C.3       0 UNK        -0.2013 
      2 C          14.9746  -24.2743  -46.4648 C.2       0 UNK         0.4866 
      3 O          15.3966  -23.1472  -46.7269 O.2       0 UNK        -0.5176 
      4 N          15.7628  -25.3554  -46.4337 N.am      1 UNK        -0.4884 
      5 CA         17.2183  -25.3382  -46.6109 C.3       1 UNK         0.0853 
      6 C6         17.7504  -26.7287  -47.0492 C.3       10 UNK        -0.0849 
      7 S7         17.3704  -28.0846  -45.8829 S.3       10 UNK        -0.2776 
      8 C8         18.9998  -28.3142  -45.1108 C.3       10 UNK         0.0316 
      9 C9         18.9052  -29.1670  -43.8586 C.ar      10 UNK        -0.0863 
     10 C10        19.1899  -30.5328  -43.9128 C.ar      10 UNK        -0.1009 
     11 C11        19.1510  -31.3143  -42.7540 C.ar      10 UNK        -0.0712 
     12 C12        18.8145  -30.7148  -41.5347 C.ar      10 UNK        -0.0894 
     13 C13        18.5037  -29.3505  -41.4716 C.ar      10 UNK        -0.0745 
     14 C14        18.5480  -28.5844  -42.6400 C.ar      10 UNK        -0.0972 
     15 C15        18.0761  -28.7168  -40.1526 C.3       10 UNK         0.0209 
     16 S16        19.4064  -27.7476  -39.3667 S.3       10 UNK        -0.2568 
     17 C17        19.2702  -26.1233  -40.1959 C.3       10 UNK        -0.0983 
     18 CA         20.3921  -25.8910  -41.2409 C.3       3 UNK         0.0876 
     19 N          19.9476  -25.0035  -42.3179 N.am      3 UNK        -0.4424 
     20 C          20.5160  -24.9466  -43.5275 C.2       2 UNK         0.4918 
     21 O          21.3824  -25.7310  -43.9189 O.2       2 UNK        -0.4875 
     22 CA         20.0359  -23.8204  -44.4582 C.3       2 UNK         0.0481 
     23 CB         21.2289  -23.0712  -45.0767 C.3       2 UNK        -0.1831 
     24 N          19.1800  -24.3362  -45.5273 N.am      2 UNK        -0.4498 
     25 C          17.9352  -24.8007  -45.3504 C.2       1 UNK         0.5027 
     26 O          17.3683  -24.8256  -44.2537 O.2       1 UNK        -0.4969 
     27 C          21.6964  -25.3537  -40.6067 C.2       3 UNK         0.5005 
     28 O          22.0587  -24.1936  -40.8201 O.2       3 UNK        -0.5279 
     29 N          22.4012  -26.2249  -39.8753 N.am      4 UNK        -0.4463 
     30 CA         23.7379  -26.0733  -39.2792 C.3       4 UNK         0.0283 
     31 CB         23.8810  -24.7976  -38.4261 C.3       4 UNK        -0.1875 
     32 C          24.8698  -26.2066  -40.3128 C.2       4 UNK         0.4949 
     33 O          25.8952  -26.8110  -39.9998 O.2       4 UNK        -0.5039 
     34 N          24.6481  -25.7159  -41.5412 N.am      5 UNK        -0.4663 
     35 CA         25.4470  -26.0500  -42.7274 C.3       5 UNK         0.0242 
     36 CB         25.0908  -25.0840  -43.8687 C.3       5 UNK        -0.1982 
     37 C          25.2391  -27.5146  -43.1655 C.2       5 UNK         0.5017 
     38 O          26.1580  -28.1291  -43.7074 O.2       5 UNK        -0.5012 
     39 N          24.0459  -28.0437  -42.8796 N.am      6 UNK        -0.4439 
     40 CA         23.6617  -29.4482  -42.9156 C.3       6 UNK         0.0297 
     41 CB         22.8162  -29.7038  -44.1723 C.3       6 UNK        -0.2006 
     42 C          22.8520  -29.6954  -41.6345 C.2       6 UNK         0.4892 
     43 O          22.2193  -28.7583  -41.1433 O.2       6 UNK        -0.5089 
     44 N          22.8913  -30.9169  -41.0930 N.am      7 UNK        -0.4243 
     45 CA         22.1966  -31.2590  -39.8486 C.3       7 UNK         0.0196 
     46 CB         22.9270  -30.6747  -38.6214 C.3       7 UNK        -0.2007 
     47 C          22.0070  -32.7708  -39.7119 C.2       7 UNK         0.5020 
     48 O          20.8767  -33.2211  -39.5272 O.2       7 UNK        -0.5147 
     49 N          23.1122  -33.5278  -39.7892 N.am      8 UNK        -0.4734 
     50 CA         23.1065  -34.9914  -39.6784 C.3       8 UNK         0.0238 
     51 CB         24.5352  -35.5062  -39.4329 C.3       8 UNK        -0.1912 
     52 C          22.4778  -35.6571  -40.9117 C.2       8 UNK         0.5038 
     53 O          21.5710  -36.4772  -40.7643 O.2       8 UNK        -0.5046 
     54 N          22.9578  -35.2544  -42.0965 N.am      9 UNK        -0.4200 
     55 CA         22.4237  -35.6128  -43.4224 C.3       9 UNK         0.0839 
     56 C          22.4842  -37.1305  -43.7775 C.2       9 UNK         0.5513 
     57 N          23.3481  -37.9171  -43.1470 N.am      9 UNK        -0.7519 
     58 O          21.7658  -37.5995  -44.6570 O.2       9 UNK        -0.4960 
     59 C59        21.0287  -34.9762  -43.6844 C.3       10 UNK        -0.0876 
     60 S60        21.0763  -33.1573  -43.5360 S.3       10 UNK        -0.2414 
     61 C61        19.4346  -32.8098  -42.8331 C.3       10 UNK         0.0169 
     62 H62        12.8950  -24.1535  -47.0183 H         1 UNK         0.0903 
     63 H63        13.2616  -25.5251  -45.9702 H         1 UNK         0.0903 
     64 H64        13.2031  -23.8942  -45.2989 H         1 UNK         0.0903 
     65 H65        15.3763  -26.2524  -46.1740 H         1 UNK         0.3096 
     66 H66        17.4384  -24.6369  -47.4196 H         1 UNK         0.1121 
     67 H67        17.3060  -26.9927  -48.0102 H         1 UNK         0.0849 
     68 H68        18.8251  -26.6898  -47.2370 H         1 UNK         0.0849 
     69 H69        19.6834  -28.7655  -45.8318 H         1 UNK         0.0865 
     70 H70        19.4270  -27.3464  -44.8520 H         1 UNK         0.0865 
     71 H71        19.4510  -30.9904  -44.8573 H         1 UNK         0.1346 
     72 H72        18.7768  -31.3160  -40.6363 H         1 UNK         0.1412 
     73 H73        18.3036  -27.5318  -42.6055 H         1 UNK         0.1426 
     74 H74        17.7677  -29.4952  -39.4531 H         1 UNK         0.0716 
     75 H75        17.1949  -28.0923  -40.3056 H         1 UNK         0.0716 
     76 H76        19.2655  -25.3380  -39.4373 H         1 UNK         0.0695 
     77 H77        18.2905  -26.0665  -40.6724 H         1 UNK         0.0695 
     78 H78        20.6269  -26.8494  -41.7076 H         1 UNK         0.0983 
     79 H79        19.2484  -24.3167  -42.0761 H         1 UNK         0.3095 
     80 H80        19.4601  -23.0996  -43.8733 H         1 UNK         0.0454 
     81 H81        21.8313  -23.7198  -45.7142 H         1 UNK         0.0851 
     82 H82        21.8870  -22.6806  -44.2991 H         1 UNK         0.0851 
     83 H83        20.8987  -22.2230  -45.6764 H         1 UNK         0.0851 
     84 H84        19.5915  -24.3723  -46.4490 H         1 UNK         0.2976 
     85 H85        22.0482  -27.1794  -39.8668 H         1 UNK         0.3116 
     86 H86        23.8389  -26.9236  -38.6026 H         1 UNK         0.0646 
     87 H87        23.8915  -23.8929  -39.0341 H         1 UNK         0.0847 
     88 H88        24.8163  -24.8142  -37.8654 H         1 UNK         0.0847 
     89 H89        23.0705  -24.7094  -37.7029 H         1 UNK         0.0847 
     90 H90        23.8020  -25.1774  -41.6861 H         1 UNK         0.3040 
     91 H91        26.5036  -25.9233  -42.4807 H         1 UNK         0.1015 
     92 H92        24.0420  -25.1661  -44.1565 H         1 UNK         0.0786 
     93 H93        25.6892  -25.2933  -44.7564 H         1 UNK         0.0786 
     94 H94        25.2813  -24.0484  -43.5866 H         1 UNK         0.0786 
     95 H95        23.3746  -27.4642  -42.3919 H         1 UNK         0.3172 
     96 H96        24.5470  -30.0872  -42.9165 H         1 UNK         0.0595 
     97 H97        22.5266  -30.7510  -44.2439 H         1 UNK         0.0839 
     98 H98        23.3689  -29.4575  -45.0788 H         1 UNK         0.0839 
     99 H99        21.9017  -29.1091  -44.1665 H         1 UNK         0.0839 
    100 H100       23.3684  -31.6653  -41.5751 H         1 UNK         0.2998 
    101 H101       21.1969  -30.8200  -39.8844 H         1 UNK         0.0822 
    102 H102       22.4479  -30.9919  -37.6941 H         1 UNK         0.0787 
    103 H103       23.9690  -30.9927  -38.5785 H         1 UNK         0.0787 
    104 H104       22.9119  -29.5848  -38.6300 H         1 UNK         0.0787 
    105 H105       24.0103  -33.0774  -39.8909 H         1 UNK         0.3055 
    106 H106       22.4973  -35.2653  -38.8135 H         1 UNK         0.1106 
    107 H107       24.5475  -36.5938  -39.3478 H         1 UNK         0.0828 
    108 H108       25.2154  -35.2348  -40.2409 H         1 UNK         0.0828 
    109 H109       24.9441  -35.1077  -38.5041 H         1 UNK         0.0828 
    110 H110       23.7162  -34.5900  -42.1015 H         1 UNK         0.2931 
    111 H111       23.1127  -35.1548  -44.1331 H         1 UNK         0.0412 
    112 H112       23.9498  -37.5439  -42.4303 H         1 UNK         0.3472 
    113 H113       23.3921  -38.8955  -43.3860 H         1 UNK         0.3472 
    114 H114       20.6758  -35.2123  -44.6898 H         1 UNK         0.0970 
    115 H115       20.2885  -35.3876  -42.9961 H         1 UNK         0.0970 
    116 H116       19.3672  -33.2721  -41.8472 H         1 UNK         0.0612 
    117 H117       18.6711  -33.2803  -43.4540 H         1 UNK         0.0612 
@<TRIPOS>BOND
     1    1    2 1    
     2    1   62 1    
     3    1   63 1    
     4    1   64 1    
     5    2    3 2    
     6    2    4 am   BACKBONE|DICT|INTERRES
     7    4    5 1    
     8    4   65 1    
     9    5    6 1    
    10    5   25 1    
    11    5   66 1    
    12    6    7 1    
    13    6   67 1    
    14    6   68 1    
    15    7    8 1    
    16    8    9 1    
    17    8   69 1    
    18    8   70 1    
    19    9   10 ar   
    20    9   14 ar   
    21   10   11 ar   
    22   10   71 1    
    23   11   12 ar   
    24   11   61 1    
    25   12   13 ar   
    26   12   72 1    
    27   13   14 ar   
    28   13   15 1    
    29   14   73 1    
    30   15   16 1    
    31   15   74 1    
    32   15   75 1    
    33   16   17 1    
    34   17   18 1    
    35   17   76 1    
    36   17   77 1    
    37   18   19 1    
    38   18   27 1    
    39   18   78 1    
    40   19   20 am   BACKBONE|DICT|INTERRES
    41   19   79 1    
    42   20   21 2    
    43   20   22 1    
    44   22   23 1    
    45   22   24 1    
    46   22   80 1    
    47   23   81 1    
    48   23   82 1    
    49   23   83 1    
    50   24   25 am   BACKBONE|DICT|INTERRES
    51   24   84 1    
    52   25   26 2    
    53   27   28 2    
    54   27   29 am   BACKBONE|DICT|INTERRES
    55   29   30 1    
    56   29   85 1    
    57   30   31 1    
    58   30   32 1    
    59   30   86 1    
    60   31   87 1    
    61   31   88 1    
    62   31   89 1    
    63   32   33 2    
    64   32   34 am   BACKBONE|DICT|INTERRES
    65   34   35 1    
    66   34   90 1    
    67   35   36 1    
    68   35   37 1    
    69   35   91 1    
    70   36   92 1    
    71   36   93 1    
    72   36   94 1    
    73   37   38 2    
    74   37   39 am   BACKBONE|DICT|INTERRES
    75   39   40 1    
    76   39   95 1    
    77   40   41 1    
    78   40   42 1    
    79   40   96 1    
    80   41   97 1    
    81   41   98 1    
    82   41   99 1    
    83   42   43 2    
    84   42   44 am   BACKBONE|DICT|INTERRES
    85   44   45 1    
    86   44  100 1    
    87   45   46 1    
    88   45   47 1    
    89   45  101 1    
    90   46  102 1    
    91   46  103 1    
    92   46  104 1    
    93   47   48 2    
    94   47   49 am   BACKBONE|DICT|INTERRES
    95   49   50 1    
    96   49  105 1    
    97   50   51 1    
    98   50   52 1    
    99   50  106 1    
   100   51  107 1    
   101   51  108 1    
   102   51  109 1    
   103   52   53 2    
   104   52   54 am   BACKBONE|DICT|INTERRES
   105   54   55 1    
   106   54  110 1    
   107   55   56 1    
   108   55   59 1    
   109   55  111 1    
   110   56   57 am   BACKBONE|DICT|INTERRES
   111   56   58 2    
   112   57  112 1    
   113   57  113 1    
   114   59   60 1    
   115   59  114 1    
   116   59  115 1    
   117   60   61 1    
   118   61  116 1    
   119   61  117 1    
@<TRIPOS>SUBSTRUCTURE
     1 UNK         1 GROUP             0       ****    0 ROOT    
