@<TRIPOS>MOLECULE
3R8
117   119    1
SMALL
USER_CHARGES


@<TRIPOS>ATOM
      1 CA         19.0750  -23.9012  -48.8463 C.3       0 UNK        -0.2013 
      2 C          19.9487  -24.9549  -48.1823 C.2       0 UNK         0.4866 
      3 O          21.1712  -24.9112  -48.3202 O.2       0 UNK        -0.5176 
      4 N          19.3315  -25.9027  -47.4634 N.am      1 UNK        -0.4884 
      5 CA         20.0180  -26.9876  -46.7471 C.3       1 UNK         0.0853 
      6 C6         19.0367  -28.1390  -46.4074 C.3       10 UNK        -0.0849 
      7 S7         19.8537  -29.7682  -46.2925 S.3       10 UNK        -0.2776 
      8 C8         18.4265  -30.8462  -45.9461 C.3       10 UNK         0.0316 
      9 C9         17.9807  -30.7237  -44.4974 C.ar      10 UNK        -0.0863 
     10 C10        18.5767  -31.5080  -43.5068 C.ar      10 UNK        -0.1009 
     11 C11        18.1893  -31.3818  -42.1676 C.ar      10 UNK        -0.0712 
     12 C12        17.2042  -30.4495  -41.8231 C.ar      10 UNK        -0.0894 
     13 C13        16.6032  -29.6590  -42.8078 C.ar      10 UNK        -0.0745 
     14 C14        16.9818  -29.8150  -44.1432 C.ar      10 UNK        -0.0972 
     15 C15        15.5505  -28.6238  -42.4459 C.3       10 UNK         0.0209 
     16 S16        16.2117  -26.9317  -42.5863 S.3       10 UNK        -0.2568 
     17 C17        17.1133  -26.7355  -41.0119 C.3       10 UNK        -0.0983 
     18 CA         18.6550  -26.8455  -41.1430 C.3       3 UNK         0.0876 
     19 N          19.1905  -25.9476  -42.1743 N.am      3 UNK        -0.4424 
     20 C          20.4824  -25.7101  -42.4474 C.2       2 UNK         0.4918 
     21 O          21.4275  -26.2134  -41.8372 O.2       2 UNK        -0.4875 
     22 CA         20.7382  -24.7703  -43.6399 C.3       2 UNK         0.0481 
     23 CB         22.2060  -24.3004  -43.7375 C.3       2 UNK        -0.1831 
     24 N          20.2839  -25.3777  -44.8976 N.am      2 UNK        -0.4498 
     25 C          20.7568  -26.4924  -45.4829 C.2       1 UNK         0.5027 
     26 O          21.7295  -27.1243  -45.0756 O.2       1 UNK        -0.4969 
     27 C          19.3035  -26.6024  -39.7628 C.2       3 UNK         0.5005 
     28 O          19.3241  -25.4607  -39.2966 O.2       3 UNK        -0.5279 
     29 N          19.8166  -27.6785  -39.1491 N.am      4 UNK        -0.4463 
     30 CA         20.4975  -27.7289  -37.8465 C.3       4 UNK         0.0283 
     31 CB         19.5638  -27.2646  -36.7077 C.3       4 UNK        -0.1875 
     32 C          21.8743  -27.0299  -37.7869 C.2       4 UNK         0.4949 
     33 O          22.4635  -26.9865  -36.7056 O.2       4 UNK        -0.5039 
     34 N          22.3888  -26.5362  -38.9218 N.am      5 UNK        -0.4663 
     35 CA         23.7587  -26.0435  -39.0749 C.3       5 UNK         0.0242 
     36 CB         23.7307  -24.6633  -39.7635 C.3       5 UNK        -0.1982 
     37 C          24.5608  -27.1167  -39.8309 C.2       5 UNK         0.5017 
     38 O          24.5466  -28.2779  -39.4158 O.2       5 UNK        -0.5012 
     39 N          25.2130  -26.7511  -40.9430 N.am      6 UNK        -0.4439 
     40 CA         25.9229  -27.6616  -41.8516 C.3       6 UNK         0.0297 
     41 CB         26.9851  -26.8610  -42.6287 C.3       6 UNK        -0.2006 
     42 C          24.9497  -28.4198  -42.7825 C.2       6 UNK         0.4892 
     43 O          25.1228  -28.4093  -44.0027 O.2       6 UNK        -0.5089 
     44 N          23.9251  -29.0336  -42.1821 N.am      7 UNK        -0.4243 
     45 CA         22.8246  -29.7152  -42.8547 C.3       7 UNK         0.0196 
     46 CB         21.6251  -29.7473  -41.8972 C.3       7 UNK        -0.2007 
     47 C          23.2024  -31.1368  -43.2900 C.2       7 UNK         0.5020 
     48 O          24.1180  -31.7420  -42.7264 O.2       7 UNK        -0.5147 
     49 N          22.4380  -31.6704  -44.2521 N.am      8 UNK        -0.4734 
     50 CA         22.6200  -33.0076  -44.8325 C.3       8 UNK         0.0238 
     51 CB         21.6911  -33.1586  -46.0478 C.3       8 UNK        -0.1912 
     52 C          22.4111  -34.1796  -43.8529 C.2       8 UNK         0.5038 
     53 O          22.8469  -35.2906  -44.1583 O.2       8 UNK        -0.5046 
     54 N          21.7611  -33.9248  -42.7086 N.am      9 UNK        -0.4200 
     55 CA         21.5703  -34.8989  -41.6203 C.3       9 UNK         0.0839 
     56 C          22.8757  -35.2512  -40.8469 C.2       9 UNK         0.5513 
     57 N          23.9549  -34.4860  -40.9746 N.am      9 UNK        -0.7519 
     58 O          22.9063  -36.2386  -40.1171 O.2       9 UNK        -0.4960 
     59 C59        20.4507  -34.4819  -40.6262 C.3       10 UNK        -0.0876 
     60 S60        18.8907  -33.9880  -41.4404 S.3       10 UNK        -0.2414 
     61 C61        18.8826  -32.2001  -41.0860 C.3       10 UNK         0.0169 
     62 H62        18.0160  -24.0621  -48.6456 H         1 UNK         0.0903 
     63 H63        19.3421  -22.9092  -48.4829 H         1 UNK         0.0903 
     64 H64        19.2214  -23.9191  -49.9259 H         1 UNK         0.0903 
     65 H65        18.3230  -25.8944  -47.3960 H         1 UNK         0.3096 
     66 H66        20.7823  -27.3788  -47.4233 H         1 UNK         0.1121 
     67 H67        18.4942  -27.9287  -45.4842 H         1 UNK         0.0849 
     68 H68        18.2785  -28.2259  -47.1876 H         1 UNK         0.0849 
     69 H69        18.6957  -31.8800  -46.1635 H         1 UNK         0.0865 
     70 H70        17.6059  -30.6041  -46.6234 H         1 UNK         0.0865 
     71 H71        19.3520  -32.2112  -43.7765 H         1 UNK         0.1346 
     72 H72        16.9132  -30.3296  -40.7885 H         1 UNK         0.1412 
     73 H73        16.5149  -29.2037  -44.9036 H         1 UNK         0.1426 
     74 H74        15.1542  -28.7930  -41.4436 H         1 UNK         0.0716 
     75 H75        14.7038  -28.7251  -43.1264 H         1 UNK         0.0716 
     76 H76        16.7411  -27.4677  -40.2929 H         1 UNK         0.0695 
     77 H77        16.8379  -25.7584  -40.6092 H         1 UNK         0.0695 
     78 H78        18.8951  -27.8593  -41.4698 H         1 UNK         0.0983 
     79 H79        18.4910  -25.4902  -42.7397 H         1 UNK         0.3095 
     80 H80        20.1232  -23.8826  -43.4843 H         1 UNK         0.0454 
     81 H81        22.9026  -25.1359  -43.8164 H         1 UNK         0.0851 
     82 H82        22.4869  -23.7291  -42.8526 H         1 UNK         0.0851 
     83 H83        22.3591  -23.6546  -44.6018 H         1 UNK         0.0851 
     84 H84        19.4891  -24.9345  -45.3362 H         1 UNK         0.2976 
     85 H85        19.7546  -28.5680  -39.6243 H         1 UNK         0.3116 
     86 H86        20.7070  -28.7859  -37.6752 H         1 UNK         0.0646 
     87 H87        19.3656  -26.1936  -36.7546 H         1 UNK         0.0847 
     88 H88        20.0070  -27.4657  -35.7316 H         1 UNK         0.0847 
     89 H89        18.6072  -27.7858  -36.7389 H         1 UNK         0.0847 
     90 H90        21.8519  -26.6097  -39.7792 H         1 UNK         0.3040 
     91 H91        24.2378  -25.9218  -38.1011 H         1 UNK         0.1015 
     92 H92        23.3153  -24.7124  -40.7695 H         1 UNK         0.0786 
     93 H93        24.7307  -24.2329  -39.8316 H         1 UNK         0.0786 
     94 H94        23.1225  -23.9594  -39.1949 H         1 UNK         0.0786 
     95 H95        25.1348  -25.7900  -41.2424 H         1 UNK         0.3172 
     96 H96        26.4470  -28.4132  -41.2573 H         1 UNK         0.0595 
     97 H97        26.5321  -26.0971  -43.2620 H         1 UNK         0.0839 
     98 H98        27.5714  -27.5150  -43.2757 H         1 UNK         0.0839 
     99 H99        27.6844  -26.3676  -41.9534 H         1 UNK         0.0839 
    100 H100       23.9071  -29.0212  -41.1683 H         1 UNK         0.2998 
    101 H101       22.5530  -29.1408  -43.7413 H         1 UNK         0.0822 
    102 H102       21.8072  -30.4004  -41.0429 H         1 UNK         0.0787 
    103 H103       21.3991  -28.7549  -41.5130 H         1 UNK         0.0787 
    104 H104       20.7328  -30.0965  -42.4135 H         1 UNK         0.0787 
    105 H105       21.7067  -31.1008  -44.6572 H         1 UNK         0.3055 
    106 H106       23.6528  -33.0718  -45.1823 H         1 UNK         0.1106 
    107 H107       21.8720  -34.1039  -46.5614 H         1 UNK         0.0828 
    108 H108       20.6419  -33.1473  -45.7544 H         1 UNK         0.0828 
    109 H109       21.8487  -32.3623  -46.7756 H         1 UNK         0.0828 
    110 H110       21.4427  -32.9852  -42.5349 H         1 UNK         0.2931 
    111 H111       21.2415  -35.8276  -42.0912 H         1 UNK         0.0412 
    112 H112       23.9447  -33.6676  -41.5698 H         1 UNK         0.3472 
    113 H113       24.7925  -34.7279  -40.4691 H         1 UNK         0.3472 
    114 H114       20.2195  -35.3166  -39.9615 H         1 UNK         0.0970 
    115 H115       20.7980  -33.6800  -39.9721 H         1 UNK         0.0970 
    116 H116       18.4134  -32.0429  -40.1136 H         1 UNK         0.0612 
    117 H117       19.9052  -31.8393  -40.9952 H         1 UNK         0.0612 
@<TRIPOS>BOND
     1    1    2 1    
     2    1   62 1    
     3    1   63 1    
     4    1   64 1    
     5    2    3 2    
     6    2    4 am   BACKBONE|DICT|INTERRES
     7    4    5 1    
     8    4   65 1    
     9    5    6 1    
    10    5   25 1    
    11    5   66 1    
    12    6    7 1    
    13    6   67 1    
    14    6   68 1    
    15    7    8 1    
    16    8    9 1    
    17    8   69 1    
    18    8   70 1    
    19    9   10 ar   
    20    9   14 ar   
    21   10   11 ar   
    22   10   71 1    
    23   11   12 ar   
    24   11   61 1    
    25   12   13 ar   
    26   12   72 1    
    27   13   14 ar   
    28   13   15 1    
    29   14   73 1    
    30   15   16 1    
    31   15   74 1    
    32   15   75 1    
    33   16   17 1    
    34   17   18 1    
    35   17   76 1    
    36   17   77 1    
    37   18   19 1    
    38   18   27 1    
    39   18   78 1    
    40   19   20 am   BACKBONE|DICT|INTERRES
    41   19   79 1    
    42   20   21 2    
    43   20   22 1    
    44   22   23 1    
    45   22   24 1    
    46   22   80 1    
    47   23   81 1    
    48   23   82 1    
    49   23   83 1    
    50   24   25 am   BACKBONE|DICT|INTERRES
    51   24   84 1    
    52   25   26 2    
    53   27   28 2    
    54   27   29 am   BACKBONE|DICT|INTERRES
    55   29   30 1    
    56   29   85 1    
    57   30   31 1    
    58   30   32 1    
    59   30   86 1    
    60   31   87 1    
    61   31   88 1    
    62   31   89 1    
    63   32   33 2    
    64   32   34 am   BACKBONE|DICT|INTERRES
    65   34   35 1    
    66   34   90 1    
    67   35   36 1    
    68   35   37 1    
    69   35   91 1    
    70   36   92 1    
    71   36   93 1    
    72   36   94 1    
    73   37   38 2    
    74   37   39 am   BACKBONE|DICT|INTERRES
    75   39   40 1    
    76   39   95 1    
    77   40   41 1    
    78   40   42 1    
    79   40   96 1    
    80   41   97 1    
    81   41   98 1    
    82   41   99 1    
    83   42   43 2    
    84   42   44 am   BACKBONE|DICT|INTERRES
    85   44   45 1    
    86   44  100 1    
    87   45   46 1    
    88   45   47 1    
    89   45  101 1    
    90   46  102 1    
    91   46  103 1    
    92   46  104 1    
    93   47   48 2    
    94   47   49 am   BACKBONE|DICT|INTERRES
    95   49   50 1    
    96   49  105 1    
    97   50   51 1    
    98   50   52 1    
    99   50  106 1    
   100   51  107 1    
   101   51  108 1    
   102   51  109 1    
   103   52   53 2    
   104   52   54 am   BACKBONE|DICT|INTERRES
   105   54   55 1    
   106   54  110 1    
   107   55   56 1    
   108   55   59 1    
   109   55  111 1    
   110   56   57 am   BACKBONE|DICT|INTERRES
   111   56   58 2    
   112   57  112 1    
   113   57  113 1    
   114   59   60 1    
   115   59  114 1    
   116   59  115 1    
   117   60   61 1    
   118   61  116 1    
   119   61  117 1    
@<TRIPOS>SUBSTRUCTURE
     1 UNK         1 GROUP             0       ****    0 ROOT    
