@<TRIPOS>MOLECULE
3R8
117   119    1
SMALL
USER_CHARGES


@<TRIPOS>ATOM
      1 CA         16.0239  -23.0914  -47.5146 C.3       0 UNK        -0.2013 
      2 C          16.9140  -24.1153  -46.8273 C.2       0 UNK         0.4866 
      3 O          18.0485  -24.3289  -47.2551 O.2       0 UNK        -0.5176 
      4 N          16.4211  -24.7395  -45.7503 N.am      1 UNK        -0.4884 
      5 CA         17.0910  -25.7933  -44.9724 C.3       1 UNK         0.0853 
      6 C6         16.0614  -26.6734  -44.2139 C.3       10 UNK        -0.0849 
      7 S7         15.0225  -27.6292  -45.3722 S.3       10 UNK        -0.2776 
      8 C8         15.1976  -29.3391  -44.7458 C.3       10 UNK         0.0316 
      9 C9         16.6373  -29.8454  -44.6533 C.ar      10 UNK        -0.0863 
     10 C10        17.0195  -30.6332  -43.5632 C.ar      10 UNK        -0.1009 
     11 C11        18.3244  -31.1228  -43.4427 C.ar      10 UNK        -0.0712 
     12 C12        19.2620  -30.7996  -44.4347 C.ar      10 UNK        -0.0894 
     13 C13        18.8909  -30.0307  -45.5411 C.ar      10 UNK        -0.0745 
     14 C14        17.5775  -29.5652  -45.6494 C.ar      10 UNK        -0.0972 
     15 C15        19.8905  -29.7327  -46.6473 C.3       10 UNK         0.0209 
     16 S16        20.3895  -27.9835  -46.6502 S.3       10 UNK        -0.2568 
     17 C17        22.0044  -28.0005  -45.7861 C.3       10 UNK        -0.0983 
     18 CA         22.0404  -27.2131  -44.4478 C.3       3 UNK         0.0876 
     19 N          21.2625  -25.9785  -44.5198 N.am      3 UNK        -0.4424 
     20 C          21.3241  -24.9334  -43.6865 C.2       2 UNK         0.4918 
     21 O          22.1407  -24.8299  -42.7717 O.2       2 UNK        -0.4875 
     22 CA         20.2592  -23.8390  -43.8994 C.3       2 UNK         0.0481 
     23 CB         20.8390  -22.6741  -44.7160 C.3       2 UNK        -0.1831 
     24 N          19.0514  -24.3453  -44.5664 N.am      2 UNK        -0.4498 
     25 C          18.2018  -25.2423  -44.0456 C.2       1 UNK         0.5027 
     26 O          18.3103  -25.6620  -42.8936 O.2       1 UNK        -0.4969 
     27 C          21.6962  -28.1037  -43.2347 C.2       3 UNK         0.5005 
     28 O          22.5072  -28.9742  -42.9088 O.2       3 UNK        -0.5279 
     29 N          20.5695  -27.8609  -42.5415 N.am      4 UNK        -0.4463 
     30 CA         20.1424  -28.5649  -41.3219 C.3       4 UNK         0.0283 
     31 CB         18.6385  -28.3310  -41.0955 C.3       4 UNK        -0.1875 
     32 C          20.9819  -28.1898  -40.0806 C.2       4 UNK         0.4949 
     33 O          20.4376  -27.8230  -39.0383 O.2       4 UNK        -0.5039 
     34 N          22.3015  -28.3028  -40.2299 N.am      5 UNK        -0.4663 
     35 CA         23.3563  -28.0492  -39.2560 C.3       5 UNK         0.0242 
     36 CB         23.4160  -26.5627  -38.8499 C.3       5 UNK        -0.1982 
     37 C          24.6758  -28.5090  -39.8809 C.2       5 UNK         0.5017 
     38 O          25.3540  -29.3619  -39.3103 O.2       5 UNK        -0.5012 
     39 N          24.9784  -27.9831  -41.0785 N.am      6 UNK        -0.4439 
     40 CA         26.1582  -28.3212  -41.8822 C.3       6 UNK         0.0297 
     41 CB         26.2333  -27.3865  -43.1001 C.3       6 UNK        -0.2006 
     42 C          26.1983  -29.7924  -42.3327 C.2       6 UNK         0.4892 
     43 O          27.2762  -30.3866  -42.3509 O.2       6 UNK        -0.5089 
     44 N          25.0272  -30.3604  -42.6540 N.am      7 UNK        -0.4243 
     45 CA         24.8495  -31.7730  -43.0025 C.3       7 UNK         0.0196 
     46 CB         23.6444  -31.8970  -43.9515 C.3       7 UNK        -0.2007 
     47 C          24.6920  -32.6895  -41.7705 C.2       7 UNK         0.5020 
     48 O          24.4323  -33.8794  -41.9453 O.2       7 UNK        -0.5147 
     49 N          24.8227  -32.1324  -40.5549 N.am      8 UNK        -0.4734 
     50 CA         24.7295  -32.7699  -39.2301 C.3       8 UNK         0.0238 
     51 CB         25.7510  -33.9169  -39.0824 C.3       8 UNK        -0.1912 
     52 C          23.3137  -33.2109  -38.8077 C.2       8 UNK         0.5038 
     53 O          23.1392  -33.6247  -37.6608 O.2       8 UNK        -0.5046 
     54 N          22.3287  -33.0918  -39.7043 N.am      9 UNK        -0.4200 
     55 CA         20.9064  -33.3785  -39.4648 C.3       9 UNK         0.0839 
     56 C          20.1243  -32.2491  -38.7309 C.2       9 UNK         0.5513 
     57 N          20.7468  -31.1335  -38.3728 N.am      9 UNK        -0.7519 
     58 O          18.9329  -32.3947  -38.4712 O.2       9 UNK        -0.4960 
     59 C59        20.2029  -33.8460  -40.7656 C.3       10 UNK        -0.0876 
     60 S60        20.3441  -32.6670  -42.1540 S.3       10 UNK        -0.2414 
     61 C61        18.6452  -32.0051  -42.2327 C.3       10 UNK         0.0169 
     62 H62        15.8584  -23.3769  -48.5531 H         1 UNK         0.0903 
     63 H63        15.0525  -23.0031  -47.0285 H         1 UNK         0.0903 
     64 H64        16.5004  -22.1115  -47.5023 H         1 UNK         0.0903 
     65 H65        15.4884  -24.5080  -45.4378 H         1 UNK         0.3096 
     66 H66        17.6130  -26.4454  -45.6770 H         1 UNK         0.1121 
     67 H67        15.4189  -26.0597  -43.5803 H         1 UNK         0.0849 
     68 H68        16.5618  -27.3719  -43.5419 H         1 UNK         0.0849 
     69 H69        14.7145  -29.3908  -43.7686 H         1 UNK         0.0865 
     70 H70        14.6369  -30.0086  -45.3991 H         1 UNK         0.0865 
     71 H71        16.2927  -30.8741  -42.7989 H         1 UNK         0.1346 
     72 H72        20.2799  -31.1548  -44.3689 H         1 UNK         0.1412 
     73 H73        17.2911  -28.9788  -46.5118 H         1 UNK         0.1426 
     74 H74        19.4268  -29.9590  -47.6085 H         1 UNK         0.0716 
     75 H75        20.7636  -30.3829  -46.5784 H         1 UNK         0.0716 
     76 H76        22.7180  -27.5428  -46.4729 H         1 UNK         0.0695 
     77 H77        22.3612  -29.0243  -45.6578 H         1 UNK         0.0695 
     78 H78        23.0770  -26.9118  -44.2856 H         1 UNK         0.0983 
     79 H79        20.5705  -25.9607  -45.2555 H         1 UNK         0.3095 
     80 H80        19.9710  -23.4611  -42.9164 H         1 UNK         0.0454 
     81 H81        21.1288  -22.9881  -45.7196 H         1 UNK         0.0851 
     82 H82        21.7267  -22.2629  -44.2334 H         1 UNK         0.0851 
     83 H83        20.1193  -21.8611  -44.8135 H         1 UNK         0.0851 
     84 H84        18.9014  -24.0764  -45.5354 H         1 UNK         0.2976 
     85 H85        19.9750  -27.0954  -42.8347 H         1 UNK         0.3116 
     86 H86        20.2875  -29.6336  -41.4885 H         1 UNK         0.0646 
     87 H87        18.0600  -28.5578  -41.9892 H         1 UNK         0.0847 
     88 H88        18.4282  -27.2982  -40.8160 H         1 UNK         0.0847 
     89 H89        18.2629  -28.9677  -40.2937 H         1 UNK         0.0847 
     90 H90        22.6093  -28.6449  -41.1389 H         1 UNK         0.3040 
     91 H91        23.1661  -28.6558  -38.3682 H         1 UNK         0.1015 
     92 H92        24.2750  -26.3681  -38.2062 H         1 UNK         0.0786 
     93 H93        22.5274  -26.2661  -38.2929 H         1 UNK         0.0786 
     94 H94        23.4979  -25.9049  -39.7160 H         1 UNK         0.0786 
     95 H95        24.3601  -27.2811  -41.4586 H         1 UNK         0.3172 
     96 H96        27.0386  -28.1425  -41.2611 H         1 UNK         0.0595 
     97 H97        25.3805  -27.5199  -43.7661 H         1 UNK         0.0839 
     98 H98        27.1336  -27.5823  -43.6844 H         1 UNK         0.0839 
     99 H99        26.2671  -26.3392  -42.7991 H         1 UNK         0.0839 
    100 H100       24.1821  -29.7937  -42.6508 H         1 UNK         0.2998 
    101 H101       25.7340  -32.1197  -43.5412 H         1 UNK         0.0822 
    102 H102       23.7841  -31.2952  -44.8496 H         1 UNK         0.0787 
    103 H103       23.4959  -32.9285  -44.2734 H         1 UNK         0.0787 
    104 H104       22.7226  -31.5687  -43.4730 H         1 UNK         0.0787 
    105 H105       25.0384  -31.1427  -40.5210 H         1 UNK         0.3055 
    106 H106       25.0136  -31.9946  -38.5164 H         1 UNK         0.1106 
    107 H107       25.5012  -34.7711  -39.7119 H         1 UNK         0.0828 
    108 H108       25.7862  -34.2771  -38.0534 H         1 UNK         0.0828 
    109 H109       26.7571  -33.5887  -39.3430 H         1 UNK         0.0828 
    110 H110       22.5582  -32.7588  -40.6291 H         1 UNK         0.2931 
    111 H111       20.8653  -34.2279  -38.7803 H         1 UNK         0.0412 
    112 H112       21.7272  -31.0154  -38.5623 H         1 UNK         0.3472 
    113 H113       20.2304  -30.4068  -37.9021 H         1 UNK         0.3472 
    114 H114       19.1549  -34.0852  -40.5763 H         1 UNK         0.0970 
    115 H115       20.6522  -34.7845  -41.0936 H         1 UNK         0.0970 
    116 H116       17.9500  -32.8457  -42.2344 H         1 UNK         0.0612 
    117 H117       18.4515  -31.4406  -41.3198 H         1 UNK         0.0612 
@<TRIPOS>BOND
     1    1    2 1    
     2    1   62 1    
     3    1   63 1    
     4    1   64 1    
     5    2    3 2    
     6    2    4 am   BACKBONE|DICT|INTERRES
     7    4    5 1    
     8    4   65 1    
     9    5    6 1    
    10    5   25 1    
    11    5   66 1    
    12    6    7 1    
    13    6   67 1    
    14    6   68 1    
    15    7    8 1    
    16    8    9 1    
    17    8   69 1    
    18    8   70 1    
    19    9   10 ar   
    20    9   14 ar   
    21   10   11 ar   
    22   10   71 1    
    23   11   12 ar   
    24   11   61 1    
    25   12   13 ar   
    26   12   72 1    
    27   13   14 ar   
    28   13   15 1    
    29   14   73 1    
    30   15   16 1    
    31   15   74 1    
    32   15   75 1    
    33   16   17 1    
    34   17   18 1    
    35   17   76 1    
    36   17   77 1    
    37   18   19 1    
    38   18   27 1    
    39   18   78 1    
    40   19   20 am   BACKBONE|DICT|INTERRES
    41   19   79 1    
    42   20   21 2    
    43   20   22 1    
    44   22   23 1    
    45   22   24 1    
    46   22   80 1    
    47   23   81 1    
    48   23   82 1    
    49   23   83 1    
    50   24   25 am   BACKBONE|DICT|INTERRES
    51   24   84 1    
    52   25   26 2    
    53   27   28 2    
    54   27   29 am   BACKBONE|DICT|INTERRES
    55   29   30 1    
    56   29   85 1    
    57   30   31 1    
    58   30   32 1    
    59   30   86 1    
    60   31   87 1    
    61   31   88 1    
    62   31   89 1    
    63   32   33 2    
    64   32   34 am   BACKBONE|DICT|INTERRES
    65   34   35 1    
    66   34   90 1    
    67   35   36 1    
    68   35   37 1    
    69   35   91 1    
    70   36   92 1    
    71   36   93 1    
    72   36   94 1    
    73   37   38 2    
    74   37   39 am   BACKBONE|DICT|INTERRES
    75   39   40 1    
    76   39   95 1    
    77   40   41 1    
    78   40   42 1    
    79   40   96 1    
    80   41   97 1    
    81   41   98 1    
    82   41   99 1    
    83   42   43 2    
    84   42   44 am   BACKBONE|DICT|INTERRES
    85   44   45 1    
    86   44  100 1    
    87   45   46 1    
    88   45   47 1    
    89   45  101 1    
    90   46  102 1    
    91   46  103 1    
    92   46  104 1    
    93   47   48 2    
    94   47   49 am   BACKBONE|DICT|INTERRES
    95   49   50 1    
    96   49  105 1    
    97   50   51 1    
    98   50   52 1    
    99   50  106 1    
   100   51  107 1    
   101   51  108 1    
   102   51  109 1    
   103   52   53 2    
   104   52   54 am   BACKBONE|DICT|INTERRES
   105   54   55 1    
   106   54  110 1    
   107   55   56 1    
   108   55   59 1    
   109   55  111 1    
   110   56   57 am   BACKBONE|DICT|INTERRES
   111   56   58 2    
   112   57  112 1    
   113   57  113 1    
   114   59   60 1    
   115   59  114 1    
   116   59  115 1    
   117   60   61 1    
   118   61  116 1    
   119   61  117 1    
@<TRIPOS>SUBSTRUCTURE
     1 UNK         1 GROUP             0       ****    0 ROOT    
