@<TRIPOS>MOLECULE
3R8
117   119    1
SMALL
USER_CHARGES


@<TRIPOS>ATOM
      1 CA         13.1608  -26.1437  -44.8634 C.3       0 UNK        -0.2013 
      2 C          14.1065  -26.3467  -46.0378 C.2       0 UNK         0.4866 
      3 O          13.6528  -26.4853  -47.1738 O.2       0 UNK        -0.5176 
      4 N          15.4154  -26.3649  -45.7706 N.am      1 UNK        -0.4884 
      5 CA         16.4889  -26.4947  -46.7552 C.3       1 UNK         0.0853 
      6 C6         16.5946  -27.9220  -47.3821 C.3       10 UNK        -0.0849 
      7 S7         17.3504  -29.2309  -46.3513 S.3       10 UNK        -0.2776 
      8 C8         15.9749  -29.7801  -45.2962 C.3       10 UNK         0.0316 
      9 C9         16.4017  -29.7697  -43.8365 C.ar      10 UNK        -0.0863 
     10 C10        17.2762  -30.7519  -43.3613 C.ar      10 UNK        -0.1009 
     11 C11        17.7094  -30.7323  -42.0335 C.ar      10 UNK        -0.0712 
     12 C12        17.2373  -29.7420  -41.1701 C.ar      10 UNK        -0.0894 
     13 C13        16.3671  -28.7514  -41.6326 C.ar      10 UNK        -0.0745 
     14 C14        15.9494  -28.7712  -42.9675 C.ar      10 UNK        -0.0972 
     15 C15        15.8895  -27.6586  -40.6865 C.3       10 UNK         0.0209 
     16 S16        17.2730  -26.6790  -40.0144 S.3       10 UNK        -0.2568 
     17 C17        17.9255  -25.8679  -41.5129 C.3       10 UNK        -0.0983 
     18 CA         19.2614  -26.4822  -42.0172 C.3       3 UNK         0.0876 
     19 N          19.4590  -26.1377  -43.4281 N.am      3 UNK        -0.4424 
     20 C          20.2431  -26.7636  -44.3121 C.2       2 UNK         0.4918 
     21 O          20.9432  -27.7359  -44.0312 O.2       2 UNK        -0.4875 
     22 CA         20.2191  -26.2096  -45.7522 C.3       2 UNK         0.0481 
     23 CB         21.3592  -26.7821  -46.6142 C.3       2 UNK        -0.1831 
     24 N          18.9399  -26.4942  -46.4070 N.am      2 UNK        -0.4498 
     25 C          17.7689  -25.9106  -46.1197 C.2       1 UNK         0.5027 
     26 O          17.6707  -24.9503  -45.3488 O.2       1 UNK        -0.4969 
     27 C          20.4935  -26.0845  -41.1647 C.2       3 UNK         0.5005 
     28 O          20.3873  -25.2433  -40.2692 O.2       3 UNK        -0.5279 
     29 N          21.6566  -26.6612  -41.4883 N.am      4 UNK        -0.4463 
     30 CA         22.9586  -26.3945  -40.8825 C.3       4 UNK         0.0283 
     31 CB         23.4674  -24.9883  -41.2827 C.3       4 UNK        -0.1875 
     32 C          23.9132  -27.5396  -41.2613 C.2       4 UNK         0.4949 
     33 O          23.5315  -28.7047  -41.1356 O.2       4 UNK        -0.5039 
     34 N          25.1341  -27.1984  -41.7043 N.am      5 UNK        -0.4663 
     35 CA         26.1998  -28.0975  -42.1711 C.3       5 UNK         0.0242 
     36 CB         25.8204  -28.7101  -43.5357 C.3       5 UNK        -0.1982 
     37 C          26.5858  -29.1590  -41.1241 C.2       5 UNK         0.5017 
     38 O          26.6047  -30.3512  -41.4300 O.2       5 UNK        -0.5012 
     39 N          26.8240  -28.7027  -39.8843 N.am      6 UNK        -0.4439 
     40 CA         27.1588  -29.5065  -38.6971 C.3       6 UNK         0.0297 
     41 CB         28.5736  -30.1085  -38.8355 C.3       6 UNK        -0.2006 
     42 C          26.0959  -30.5721  -38.3476 C.2       6 UNK         0.4892 
     43 O          26.4388  -31.6249  -37.8082 O.2       6 UNK        -0.5089 
     44 N          24.8309  -30.2779  -38.6851 N.am      7 UNK        -0.4243 
     45 CA         23.6429  -31.1321  -38.5777 C.3       7 UNK         0.0196 
     46 CB         23.3701  -31.5498  -37.1167 C.3       7 UNK        -0.2007 
     47 C          23.6316  -32.3292  -39.5505 C.2       7 UNK         0.5020 
     48 O          22.7710  -33.1993  -39.4115 O.2       7 UNK        -0.5147 
     49 N          24.5388  -32.3525  -40.5398 N.am      8 UNK        -0.4734 
     50 CA         24.4865  -33.2915  -41.6658 C.3       8 UNK         0.0238 
     51 CB         25.8957  -33.4895  -42.2462 C.3       8 UNK        -0.1912 
     52 C          23.5120  -32.8131  -42.7564 C.2       8 UNK         0.5038 
     53 O          23.0167  -33.6408  -43.5218 O.2       8 UNK        -0.5046 
     54 N          23.2492  -31.4987  -42.7921 N.am      9 UNK        -0.4200 
     55 CA         22.2719  -30.8170  -43.6554 C.3       9 UNK         0.0839 
     56 C          22.5939  -30.8617  -45.1801 C.2       9 UNK         0.5513 
     57 N          23.8348  -31.1123  -45.5814 N.am      9 UNK        -0.7519 
     58 O          21.7192  -30.6515  -46.0158 O.2       9 UNK        -0.4960 
     59 C59        20.8015  -31.2090  -43.3336 C.3       10 UNK        -0.0876 
     60 S60        20.3984  -31.0761  -41.5562 S.3       10 UNK        -0.2414 
     61 C61        18.7124  -31.7563  -41.5309 C.3       10 UNK         0.0169 
     62 H62        13.6971  -25.9571  -43.9333 H         1 UNK         0.0903 
     63 H63        12.5064  -25.2929  -45.0514 H         1 UNK         0.0903 
     64 H64        12.5390  -27.0279  -44.7261 H         1 UNK         0.0903 
     65 H65        15.7459  -26.1570  -44.8377 H         1 UNK         0.3096 
     66 H66        16.2496  -25.8068  -47.5695 H         1 UNK         0.1121 
     67 H67        15.6139  -28.2645  -47.7148 H         1 UNK         0.0849 
     68 H68        17.1855  -27.8605  -48.2974 H         1 UNK         0.0849 
     69 H69        15.0964  -29.1527  -45.4468 H         1 UNK         0.0865 
     70 H70        15.6807  -30.7893  -45.5875 H         1 UNK         0.0865 
     71 H71        17.6435  -31.5132  -44.0359 H         1 UNK         0.1346 
     72 H72        17.5738  -29.7225  -40.1424 H         1 UNK         0.1412 
     73 H73        15.2766  -28.0079  -43.3308 H         1 UNK         0.1426 
     74 H74        15.3497  -28.1195  -39.8584 H         1 UNK         0.0716 
     75 H75        15.1823  -26.9902  -41.1801 H         1 UNK         0.0716 
     76 H76        18.0288  -24.7985  -41.3207 H         1 UNK         0.0695 
     77 H77        17.1643  -25.9455  -42.2910 H         1 UNK         0.0695 
     78 H78        19.1741  -27.5702  -41.9616 H         1 UNK         0.0983 
     79 H79        18.8968  -25.3711  -43.7811 H         1 UNK         0.3095 
     80 H80        20.3535  -25.1274  -45.6962 H         1 UNK         0.0454 
     81 H81        21.2739  -27.8635  -46.7317 H         1 UNK         0.0851 
     82 H82        22.3303  -26.5812  -46.1599 H         1 UNK         0.0851 
     83 H83        21.3688  -26.3359  -47.6086 H         1 UNK         0.0851 
     84 H84        18.9139  -27.3259  -46.9813 H         1 UNK         0.2976 
     85 H85        21.6551  -27.3459  -42.2415 H         1 UNK         0.3116 
     86 H86        22.8444  -26.4287  -39.7974 H         1 UNK         0.0646 
     87 H87        23.6045  -24.8985  -42.3612 H         1 UNK         0.0847 
     88 H88        24.4159  -24.7521  -40.7989 H         1 UNK         0.0847 
     89 H89        22.7691  -24.2091  -40.9779 H         1 UNK         0.0847 
     90 H90        25.3484  -26.2118  -41.7541 H         1 UNK         0.3040 
     91 H91        27.0902  -27.4851  -42.3231 H         1 UNK         0.1015 
     92 H92        24.9334  -29.3367  -43.4626 H         1 UNK         0.0786 
     93 H93        26.6277  -29.3302  -43.9274 H         1 UNK         0.0786 
     94 H94        25.6193  -27.9356  -44.2756 H         1 UNK         0.0786 
     95 H95        26.7496  -27.7060  -39.7317 H         1 UNK         0.3172 
     96 H96        27.1765  -28.8137  -37.8546 H         1 UNK         0.0595 
     97 H97        28.8883  -30.5896  -37.9086 H         1 UNK         0.0839 
     98 H98        29.3119  -29.3406  -39.0653 H         1 UNK         0.0839 
     99 H99        28.6167  -30.8619  -39.6227 H         1 UNK         0.0839 
    100 H100       24.6747  -29.4055  -39.1731 H         1 UNK         0.2998 
    101 H101       22.8090  -30.5027  -38.8936 H         1 UNK         0.0822 
    102 H102       22.3933  -32.0258  -37.0234 H         1 UNK         0.0787 
    103 H103       24.1104  -32.2619  -36.7515 H         1 UNK         0.0787 
    104 H104       23.3731  -30.6880  -36.4495 H         1 UNK         0.0787 
    105 H105       25.2346  -31.6148  -40.5976 H         1 UNK         0.3055 
    106 H106       24.1308  -34.2602  -41.3076 H         1 UNK         0.1106 
    107 H107       25.8925  -34.2673  -43.0108 H         1 UNK         0.0828 
    108 H108       26.2762  -32.5815  -42.7135 H         1 UNK         0.0828 
    109 H109       26.6045  -33.7939  -41.4762 H         1 UNK         0.0828 
    110 H110       23.6968  -30.9025  -42.1093 H         1 UNK         0.2931 
    111 H111       22.3788  -29.7661  -43.3921 H         1 UNK         0.0412 
    112 H112       24.5612  -31.2970  -44.9095 H         1 UNK         0.3472 
    113 H113       24.0383  -31.1358  -46.5681 H         1 UNK         0.3472 
    114 H114       20.1170  -30.5589  -43.8817 H         1 UNK         0.0970 
    115 H115       20.5983  -32.2269  -43.6690 H         1 UNK         0.0970 
    116 H116       18.4637  -32.0425  -40.5081 H         1 UNK         0.0612 
    117 H117       18.6700  -32.6704  -42.1248 H         1 UNK         0.0612 
@<TRIPOS>BOND
     1    1    2 1    
     2    1   62 1    
     3    1   63 1    
     4    1   64 1    
     5    2    3 2    
     6    2    4 am   BACKBONE|DICT|INTERRES
     7    4    5 1    
     8    4   65 1    
     9    5    6 1    
    10    5   25 1    
    11    5   66 1    
    12    6    7 1    
    13    6   67 1    
    14    6   68 1    
    15    7    8 1    
    16    8    9 1    
    17    8   69 1    
    18    8   70 1    
    19    9   10 ar   
    20    9   14 ar   
    21   10   11 ar   
    22   10   71 1    
    23   11   12 ar   
    24   11   61 1    
    25   12   13 ar   
    26   12   72 1    
    27   13   14 ar   
    28   13   15 1    
    29   14   73 1    
    30   15   16 1    
    31   15   74 1    
    32   15   75 1    
    33   16   17 1    
    34   17   18 1    
    35   17   76 1    
    36   17   77 1    
    37   18   19 1    
    38   18   27 1    
    39   18   78 1    
    40   19   20 am   BACKBONE|DICT|INTERRES
    41   19   79 1    
    42   20   21 2    
    43   20   22 1    
    44   22   23 1    
    45   22   24 1    
    46   22   80 1    
    47   23   81 1    
    48   23   82 1    
    49   23   83 1    
    50   24   25 am   BACKBONE|DICT|INTERRES
    51   24   84 1    
    52   25   26 2    
    53   27   28 2    
    54   27   29 am   BACKBONE|DICT|INTERRES
    55   29   30 1    
    56   29   85 1    
    57   30   31 1    
    58   30   32 1    
    59   30   86 1    
    60   31   87 1    
    61   31   88 1    
    62   31   89 1    
    63   32   33 2    
    64   32   34 am   BACKBONE|DICT|INTERRES
    65   34   35 1    
    66   34   90 1    
    67   35   36 1    
    68   35   37 1    
    69   35   91 1    
    70   36   92 1    
    71   36   93 1    
    72   36   94 1    
    73   37   38 2    
    74   37   39 am   BACKBONE|DICT|INTERRES
    75   39   40 1    
    76   39   95 1    
    77   40   41 1    
    78   40   42 1    
    79   40   96 1    
    80   41   97 1    
    81   41   98 1    
    82   41   99 1    
    83   42   43 2    
    84   42   44 am   BACKBONE|DICT|INTERRES
    85   44   45 1    
    86   44  100 1    
    87   45   46 1    
    88   45   47 1    
    89   45  101 1    
    90   46  102 1    
    91   46  103 1    
    92   46  104 1    
    93   47   48 2    
    94   47   49 am   BACKBONE|DICT|INTERRES
    95   49   50 1    
    96   49  105 1    
    97   50   51 1    
    98   50   52 1    
    99   50  106 1    
   100   51  107 1    
   101   51  108 1    
   102   51  109 1    
   103   52   53 2    
   104   52   54 am   BACKBONE|DICT|INTERRES
   105   54   55 1    
   106   54  110 1    
   107   55   56 1    
   108   55   59 1    
   109   55  111 1    
   110   56   57 am   BACKBONE|DICT|INTERRES
   111   56   58 2    
   112   57  112 1    
   113   57  113 1    
   114   59   60 1    
   115   59  114 1    
   116   59  115 1    
   117   60   61 1    
   118   61  116 1    
   119   61  117 1    
@<TRIPOS>SUBSTRUCTURE
     1 UNK         1 GROUP             0       ****    0 ROOT    
