@<TRIPOS>MOLECULE
3R8
117   119    1
SMALL
USER_CHARGES


@<TRIPOS>ATOM
      1 CA         16.2577  -23.0606  -46.7557 C.3       0 UNK        -0.2013 
      2 C          17.5823  -22.4920  -47.2579 C.2       0 UNK         0.4866 
      3 O          17.5904  -21.3578  -47.7323 O.2       0 UNK        -0.5176 
      4 N          18.7239  -23.1972  -47.2039 N.am      1 UNK        -0.4884 
      5 CA         19.0154  -24.5210  -46.6352 C.3       1 UNK         0.0853 
      6 C6         18.2815  -25.7014  -47.3448 C.3       10 UNK        -0.0849 
      7 S7         19.3803  -27.0674  -47.8716 S.3       10 UNK        -0.2776 
      8 C8         20.1329  -27.6865  -46.3269 C.3       10 UNK         0.0316 
      9 C9         19.4070  -28.8754  -45.7056 C.ar      10 UNK        -0.0863 
     10 C10        20.1272  -30.0354  -45.3991 C.ar      10 UNK        -0.1009 
     11 C11        19.5159  -31.1008  -44.7337 C.ar      10 UNK        -0.0712 
     12 C12        18.1648  -31.0154  -44.3934 C.ar      10 UNK        -0.0894 
     13 C13        17.4338  -29.8607  -44.6840 C.ar      10 UNK        -0.0745 
     14 C14        18.0552  -28.7995  -45.3511 C.ar      10 UNK        -0.0972 
     15 C15        15.9954  -29.7388  -44.2058 C.3       10 UNK         0.0209 
     16 S16        15.9232  -29.5176  -42.3962 S.3       10 UNK        -0.2568 
     17 C17        16.5289  -27.8078  -42.1920 C.3       10 UNK        -0.0983 
     18 CA         18.0689  -27.6987  -42.0541 C.3       3 UNK         0.0876 
     19 N          18.5227  -26.3405  -42.3569 N.am      3 UNK        -0.4424 
     20 C          19.7953  -25.9368  -42.4327 C.2       2 UNK         0.4918 
     21 O          20.7624  -26.6652  -42.2070 O.2       2 UNK        -0.4875 
     22 CA         20.0168  -24.4861  -42.9025 C.3       2 UNK         0.0481 
     23 CB         21.3690  -23.9276  -42.4232 C.3       2 UNK        -0.1831 
     24 N          19.9511  -24.3890  -44.3644 N.am      2 UNK        -0.4498 
     25 C          18.8383  -24.5289  -45.1003 C.2       1 UNK         0.5027 
     26 O          17.7161  -24.6694  -44.6105 O.2       1 UNK        -0.4969 
     27 C          18.5969  -28.2151  -40.7016 C.2       3 UNK         0.5005 
     28 O          18.6456  -27.4568  -39.7299 O.2       3 UNK        -0.5279 
     29 N          19.0339  -29.4824  -40.6952 N.am      4 UNK        -0.4463 
     30 CA         19.7151  -30.2233  -39.6251 C.3       4 UNK         0.0283 
     31 CB         18.8803  -30.2730  -38.3312 C.3       4 UNK        -0.1875 
     32 C          21.1568  -29.7584  -39.3423 C.2       4 UNK         0.4949 
     33 O          21.9972  -30.5986  -39.0196 O.2       4 UNK        -0.5039 
     34 N          21.4259  -28.4524  -39.4596 N.am      5 UNK        -0.4663 
     35 CA         22.7401  -27.8458  -39.2502 C.3       5 UNK         0.0242 
     36 CB         22.5749  -26.3355  -39.0185 C.3       5 UNK        -0.1982 
     37 C          23.7088  -28.1160  -40.4112 C.2       5 UNK         0.5017 
     38 O          24.8683  -28.4463  -40.1578 O.2       5 UNK        -0.5012 
     39 N          23.2242  -27.9704  -41.6537 N.am      6 UNK        -0.4439 
     40 CA         23.9733  -28.1725  -42.8974 C.3       6 UNK         0.0297 
     41 CB         23.0591  -27.8771  -44.0969 C.3       6 UNK        -0.2006 
     42 C          24.5637  -29.5885  -42.9908 C.2       6 UNK         0.4892 
     43 O          23.8102  -30.5566  -43.0917 O.2       6 UNK        -0.5089 
     44 N          25.8990  -29.6737  -42.8973 N.am      7 UNK        -0.4243 
     45 CA         26.7080  -30.9005  -42.8379 C.3       7 UNK         0.0196 
     46 CB         26.6327  -31.6676  -44.1759 C.3       7 UNK        -0.2007 
     47 C          26.3934  -31.8068  -41.6261 C.2       7 UNK         0.5020 
     48 O          26.7485  -32.9861  -41.6506 O.2       7 UNK        -0.5147 
     49 N          25.7432  -31.2465  -40.5924 N.am      8 UNK        -0.4734 
     50 CA         25.2593  -31.9067  -39.3743 C.3       8 UNK         0.0238 
     51 CB         26.4448  -32.2829  -38.4600 C.3       8 UNK        -0.1912 
     52 C          24.3133  -33.0941  -39.6546 C.2       8 UNK         0.5038 
     53 O          24.4122  -34.1226  -38.9812 O.2       8 UNK        -0.5046 
     54 N          23.4271  -32.9438  -40.6507 N.am      9 UNK        -0.4200 
     55 CA         22.4471  -33.9667  -41.0509 C.3       9 UNK         0.0839 
     56 C          21.3286  -34.2729  -40.0104 C.2       9 UNK         0.5513 
     57 N          21.1155  -33.4441  -38.9955 N.am      9 UNK        -0.7519 
     58 O          20.6553  -35.2947  -40.1198 O.2       9 UNK        -0.4960 
     59 C59        21.8813  -33.7055  -42.4715 C.3       10 UNK        -0.0876 
     60 S60        20.8932  -32.1789  -42.6158 S.3       10 UNK        -0.2414 
     61 C61        20.3259  -32.3231  -44.3367 C.3       10 UNK         0.0169 
     62 H62        16.1103  -22.7978  -45.7088 H         1 UNK         0.0903 
     63 H63        15.4299  -22.6367  -47.3236 H         1 UNK         0.0903 
     64 H64        16.1911  -24.1404  -46.8526 H         1 UNK         0.0903 
     65 H65        19.5460  -22.7313  -47.5637 H         1 UNK         0.3096 
     66 H66        20.0824  -24.6455  -46.8277 H         1 UNK         0.1121 
     67 H67        17.8130  -25.3426  -48.2627 H         1 UNK         0.0849 
     68 H68        17.4559  -26.1012  -46.7572 H         1 UNK         0.0849 
     69 H69        21.1593  -27.9674  -46.5678 H         1 UNK         0.0865 
     70 H70        20.2206  -26.9004  -45.5815 H         1 UNK         0.0865 
     71 H71        21.1793  -30.1000  -45.6420 H         1 UNK         0.1346 
     72 H72        17.6934  -31.8293  -43.8590 H         1 UNK         0.1412 
     73 H73        17.4951  -27.8979  -45.5432 H         1 UNK         0.1426 
     74 H74        15.4494  -30.6446  -44.4735 H         1 UNK         0.0716 
     75 H75        15.4821  -28.9134  -44.7014 H         1 UNK         0.0716 
     76 H76        16.0342  -27.3630  -41.3265 H         1 UNK         0.0695 
     77 H77        16.1868  -27.2320  -43.0539 H         1 UNK         0.0695 
     78 H78        18.5365  -28.3179  -42.8166 H         1 UNK         0.0983 
     79 H79        17.8075  -25.6794  -42.6304 H         1 UNK         0.3095 
     80 H80        19.2281  -23.8637  -42.4743 H         1 UNK         0.0454 
     81 H81        21.4401  -23.9644  -41.3358 H         1 UNK         0.0851 
     82 H82        21.4952  -22.8857  -42.7176 H         1 UNK         0.0851 
     83 H83        22.2111  -24.4938  -42.8236 H         1 UNK         0.0851 
     84 H84        20.8357  -24.2673  -44.8363 H         1 UNK         0.2976 
     85 H85        18.9602  -29.9967  -41.5634 H         1 UNK         0.3116 
     86 H86        19.7876  -31.2452  -39.9966 H         1 UNK         0.0646 
     87 H87        18.7934  -29.2937  -37.8603 H         1 UNK         0.0847 
     88 H88        17.8742  -30.6461  -38.5218 H         1 UNK         0.0847 
     89 H89        19.3407  -30.9398  -37.6011 H         1 UNK         0.0847 
     90 H90        20.6586  -27.8338  -39.7001 H         1 UNK         0.3040 
     91 H91        23.1779  -28.2814  -38.3490 H         1 UNK         0.1015 
     92 H92        23.5413  -25.8577  -38.8512 H         1 UNK         0.0786 
     93 H93        21.9582  -26.1348  -38.1421 H         1 UNK         0.0786 
     94 H94        22.1106  -25.8439  -39.8735 H         1 UNK         0.0786 
     95 H95        22.2593  -27.6634  -41.7601 H         1 UNK         0.3172 
     96 H96        24.7897  -27.4477  -42.9117 H         1 UNK         0.0595 
     97 H97        22.1562  -28.4870  -44.0626 H         1 UNK         0.0839 
     98 H98        23.5641  -28.0866  -45.0407 H         1 UNK         0.0839 
     99 H99        22.7547  -26.8308  -44.1159 H         1 UNK         0.0839 
    100 H100       26.4156  -28.8129  -42.7767 H         1 UNK         0.2998 
    101 H101       27.7405  -30.5745  -42.7032 H         1 UNK         0.0822 
    102 H102       27.3474  -32.4912  -44.1976 H         1 UNK         0.0787 
    103 H103       25.6428  -32.0937  -44.3424 H         1 UNK         0.0787 
    104 H104       26.8651  -31.0182  -45.0199 H         1 UNK         0.0787 
    105 H105       25.5042  -30.2609  -40.6634 H         1 UNK         0.3055 
    106 H106       24.6579  -31.1659  -38.8444 H         1 UNK         0.1106 
    107 H107       27.0759  -31.4187  -38.2533 H         1 UNK         0.0828 
    108 H108       26.0938  -32.6622  -37.4995 H         1 UNK         0.0828 
    109 H109       27.0701  -33.0566  -38.9067 H         1 UNK         0.0828 
    110 H110       23.3969  -32.0715  -41.1627 H         1 UNK         0.2931 
    111 H111       23.0139  -34.8968  -41.1279 H         1 UNK         0.0412 
    112 H112       21.6322  -32.5741  -38.9299 H         1 UNK         0.3472 
    113 H113       20.4018  -33.6635  -38.3198 H         1 UNK         0.3472 
    114 H114       21.2706  -34.5509  -42.7940 H         1 UNK         0.0970 
    115 H115       22.7045  -33.6451  -43.1854 H         1 UNK         0.0970 
    116 H116       21.1891  -32.4377  -44.9944 H         1 UNK         0.0612 
    117 H117       19.7224  -33.2252  -44.4488 H         1 UNK         0.0612 
@<TRIPOS>BOND
     1    1    2 1    
     2    1   62 1    
     3    1   63 1    
     4    1   64 1    
     5    2    3 2    
     6    2    4 am   BACKBONE|DICT|INTERRES
     7    4    5 1    
     8    4   65 1    
     9    5    6 1    
    10    5   25 1    
    11    5   66 1    
    12    6    7 1    
    13    6   67 1    
    14    6   68 1    
    15    7    8 1    
    16    8    9 1    
    17    8   69 1    
    18    8   70 1    
    19    9   10 ar   
    20    9   14 ar   
    21   10   11 ar   
    22   10   71 1    
    23   11   12 ar   
    24   11   61 1    
    25   12   13 ar   
    26   12   72 1    
    27   13   14 ar   
    28   13   15 1    
    29   14   73 1    
    30   15   16 1    
    31   15   74 1    
    32   15   75 1    
    33   16   17 1    
    34   17   18 1    
    35   17   76 1    
    36   17   77 1    
    37   18   19 1    
    38   18   27 1    
    39   18   78 1    
    40   19   20 am   BACKBONE|DICT|INTERRES
    41   19   79 1    
    42   20   21 2    
    43   20   22 1    
    44   22   23 1    
    45   22   24 1    
    46   22   80 1    
    47   23   81 1    
    48   23   82 1    
    49   23   83 1    
    50   24   25 am   BACKBONE|DICT|INTERRES
    51   24   84 1    
    52   25   26 2    
    53   27   28 2    
    54   27   29 am   BACKBONE|DICT|INTERRES
    55   29   30 1    
    56   29   85 1    
    57   30   31 1    
    58   30   32 1    
    59   30   86 1    
    60   31   87 1    
    61   31   88 1    
    62   31   89 1    
    63   32   33 2    
    64   32   34 am   BACKBONE|DICT|INTERRES
    65   34   35 1    
    66   34   90 1    
    67   35   36 1    
    68   35   37 1    
    69   35   91 1    
    70   36   92 1    
    71   36   93 1    
    72   36   94 1    
    73   37   38 2    
    74   37   39 am   BACKBONE|DICT|INTERRES
    75   39   40 1    
    76   39   95 1    
    77   40   41 1    
    78   40   42 1    
    79   40   96 1    
    80   41   97 1    
    81   41   98 1    
    82   41   99 1    
    83   42   43 2    
    84   42   44 am   BACKBONE|DICT|INTERRES
    85   44   45 1    
    86   44  100 1    
    87   45   46 1    
    88   45   47 1    
    89   45  101 1    
    90   46  102 1    
    91   46  103 1    
    92   46  104 1    
    93   47   48 2    
    94   47   49 am   BACKBONE|DICT|INTERRES
    95   49   50 1    
    96   49  105 1    
    97   50   51 1    
    98   50   52 1    
    99   50  106 1    
   100   51  107 1    
   101   51  108 1    
   102   51  109 1    
   103   52   53 2    
   104   52   54 am   BACKBONE|DICT|INTERRES
   105   54   55 1    
   106   54  110 1    
   107   55   56 1    
   108   55   59 1    
   109   55  111 1    
   110   56   57 am   BACKBONE|DICT|INTERRES
   111   56   58 2    
   112   57  112 1    
   113   57  113 1    
   114   59   60 1    
   115   59  114 1    
   116   59  115 1    
   117   60   61 1    
   118   61  116 1    
   119   61  117 1    
@<TRIPOS>SUBSTRUCTURE
     1 UNK         1 GROUP             0       ****    0 ROOT    
