@<TRIPOS>MOLECULE
3R8
117   119    1
SMALL
USER_CHARGES


@<TRIPOS>ATOM
      1 CA         14.6316  -27.2934  -39.1837 C.3       0 UNK        -0.2013 
      2 C          14.9214  -26.7283  -40.5660 C.2       0 UNK         0.4866 
      3 O          14.3230  -25.7259  -40.9578 O.2       0 UNK        -0.5176 
      4 N          15.8354  -27.3611  -41.3049 N.am      1 UNK        -0.4884 
      5 CA         16.2633  -26.9641  -42.6440 C.3       1 UNK         0.0853 
      6 C6         15.3088  -27.5156  -43.7378 C.3       10 UNK        -0.0849 
      7 S7         15.7227  -26.9468  -45.4274 S.3       10 UNK        -0.2776 
      8 C8         15.4367  -28.4430  -46.4369 C.3       10 UNK         0.0316 
      9 C9         16.3871  -29.5816  -46.0866 C.ar      10 UNK        -0.0863 
     10 C10        15.9391  -30.6511  -45.3035 C.ar      10 UNK        -0.1009 
     11 C11        16.8168  -31.6703  -44.9293 C.ar      10 UNK        -0.0712 
     12 C12        18.1311  -31.6504  -45.3973 C.ar      10 UNK        -0.0894 
     13 C13        18.6064  -30.5739  -46.1533 C.ar      10 UNK        -0.0745 
     14 C14        17.7211  -29.5502  -46.5120 C.ar      10 UNK        -0.0972 
     15 C15        20.0851  -30.4883  -46.5241 C.3       10 UNK         0.0209 
     16 S16        21.1521  -30.8635  -45.0893 S.3       10 UNK        -0.2568 
     17 C17        22.5582  -29.7248  -45.2889 C.3       10 UNK        -0.0983 
     18 CA         22.2637  -28.2442  -44.9099 C.3       3 UNK         0.0876 
     19 N          21.4563  -28.1089  -43.6905 N.am      3 UNK        -0.4424 
     20 C          20.7405  -27.0229  -43.3758 C.2       2 UNK         0.4918 
     21 O          20.6229  -26.0347  -44.1058 O.2       2 UNK        -0.4875 
     22 CA         20.0531  -27.0258  -41.9991 C.3       2 UNK         0.0481 
     23 CB         20.7443  -26.0341  -41.0508 C.3       2 UNK        -0.1831 
     24 N          18.6268  -26.7054  -42.0800 N.am      2 UNK        -0.4498 
     25 C          17.7250  -27.4211  -42.7670 C.2       1 UNK         0.5027 
     26 O          18.0027  -28.4374  -43.3971 O.2       1 UNK        -0.4969 
     27 C          23.5809  -27.4429  -44.7833 C.2       3 UNK         0.5005 
     28 O          23.8572  -26.8576  -43.7326 O.2       3 UNK        -0.5279 
     29 N          24.4234  -27.4870  -45.8275 N.am      4 UNK        -0.4463 
     30 CA         25.7632  -26.8772  -45.8595 C.3       4 UNK         0.0283 
     31 CB         26.3816  -27.0859  -47.2512 C.3       4 UNK        -0.1875 
     32 C          26.7271  -27.3826  -44.7636 C.2       4 UNK         0.4949 
     33 O          27.6588  -26.6649  -44.4011 O.2       4 UNK        -0.5039 
     34 N          26.4693  -28.5879  -44.2360 N.am      5 UNK        -0.4663 
     35 CA         27.1567  -29.1754  -43.0825 C.3       5 UNK         0.0242 
     36 CB         26.9071  -30.6933  -43.0835 C.3       5 UNK        -0.1982 
     37 C          26.7426  -28.5646  -41.7268 C.2       5 UNK         0.5017 
     38 O          27.3715  -28.8899  -40.7191 O.2       5 UNK        -0.5012 
     39 N          25.6897  -27.7311  -41.7043 N.am      6 UNK        -0.4439 
     40 CA         25.0901  -27.0155  -40.5682 C.3       6 UNK         0.0297 
     41 CB         26.1027  -26.0765  -39.8842 C.3       6 UNK        -0.2006 
     42 C          24.3782  -27.9129  -39.5407 C.2       6 UNK         0.4892 
     43 O          23.2604  -27.5919  -39.1384 O.2       6 UNK        -0.5089 
     44 N          25.0247  -29.0090  -39.1283 N.am      7 UNK        -0.4243 
     45 CA         24.4901  -29.9824  -38.1738 C.3       7 UNK         0.0196 
     46 CB         25.6474  -30.8224  -37.6102 C.3       7 UNK        -0.2007 
     47 C          23.4133  -30.8945  -38.7850 C.2       7 UNK         0.5020 
     48 O          22.5154  -31.3351  -38.0666 O.2       7 UNK        -0.5147 
     49 N          23.5271  -31.1789  -40.0890 N.am      8 UNK        -0.4734 
     50 CA         22.6095  -32.0411  -40.8329 C.3       8 UNK         0.0238 
     51 CB         23.2508  -32.4261  -42.1761 C.3       8 UNK        -0.1912 
     52 C          21.2537  -31.3523  -41.0518 C.2       8 UNK         0.5038 
     53 O          21.2154  -30.3076  -41.7041 O.2       8 UNK        -0.5046 
     54 N          20.1872  -31.9603  -40.5125 N.am      9 UNK        -0.4200 
     55 CA         18.7787  -31.5425  -40.6406 C.3       9 UNK         0.0839 
     56 C          18.4284  -30.1645  -39.9910 C.2       9 UNK         0.5513 
     57 N          19.2744  -29.6127  -39.1292 N.am      9 UNK        -0.7519 
     58 O          17.3610  -29.6032  -40.2272 O.2       9 UNK        -0.4960 
     59 C59        18.2669  -31.7061  -42.1005 C.3       10 UNK        -0.0876 
     60 S60        16.5012  -32.1705  -42.2234 S.3       10 UNK        -0.2414 
     61 C61        16.3788  -32.7501  -43.9516 C.3       10 UNK         0.0169 
     62 H62        14.8553  -26.5499  -38.4193 H         1 UNK         0.0903 
     63 H63        13.5790  -27.5627  -39.1012 H         1 UNK         0.0903 
     64 H64        15.2262  -28.1832  -38.9759 H         1 UNK         0.0903 
     65 H65        16.3255  -28.1724  -40.9256 H         1 UNK         0.3096 
     66 H66        16.2608  -25.8738  -42.7137 H         1 UNK         0.1121 
     67 H67        15.2865  -28.6035  -43.6921 H         1 UNK         0.0849 
     68 H68        14.2879  -27.1927  -43.5295 H         1 UNK         0.0849 
     69 H69        15.5587  -28.1853  -47.4899 H         1 UNK         0.0865 
     70 H70        14.3984  -28.7588  -46.3226 H         1 UNK         0.0865 
     71 H71        14.9210  -30.6660  -44.9394 H         1 UNK         0.1346 
     72 H72        18.8101  -32.4384  -45.1033 H         1 UNK         0.1412 
     73 H73        18.0760  -28.7060  -47.0870 H         1 UNK         0.1426 
     74 H74        20.3210  -29.4928  -46.9018 H         1 UNK         0.0716 
     75 H75        20.3010  -31.1913  -47.3293 H         1 UNK         0.0716 
     76 H76        22.9083  -29.7988  -46.3199 H         1 UNK         0.0695 
     77 H77        23.3635  -30.1220  -44.6689 H         1 UNK         0.0695 
     78 H78        21.6978  -27.7960  -45.7292 H         1 UNK         0.0983 
     79 H79        21.4649  -28.8971  -43.0476 H         1 UNK         0.3095 
     80 H80        20.1352  -28.0204  -41.5617 H         1 UNK         0.0454 
     81 H81        20.3498  -26.1099  -40.0376 H         1 UNK         0.0851 
     82 H82        20.6273  -25.0033  -41.3871 H         1 UNK         0.0851 
     83 H83        21.8142  -26.2363  -40.9953 H         1 UNK         0.0851 
     84 H84        18.3160  -25.8908  -41.5716 H         1 UNK         0.2976 
     85 H85        24.1403  -27.9836  -46.6607 H         1 UNK         0.3116 
     86 H86        25.6349  -25.8043  -45.7012 H         1 UNK         0.0646 
     87 H87        27.3652  -26.6181  -47.3154 H         1 UNK         0.0847 
     88 H88        25.7648  -26.6418  -48.0327 H         1 UNK         0.0847 
     89 H89        26.5100  -28.1441  -47.4824 H         1 UNK         0.0847 
     90 H90        25.6969  -29.1129  -44.6177 H         1 UNK         0.3040 
     91 H91        28.2295  -29.0031  -43.1947 H         1 UNK         0.1015 
     92 H92        27.2641  -31.1534  -44.0051 H         1 UNK         0.0786 
     93 H93        25.8481  -30.9291  -42.9787 H         1 UNK         0.0786 
     94 H94        27.4321  -31.1790  -42.2595 H         1 UNK         0.0786 
     95 H95        25.2150  -27.5478  -42.5859 H         1 UNK         0.3172 
     96 H96        24.3185  -26.3832  -41.0101 H         1 UNK         0.0595 
     97 H97        26.9088  -26.6251  -39.3963 H         1 UNK         0.0839 
     98 H98        25.6145  -25.4730  -39.1179 H         1 UNK         0.0839 
     99 H99        26.5510  -25.3887  -40.6011 H         1 UNK         0.0839 
    100 H100       25.9540  -29.1740  -39.5072 H         1 UNK         0.2998 
    101 H101       24.0295  -29.4373  -37.3468 H         1 UNK         0.0822 
    102 H102       26.1631  -31.3781  -38.3947 H         1 UNK         0.0787 
    103 H103       26.3825  -30.1956  -37.1049 H         1 UNK         0.0787 
    104 H104       25.2845  -31.5476  -36.8803 H         1 UNK         0.0787 
    105 H105       24.2692  -30.7389  -40.6111 H         1 UNK         0.3055 
    106 H106       22.4585  -32.9573  -40.2573 H         1 UNK         0.1106 
    107 H107       23.4556  -31.5490  -42.7890 H         1 UNK         0.0828 
    108 H108       24.1878  -32.9642  -42.0322 H         1 UNK         0.0828 
    109 H109       22.5890  -33.0741  -42.7525 H         1 UNK         0.0828 
    110 H110       20.3371  -32.7880  -39.9539 H         1 UNK         0.2931 
    111 H111       18.2424  -32.2690  -40.0292 H         1 UNK         0.0412 
    112 H112       20.1517  -30.0620  -38.9167 H         1 UNK         0.3472 
    113 H113       19.0377  -28.7340  -38.6982 H         1 UNK         0.3472 
    114 H114       18.4559  -30.8010  -42.6773 H         1 UNK         0.0970 
    115 H115       18.8328  -32.4923  -42.6019 H         1 UNK         0.0970 
    116 H116       16.9840  -33.6496  -44.0748 H         1 UNK         0.0612 
    117 H117       15.3479  -33.0411  -44.1577 H         1 UNK         0.0612 
@<TRIPOS>BOND
     1    1    2 1    
     2    1   62 1    
     3    1   63 1    
     4    1   64 1    
     5    2    3 2    
     6    2    4 am   BACKBONE|DICT|INTERRES
     7    4    5 1    
     8    4   65 1    
     9    5    6 1    
    10    5   25 1    
    11    5   66 1    
    12    6    7 1    
    13    6   67 1    
    14    6   68 1    
    15    7    8 1    
    16    8    9 1    
    17    8   69 1    
    18    8   70 1    
    19    9   10 ar   
    20    9   14 ar   
    21   10   11 ar   
    22   10   71 1    
    23   11   12 ar   
    24   11   61 1    
    25   12   13 ar   
    26   12   72 1    
    27   13   14 ar   
    28   13   15 1    
    29   14   73 1    
    30   15   16 1    
    31   15   74 1    
    32   15   75 1    
    33   16   17 1    
    34   17   18 1    
    35   17   76 1    
    36   17   77 1    
    37   18   19 1    
    38   18   27 1    
    39   18   78 1    
    40   19   20 am   BACKBONE|DICT|INTERRES
    41   19   79 1    
    42   20   21 2    
    43   20   22 1    
    44   22   23 1    
    45   22   24 1    
    46   22   80 1    
    47   23   81 1    
    48   23   82 1    
    49   23   83 1    
    50   24   25 am   BACKBONE|DICT|INTERRES
    51   24   84 1    
    52   25   26 2    
    53   27   28 2    
    54   27   29 am   BACKBONE|DICT|INTERRES
    55   29   30 1    
    56   29   85 1    
    57   30   31 1    
    58   30   32 1    
    59   30   86 1    
    60   31   87 1    
    61   31   88 1    
    62   31   89 1    
    63   32   33 2    
    64   32   34 am   BACKBONE|DICT|INTERRES
    65   34   35 1    
    66   34   90 1    
    67   35   36 1    
    68   35   37 1    
    69   35   91 1    
    70   36   92 1    
    71   36   93 1    
    72   36   94 1    
    73   37   38 2    
    74   37   39 am   BACKBONE|DICT|INTERRES
    75   39   40 1    
    76   39   95 1    
    77   40   41 1    
    78   40   42 1    
    79   40   96 1    
    80   41   97 1    
    81   41   98 1    
    82   41   99 1    
    83   42   43 2    
    84   42   44 am   BACKBONE|DICT|INTERRES
    85   44   45 1    
    86   44  100 1    
    87   45   46 1    
    88   45   47 1    
    89   45  101 1    
    90   46  102 1    
    91   46  103 1    
    92   46  104 1    
    93   47   48 2    
    94   47   49 am   BACKBONE|DICT|INTERRES
    95   49   50 1    
    96   49  105 1    
    97   50   51 1    
    98   50   52 1    
    99   50  106 1    
   100   51  107 1    
   101   51  108 1    
   102   51  109 1    
   103   52   53 2    
   104   52   54 am   BACKBONE|DICT|INTERRES
   105   54   55 1    
   106   54  110 1    
   107   55   56 1    
   108   55   59 1    
   109   55  111 1    
   110   56   57 am   BACKBONE|DICT|INTERRES
   111   56   58 2    
   112   57  112 1    
   113   57  113 1    
   114   59   60 1    
   115   59  114 1    
   116   59  115 1    
   117   60   61 1    
   118   61  116 1    
   119   61  117 1    
@<TRIPOS>SUBSTRUCTURE
     1 UNK         1 GROUP             0       ****    0 ROOT    
