@<TRIPOS>MOLECULE
3R8
117   119    1
SMALL
USER_CHARGES


@<TRIPOS>ATOM
      1 CA         14.6610  -26.5941  -41.4653 C.3       0 UNK        -0.2013 
      2 C          14.9230  -25.7013  -42.6693 C.2       0 UNK         0.4866 
      3 O          14.5763  -24.5203  -42.6438 O.2       0 UNK        -0.5176 
      4 N          15.5337  -26.2608  -43.7205 N.am      1 UNK        -0.4884 
      5 CA         15.8647  -25.5631  -44.9684 C.3       1 UNK         0.0853 
      6 C6         16.0801  -26.5142  -46.1733 C.3       10 UNK        -0.0849 
      7 S7         14.7433  -27.7501  -46.3240 S.3       10 UNK        -0.2776 
      8 C8         15.5933  -29.1519  -47.1199 C.3       10 UNK         0.0316 
      9 C9         16.8197  -29.6465  -46.3583 C.ar      10 UNK        -0.0863 
     10 C10        16.7365  -30.0137  -45.0088 C.ar      10 UNK        -0.1009 
     11 C11        17.8602  -30.5117  -44.3403 C.ar      10 UNK        -0.0712 
     12 C12        19.0573  -30.6742  -45.0417 C.ar      10 UNK        -0.0894 
     13 C13        19.1678  -30.2681  -46.3724 C.ar      10 UNK        -0.0745 
     14 C14        18.0440  -29.7574  -47.0259 C.ar      10 UNK        -0.0972 
     15 C15        20.4947  -30.3898  -47.1076 C.3       10 UNK         0.0209 
     16 S16        21.5375  -28.9120  -46.8758 S.3       10 UNK        -0.2568 
     17 C17        22.2124  -29.1859  -45.2015 C.3       10 UNK        -0.0983 
     18 CA         21.9665  -28.0064  -44.2275 C.3       3 UNK         0.0876 
     19 N          20.5467  -27.6323  -44.1203 N.am      3 UNK        -0.4424 
     20 C          20.1002  -26.3720  -44.0649 C.2       2 UNK         0.4918 
     21 O          20.8178  -25.3792  -44.2074 O.2       2 UNK        -0.4875 
     22 CA         18.6297  -26.1838  -43.6713 C.3       2 UNK         0.0481 
     23 CB         18.5296  -26.1627  -42.1330 C.3       2 UNK        -0.1831 
     24 N          18.1770  -24.8952  -44.1967 N.am      2 UNK        -0.4498 
     25 C          17.0369  -24.5621  -44.8255 C.2       1 UNK         0.5027 
     26 O          16.8944  -23.4371  -45.3030 O.2       1 UNK        -0.4969 
     27 C          22.5669  -28.2863  -42.8261 C.2       3 UNK         0.5005 
     28 O          23.6186  -28.9211  -42.7150 O.2       3 UNK        -0.5279 
     29 N          21.9003  -27.8001  -41.7665 N.am      4 UNK        -0.4463 
     30 CA         22.2686  -27.9518  -40.3555 C.3       4 UNK         0.0283 
     31 CB         21.1532  -27.3662  -39.4758 C.3       4 UNK        -0.1875 
     32 C          23.6283  -27.3335  -39.9864 C.2       4 UNK         0.4949 
     33 O          24.2342  -27.7682  -39.0088 O.2       4 UNK        -0.5039 
     34 N          24.1210  -26.3876  -40.7992 N.am      5 UNK        -0.4663 
     35 CA         25.4785  -25.8362  -40.7198 C.3       5 UNK         0.0242 
     36 CB         25.6068  -24.6690  -41.7116 C.3       5 UNK        -0.1982 
     37 C          26.5832  -26.8826  -40.9726 C.2       5 UNK         0.5017 
     38 O          27.6895  -26.7208  -40.4575 O.2       5 UNK        -0.5012 
     39 N          26.2579  -27.9418  -41.7285 N.am      6 UNK        -0.4439 
     40 CA         27.1076  -29.1134  -41.9559 C.3       6 UNK         0.0297 
     41 CB         27.0009  -29.5127  -43.4391 C.3       6 UNK        -0.2006 
     42 C          26.7198  -30.2945  -41.0425 C.2       6 UNK         0.4892 
     43 O          27.2658  -31.3840  -41.2179 O.2       6 UNK        -0.5089 
     44 N          25.7697  -30.0771  -40.1164 N.am      7 UNK        -0.4243 
     45 CA         25.1418  -31.0481  -39.2081 C.3       7 UNK         0.0196 
     46 CB         26.1767  -31.6444  -38.2309 C.3       7 UNK        -0.2007 
     47 C          24.3141  -32.1372  -39.9211 C.2       7 UNK         0.5020 
     48 O          23.9548  -33.1333  -39.2916 O.2       7 UNK        -0.5147 
     49 N          23.9984  -31.9362  -41.2087 N.am      8 UNK        -0.4734 
     50 CA         23.3347  -32.9240  -42.0651 C.3       8 UNK         0.0238 
     51 CB         23.4888  -32.4994  -43.5319 C.3       8 UNK        -0.1912 
     52 C          21.8598  -33.1801  -41.7100 C.2       8 UNK         0.5038 
     53 O          21.3489  -34.2532  -42.0331 O.2       8 UNK        -0.5046 
     54 N          21.2144  -32.2165  -41.0397 N.am      9 UNK        -0.4200 
     55 CA         19.8606  -32.3612  -40.4786 C.3       9 UNK         0.0839 
     56 C          19.8154  -33.1458  -39.1336 C.2       9 UNK         0.5513 
     57 N          20.9388  -33.5332  -38.5385 N.am      9 UNK        -0.7519 
     58 O          18.7325  -33.4165  -38.6212 O.2       9 UNK        -0.4960 
     59 C59        19.1102  -31.0051  -40.3629 C.3       10 UNK        -0.0876 
     60 S60        19.0976  -30.0432  -41.9114 S.3       10 UNK        -0.2414 
     61 C61        17.7968  -30.8931  -42.8676 C.3       10 UNK         0.0169 
     62 H62        13.5890  -26.6900  -41.2960 H         1 UNK         0.0903 
     63 H63        15.0746  -27.5934  -41.6003 H         1 UNK         0.0903 
     64 H64        15.1097  -26.1609  -40.5718 H         1 UNK         0.0903 
     65 H65        15.7734  -27.2408  -43.6968 H         1 UNK         0.3096 
     66 H66        14.9879  -24.9594  -45.2160 H         1 UNK         0.1121 
     67 H67        17.0426  -27.0194  -46.1007 H         1 UNK         0.0849 
     68 H68        16.1164  -25.9421  -47.1024 H         1 UNK         0.0849 
     69 H69        14.8879  -29.9780  -47.2187 H         1 UNK         0.0865 
     70 H70        15.8601  -28.8581  -48.1364 H         1 UNK         0.0865 
     71 H71        15.7953  -29.9170  -44.4850 H         1 UNK         0.1346 
     72 H72        19.9078  -31.1033  -44.5328 H         1 UNK         0.1412 
     73 H73        18.1229  -29.4595  -48.0629 H         1 UNK         0.1426 
     74 H74        20.3140  -30.5234  -48.1753 H         1 UNK         0.0716 
     75 H75        21.0338  -31.2805  -46.7809 H         1 UNK         0.0716 
     76 H76        21.7997  -30.1026  -44.7907 H         1 UNK         0.0695 
     77 H77        23.2833  -29.3664  -45.3133 H         1 UNK         0.0695 
     78 H78        22.5313  -27.1585  -44.6211 H         1 UNK         0.0983 
     79 H79        19.8963  -28.3967  -43.9948 H         1 UNK         0.3095 
     80 H80        18.0497  -27.0123  -44.0762 H         1 UNK         0.0454 
     81 H81        19.2409  -25.4635  -41.6907 H         1 UNK         0.0851 
     82 H82        18.7305  -27.1457  -41.7093 H         1 UNK         0.0851 
     83 H83        17.5439  -25.8655  -41.7860 H         1 UNK         0.0851 
     84 H84        18.9128  -24.2008  -44.1854 H         1 UNK         0.2976 
     85 H85        21.0512  -27.2901  -41.9520 H         1 UNK         0.3116 
     86 H86        22.3369  -29.0222  -40.1511 H         1 UNK         0.0646 
     87 H87        21.0170  -26.2985  -39.6519 H         1 UNK         0.0847 
     88 H88        21.3839  -27.4938  -38.4171 H         1 UNK         0.0847 
     89 H89        20.1996  -27.8622  -39.6570 H         1 UNK         0.0847 
     90 H90        23.5483  -26.0778  -41.5707 H         1 UNK         0.3040 
     91 H91        25.6240  -25.4490  -39.7087 H         1 UNK         0.1015 
     92 H92        25.4518  -24.9941  -42.7413 H         1 UNK         0.0786 
     93 H93        26.5992  -24.2189  -41.6580 H         1 UNK         0.0786 
     94 H94        24.8847  -23.8816  -41.4944 H         1 UNK         0.0786 
     95 H95        25.3139  -28.0097  -42.0984 H         1 UNK         0.3172 
     96 H96        28.1504  -28.8691  -41.7447 H         1 UNK         0.0595 
     97 H97        27.6693  -30.3428  -43.6718 H         1 UNK         0.0839 
     98 H98        27.2768  -28.6856  -44.0933 H         1 UNK         0.0839 
     99 H99        25.9900  -29.8259  -43.7031 H         1 UNK         0.0839 
    100 H100       25.4115  -29.1332  -40.0251 H         1 UNK         0.2998 
    101 H101       24.4256  -30.4793  -38.6136 H         1 UNK         0.0822 
    102 H102       25.6881  -32.2381  -37.4572 H         1 UNK         0.0787 
    103 H103       26.8862  -32.2980  -38.7390 H         1 UNK         0.0787 
    104 H104       26.7423  -30.8613  -37.7260 H         1 UNK         0.0787 
    105 H105       24.2931  -31.0745  -41.6495 H         1 UNK         0.3055 
    106 H106       23.8531  -33.8771  -41.9364 H         1 UNK         0.1106 
    107 H107       22.9562  -33.1764  -44.2015 H         1 UNK         0.0828 
    108 H108       23.0985  -31.4981  -43.6929 H         1 UNK         0.0828 
    109 H109       24.5360  -32.5000  -43.8351 H         1 UNK         0.0828 
    110 H110       21.7094  -31.3670  -40.8178 H         1 UNK         0.2931 
    111 H111       19.2875  -32.9733  -41.1767 H         1 UNK         0.0412 
    112 H112       21.8459  -33.3418  -38.9451 H         1 UNK         0.3472 
    113 H113       20.8807  -34.0431  -37.6710 H         1 UNK         0.3472 
    114 H114       18.0769  -31.1616  -40.0472 H         1 UNK         0.0970 
    115 H115       19.5699  -30.3867  -39.5902 H         1 UNK         0.0970 
    116 H116       17.9190  -31.9732  -42.7849 H         1 UNK         0.0612 
    117 H117       16.8236  -30.6495  -42.4390 H         1 UNK         0.0612 
@<TRIPOS>BOND
     1    1    2 1    
     2    1   62 1    
     3    1   63 1    
     4    1   64 1    
     5    2    3 2    
     6    2    4 am   BACKBONE|DICT|INTERRES
     7    4    5 1    
     8    4   65 1    
     9    5    6 1    
    10    5   25 1    
    11    5   66 1    
    12    6    7 1    
    13    6   67 1    
    14    6   68 1    
    15    7    8 1    
    16    8    9 1    
    17    8   69 1    
    18    8   70 1    
    19    9   10 ar   
    20    9   14 ar   
    21   10   11 ar   
    22   10   71 1    
    23   11   12 ar   
    24   11   61 1    
    25   12   13 ar   
    26   12   72 1    
    27   13   14 ar   
    28   13   15 1    
    29   14   73 1    
    30   15   16 1    
    31   15   74 1    
    32   15   75 1    
    33   16   17 1    
    34   17   18 1    
    35   17   76 1    
    36   17   77 1    
    37   18   19 1    
    38   18   27 1    
    39   18   78 1    
    40   19   20 am   BACKBONE|DICT|INTERRES
    41   19   79 1    
    42   20   21 2    
    43   20   22 1    
    44   22   23 1    
    45   22   24 1    
    46   22   80 1    
    47   23   81 1    
    48   23   82 1    
    49   23   83 1    
    50   24   25 am   BACKBONE|DICT|INTERRES
    51   24   84 1    
    52   25   26 2    
    53   27   28 2    
    54   27   29 am   BACKBONE|DICT|INTERRES
    55   29   30 1    
    56   29   85 1    
    57   30   31 1    
    58   30   32 1    
    59   30   86 1    
    60   31   87 1    
    61   31   88 1    
    62   31   89 1    
    63   32   33 2    
    64   32   34 am   BACKBONE|DICT|INTERRES
    65   34   35 1    
    66   34   90 1    
    67   35   36 1    
    68   35   37 1    
    69   35   91 1    
    70   36   92 1    
    71   36   93 1    
    72   36   94 1    
    73   37   38 2    
    74   37   39 am   BACKBONE|DICT|INTERRES
    75   39   40 1    
    76   39   95 1    
    77   40   41 1    
    78   40   42 1    
    79   40   96 1    
    80   41   97 1    
    81   41   98 1    
    82   41   99 1    
    83   42   43 2    
    84   42   44 am   BACKBONE|DICT|INTERRES
    85   44   45 1    
    86   44  100 1    
    87   45   46 1    
    88   45   47 1    
    89   45  101 1    
    90   46  102 1    
    91   46  103 1    
    92   46  104 1    
    93   47   48 2    
    94   47   49 am   BACKBONE|DICT|INTERRES
    95   49   50 1    
    96   49  105 1    
    97   50   51 1    
    98   50   52 1    
    99   50  106 1    
   100   51  107 1    
   101   51  108 1    
   102   51  109 1    
   103   52   53 2    
   104   52   54 am   BACKBONE|DICT|INTERRES
   105   54   55 1    
   106   54  110 1    
   107   55   56 1    
   108   55   59 1    
   109   55  111 1    
   110   56   57 am   BACKBONE|DICT|INTERRES
   111   56   58 2    
   112   57  112 1    
   113   57  113 1    
   114   59   60 1    
   115   59  114 1    
   116   59  115 1    
   117   60   61 1    
   118   61  116 1    
   119   61  117 1    
@<TRIPOS>SUBSTRUCTURE
     1 UNK         1 GROUP             0       ****    0 ROOT    
