@<TRIPOS>MOLECULE
3R8
117   119    1
SMALL
USER_CHARGES


@<TRIPOS>ATOM
      1 CA         16.6995  -23.6896  -49.7061 C.3       0 UNK        -0.2013 
      2 C          17.3992  -24.9481  -49.2148 C.2       0 UNK         0.4866 
      3 O          17.6498  -25.8580  -50.0055 O.2       0 UNK        -0.5176 
      4 N          17.7166  -25.0072  -47.9179 N.am      1 UNK        -0.4884 
      5 CA         18.4111  -26.1150  -47.2655 C.3       1 UNK         0.0853 
      6 C6         17.4189  -27.2142  -46.7867 C.3       10 UNK        -0.0849 
      7 S7         18.0685  -28.9232  -46.8528 S.3       10 UNK        -0.2776 
      8 C8         19.1874  -29.0782  -45.4193 C.3       10 UNK         0.0316 
      9 C9         18.5060  -29.4324  -44.1035 C.ar      10 UNK        -0.0863 
     10 C10        18.7945  -30.6530  -43.4869 C.ar      10 UNK        -0.1009 
     11 C11        18.2840  -30.9512  -42.2212 C.ar      10 UNK        -0.0712 
     12 C12        17.4335  -30.0408  -41.5878 C.ar      10 UNK        -0.0894 
     13 C13        17.1223  -28.8231  -42.1996 C.ar      10 UNK        -0.0745 
     14 C14        17.6754  -28.5187  -43.4465 C.ar      10 UNK        -0.0972 
     15 C15        16.2005  -27.8302  -41.5067 C.3       10 UNK         0.0209 
     16 S16        17.0885  -26.8212  -40.2793 S.3       10 UNK        -0.2568 
     17 C17        18.0639  -25.6902  -41.3336 C.3       10 UNK        -0.0983 
     18 CA         19.5161  -26.1818  -41.5871 C.3       3 UNK         0.0876 
     19 N          20.0252  -25.6635  -42.8603 N.am      3 UNK        -0.4424 
     20 C          21.0195  -26.2012  -43.5746 C.2       2 UNK         0.4918 
     21 O          21.6031  -27.2399  -43.2603 O.2       2 UNK        -0.4875 
     22 CA         21.3863  -25.4732  -44.8849 C.3       2 UNK         0.0481 
     23 CB         22.8403  -25.7460  -45.3122 C.3       2 UNK        -0.1831 
     24 N          20.4946  -25.8622  -45.9812 N.am      2 UNK        -0.4498 
     25 C          19.2109  -25.4983  -46.1051 C.2       1 UNK         0.5027 
     26 O          18.6481  -24.7052  -45.3449 O.2       1 UNK        -0.4969 
     27 C          20.4804  -25.9018  -40.4077 C.2       3 UNK         0.5005 
     28 O          21.6151  -25.4636  -40.6120 O.2       3 UNK        -0.5279 
     29 N          20.0172  -26.1983  -39.1842 N.am      4 UNK        -0.4463 
     30 CA         20.7461  -26.1210  -37.9093 C.3       4 UNK         0.0283 
     31 CB         21.0995  -24.6596  -37.5593 C.3       4 UNK        -0.1875 
     32 C          21.9673  -27.0624  -37.8631 C.2       4 UNK         0.4949 
     33 O          22.9809  -26.7299  -37.2476 O.2       4 UNK        -0.5039 
     34 N          21.8372  -28.2197  -38.5309 N.am      5 UNK        -0.4663 
     35 CA         22.8422  -29.2768  -38.6977 C.3       5 UNK         0.0242 
     36 CB         23.1571  -29.9544  -37.3465 C.3       5 UNK        -0.1982 
     37 C          24.1102  -28.8289  -39.4548 C.2       5 UNK         0.5017 
     38 O          25.1720  -29.4237  -39.2592 O.2       5 UNK        -0.5012 
     39 N          23.9862  -27.8080  -40.3187 N.am      6 UNK        -0.4439 
     40 CA         25.0299  -27.4157  -41.2697 C.3       6 UNK         0.0297 
     41 CB         24.7450  -26.0088  -41.8146 C.3       6 UNK        -0.2006 
     42 C          25.1658  -28.4493  -42.4021 C.2       6 UNK         0.4892 
     43 O          26.2864  -28.8300  -42.7439 O.2       6 UNK        -0.5089 
     44 N          24.0241  -28.9196  -42.9240 N.am      7 UNK        -0.4243 
     45 CA         23.9235  -30.1064  -43.7729 C.3       7 UNK         0.0196 
     46 CB         22.5503  -30.1108  -44.4621 C.3       7 UNK        -0.2007 
     47 C          24.1066  -31.3944  -42.9510 C.2       7 UNK         0.5020 
     48 O          23.8482  -31.4076  -41.7447 O.2       7 UNK        -0.5147 
     49 N          24.5151  -32.4734  -43.6282 N.am      8 UNK        -0.4734 
     50 CA         24.7241  -33.8012  -43.0447 C.3       8 UNK         0.0238 
     51 CB         25.6820  -34.5970  -43.9519 C.3       8 UNK        -0.1912 
     52 C          23.3910  -34.5374  -42.8050 C.2       8 UNK         0.5038 
     53 O          23.0772  -35.4895  -43.5229 O.2       8 UNK        -0.5046 
     54 N          22.6226  -34.0623  -41.8176 N.am      9 UNK        -0.4200 
     55 CA         21.3522  -34.6462  -41.3595 C.3       9 UNK         0.0839 
     56 C          21.5047  -36.1067  -40.8518 C.2       9 UNK         0.5513 
     57 N          20.5230  -36.9596  -41.1111 N.am      9 UNK        -0.7519 
     58 O          22.4783  -36.4567  -40.1873 O.2       9 UNK        -0.4960 
     59 C59        20.6785  -33.7731  -40.2680 C.3       10 UNK        -0.0876 
     60 S60        20.3604  -32.0653  -40.8177 S.3       10 UNK        -0.2414 
     61 C61        18.6953  -32.2389  -41.5293 C.3       10 UNK         0.0169 
     62 H62        15.7304  -23.9427  -50.1354 H         1 UNK         0.0903 
     63 H63        16.5366  -22.9727  -48.9015 H         1 UNK         0.0903 
     64 H64        17.2975  -23.2042  -50.4769 H         1 UNK         0.0903 
     65 H65        17.5236  -24.2251  -47.3033 H         1 UNK         0.3096 
     66 H66        19.1145  -26.5468  -47.9817 H         1 UNK         0.1121 
     67 H67        16.9811  -26.9828  -45.8187 H         1 UNK         0.0849 
     68 H68        16.5601  -27.2293  -47.4599 H         1 UNK         0.0849 
     69 H69        19.9149  -29.8499  -45.6737 H         1 UNK         0.0865 
     70 H70        19.7733  -28.1795  -45.2777 H         1 UNK         0.0865 
     71 H71        19.4617  -31.3569  -43.9658 H         1 UNK         0.1346 
     72 H72        17.0332  -30.2673  -40.6089 H         1 UNK         0.1412 
     73 H73        17.4803  -27.5514  -43.8785 H         1 UNK         0.1426 
     74 H74        15.4007  -28.3722  -40.9999 H         1 UNK         0.0716 
     75 H75        15.7100  -27.1818  -42.2345 H         1 UNK         0.0716 
     76 H76        18.0609  -24.6951  -40.8843 H         1 UNK         0.0695 
     77 H77        17.5308  -25.5790  -42.2794 H         1 UNK         0.0695 
     78 H78        19.4919  -27.2690  -41.6878 H         1 UNK         0.0983 
     79 H79        19.5776  -24.8319  -43.2212 H         1 UNK         0.3095 
     80 H80        21.2860  -24.3986  -44.7177 H         1 UNK         0.0454 
     81 H81        23.0266  -26.8072  -45.4814 H         1 UNK         0.0851 
     82 H82        23.5407  -25.4104  -44.5482 H         1 UNK         0.0851 
     83 H83        23.0912  -25.2122  -46.2288 H         1 UNK         0.0851 
     84 H84        20.8813  -26.5098  -46.6529 H         1 UNK         0.2976 
     85 H85        19.0628  -26.5364  -39.1261 H         1 UNK         0.3116 
     86 H86        20.0584  -26.4833  -37.1438 H         1 UNK         0.0646 
     87 H87        21.8448  -24.2475  -38.2402 H         1 UNK         0.0847 
     88 H88        21.5089  -24.5876  -36.5509 H         1 UNK         0.0847 
     89 H89        20.2194  -24.0179  -37.5964 H         1 UNK         0.0847 
     90 H90        20.9566  -28.3844  -38.9985 H         1 UNK         0.3040 
     91 H91        22.3815  -30.0320  -39.3377 H         1 UNK         0.1015 
     92 H92        22.2464  -30.2821  -36.8453 H         1 UNK         0.0786 
     93 H93        23.6908  -29.2845  -36.6718 H         1 UNK         0.0786 
     94 H94        23.7811  -30.8378  -37.4877 H         1 UNK         0.0786 
     95 H95        23.0973  -27.3288  -40.3885 H         1 UNK         0.3172 
     96 H96        25.9834  -27.3777  -40.7385 H         1 UNK         0.0595 
     97 H97        23.7646  -25.9500  -42.2838 H         1 UNK         0.0839 
     98 H98        25.4868  -25.7173  -42.5592 H         1 UNK         0.0839 
     99 H99        24.7724  -25.2651  -41.0180 H         1 UNK         0.0839 
    100 H100       23.1464  -28.5046  -42.6332 H         1 UNK         0.2998 
    101 H101       24.7044  -30.0589  -44.5349 H         1 UNK         0.0822 
    102 H102       22.4192  -29.2277  -45.0869 H         1 UNK         0.0787 
    103 H103       22.4301  -30.9837  -45.1049 H         1 UNK         0.0787 
    104 H104       21.7400  -30.1267  -43.7316 H         1 UNK         0.0787 
    105 H105       24.6635  -32.3939  -44.6244 H         1 UNK         0.3055 
    106 H106       25.2104  -33.6872  -42.0727 H         1 UNK         0.1106 
    107 H107       25.8703  -35.5908  -43.5429 H         1 UNK         0.0828 
    108 H108       25.2762  -34.7296  -44.9556 H         1 UNK         0.0828 
    109 H109       26.6475  -34.0991  -44.0433 H         1 UNK         0.0828 
    110 H110       22.9271  -33.2179  -41.3461 H         1 UNK         0.2931 
    111 H111       20.6921  -34.6646  -42.2291 H         1 UNK         0.0412 
    112 H112       19.7162  -36.6798  -41.6476 H         1 UNK         0.3472 
    113 H113       20.5956  -37.9077  -40.7752 H         1 UNK         0.3472 
    114 H114       21.3093  -33.7271  -39.3781 H         1 UNK         0.0970 
    115 H115       19.7356  -34.2179  -39.9432 H         1 UNK         0.0970 
    116 H116       17.9867  -32.4992  -40.7415 H         1 UNK         0.0612 
    117 H117       18.6859  -33.0608  -42.2467 H         1 UNK         0.0612 
@<TRIPOS>BOND
     1    1    2 1    
     2    1   62 1    
     3    1   63 1    
     4    1   64 1    
     5    2    3 2    
     6    2    4 am   BACKBONE|DICT|INTERRES
     7    4    5 1    
     8    4   65 1    
     9    5    6 1    
    10    5   25 1    
    11    5   66 1    
    12    6    7 1    
    13    6   67 1    
    14    6   68 1    
    15    7    8 1    
    16    8    9 1    
    17    8   69 1    
    18    8   70 1    
    19    9   10 ar   
    20    9   14 ar   
    21   10   11 ar   
    22   10   71 1    
    23   11   12 ar   
    24   11   61 1    
    25   12   13 ar   
    26   12   72 1    
    27   13   14 ar   
    28   13   15 1    
    29   14   73 1    
    30   15   16 1    
    31   15   74 1    
    32   15   75 1    
    33   16   17 1    
    34   17   18 1    
    35   17   76 1    
    36   17   77 1    
    37   18   19 1    
    38   18   27 1    
    39   18   78 1    
    40   19   20 am   BACKBONE|DICT|INTERRES
    41   19   79 1    
    42   20   21 2    
    43   20   22 1    
    44   22   23 1    
    45   22   24 1    
    46   22   80 1    
    47   23   81 1    
    48   23   82 1    
    49   23   83 1    
    50   24   25 am   BACKBONE|DICT|INTERRES
    51   24   84 1    
    52   25   26 2    
    53   27   28 2    
    54   27   29 am   BACKBONE|DICT|INTERRES
    55   29   30 1    
    56   29   85 1    
    57   30   31 1    
    58   30   32 1    
    59   30   86 1    
    60   31   87 1    
    61   31   88 1    
    62   31   89 1    
    63   32   33 2    
    64   32   34 am   BACKBONE|DICT|INTERRES
    65   34   35 1    
    66   34   90 1    
    67   35   36 1    
    68   35   37 1    
    69   35   91 1    
    70   36   92 1    
    71   36   93 1    
    72   36   94 1    
    73   37   38 2    
    74   37   39 am   BACKBONE|DICT|INTERRES
    75   39   40 1    
    76   39   95 1    
    77   40   41 1    
    78   40   42 1    
    79   40   96 1    
    80   41   97 1    
    81   41   98 1    
    82   41   99 1    
    83   42   43 2    
    84   42   44 am   BACKBONE|DICT|INTERRES
    85   44   45 1    
    86   44  100 1    
    87   45   46 1    
    88   45   47 1    
    89   45  101 1    
    90   46  102 1    
    91   46  103 1    
    92   46  104 1    
    93   47   48 2    
    94   47   49 am   BACKBONE|DICT|INTERRES
    95   49   50 1    
    96   49  105 1    
    97   50   51 1    
    98   50   52 1    
    99   50  106 1    
   100   51  107 1    
   101   51  108 1    
   102   51  109 1    
   103   52   53 2    
   104   52   54 am   BACKBONE|DICT|INTERRES
   105   54   55 1    
   106   54  110 1    
   107   55   56 1    
   108   55   59 1    
   109   55  111 1    
   110   56   57 am   BACKBONE|DICT|INTERRES
   111   56   58 2    
   112   57  112 1    
   113   57  113 1    
   114   59   60 1    
   115   59  114 1    
   116   59  115 1    
   117   60   61 1    
   118   61  116 1    
   119   61  117 1    
@<TRIPOS>SUBSTRUCTURE
     1 UNK         1 GROUP             0       ****    0 ROOT    
