@<TRIPOS>MOLECULE
3R8
117   119    1
SMALL
USER_CHARGES


@<TRIPOS>ATOM
      1 CA         14.5989  -23.6758  -46.6018 C.3       0 UNK        -0.2013 
      2 C          16.1091  -23.8391  -46.6849 C.2       0 UNK         0.4866 
      3 O          16.8080  -22.8960  -47.0563 O.2       0 UNK        -0.5176 
      4 N          16.6187  -25.0293  -46.3422 N.am      1 UNK        -0.4884 
      5 CA         18.0478  -25.3730  -46.3842 C.3       1 UNK         0.0853 
      6 C6         18.2833  -26.8997  -46.2684 C.3       10 UNK        -0.0849 
      7 S7         17.3295  -27.9101  -47.4493 S.3       10 UNK        -0.2776 
      8 C8         18.1499  -29.5353  -47.2693 C.3       10 UNK         0.0316 
      9 C9         18.3752  -29.9460  -45.8154 C.ar      10 UNK        -0.0863 
     10 C10        19.6522  -30.3156  -45.3803 C.ar      10 UNK        -0.1009 
     11 C11        19.8751  -30.6784  -44.0479 C.ar      10 UNK        -0.0712 
     12 C12        18.8115  -30.6525  -43.1403 C.ar      10 UNK        -0.0894 
     13 C13        17.5365  -30.2602  -43.5573 C.ar      10 UNK        -0.0745 
     14 C14        17.3187  -29.9365  -44.8993 C.ar      10 UNK        -0.0972 
     15 C15        16.3932  -30.1541  -42.5614 C.3       10 UNK         0.0209 
     16 S16        16.1765  -28.4343  -41.9962 S.3       10 UNK        -0.2568 
     17 C17        17.4771  -28.2764  -40.7247 C.3       10 UNK        -0.0983 
     18 CA         18.7471  -27.5336  -41.2142 C.3       3 UNK         0.0876 
     19 N          18.4434  -26.1955  -41.7339 N.am      3 UNK        -0.4424 
     20 C          19.3352  -25.3350  -42.2442 C.2       2 UNK         0.4918 
     21 O          20.5431  -25.5606  -42.3261 O.2       2 UNK        -0.4875 
     22 CA         18.7439  -24.0426  -42.8343 C.3       2 UNK         0.0481 
     23 CB         19.7434  -22.8660  -42.8486 C.3       2 UNK        -0.1831 
     24 N          18.1936  -24.3306  -44.1640 N.am      2 UNK        -0.4498 
     25 C          18.8674  -24.6860  -45.2719 C.2       1 UNK         0.5027 
     26 O          20.0826  -24.5589  -45.4242 O.2       1 UNK        -0.4969 
     27 C          19.7992  -27.5016  -40.0845 C.2       3 UNK         0.5005 
     28 O          19.7954  -26.5764  -39.2685 O.2       3 UNK        -0.5279 
     29 N          20.6590  -28.5294  -40.0598 N.am      4 UNK        -0.4463 
     30 CA         21.7667  -28.7611  -39.1227 C.3       4 UNK         0.0283 
     31 CB         21.2964  -28.7635  -37.6525 C.3       4 UNK        -0.1875 
     32 C          23.0023  -27.8643  -39.3402 C.2       4 UNK         0.4949 
     33 O          23.9820  -28.0240  -38.6103 O.2       4 UNK        -0.5039 
     34 N          22.9774  -26.9696  -40.3388 N.am      5 UNK        -0.4663 
     35 CA         24.1515  -26.2204  -40.7874 C.3       5 UNK         0.0242 
     36 CB         23.7042  -24.9502  -41.5281 C.3       5 UNK        -0.1982 
     37 C          25.0052  -27.1101  -41.7035 C.2       5 UNK         0.5017 
     38 O          24.4568  -27.7497  -42.6036 O.2       5 UNK        -0.5012 
     39 N          26.3224  -27.1359  -41.4583 N.am      6 UNK        -0.4439 
     40 CA         27.3733  -27.9013  -42.1508 C.3       6 UNK         0.0297 
     41 CB         27.4542  -27.5369  -43.6467 C.3       6 UNK        -0.2006 
     42 C          27.3100  -29.4303  -41.9564 C.2       6 UNK         0.4892 
     43 O          28.3614  -30.0484  -41.7836 O.2       6 UNK        -0.5089 
     44 N          26.1082  -30.0137  -41.9691 N.am      7 UNK        -0.4243 
     45 CA         25.8366  -31.4263  -41.7234 C.3       7 UNK         0.0196 
     46 CB         25.8567  -32.1973  -43.0550 C.3       7 UNK        -0.2007 
     47 C          24.4703  -31.5519  -41.0435 C.2       7 UNK         0.5020 
     48 O          23.6077  -30.6965  -41.2464 O.2       7 UNK        -0.5147 
     49 N          24.2878  -32.6246  -40.2637 N.am      8 UNK        -0.4734 
     50 CA         23.0275  -32.9323  -39.5781 C.3       8 UNK         0.0238 
     51 CB         23.2936  -33.9356  -38.4439 C.3       8 UNK        -0.1912 
     52 C          21.9406  -33.4676  -40.5262 C.2       8 UNK         0.5038 
     53 O          20.7597  -33.2123  -40.2893 O.2       8 UNK        -0.5046 
     54 N          22.3638  -34.1992  -41.5672 N.am      9 UNK        -0.4200 
     55 CA         21.5179  -34.8512  -42.5848 C.3       9 UNK         0.0839 
     56 C          20.6195  -36.0060  -42.0428 C.2       9 UNK         0.5513 
     57 N          20.9043  -36.5721  -40.8759 N.am      9 UNK        -0.7519 
     58 O          19.6691  -36.4223  -42.7008 O.2       9 UNK        -0.4960 
     59 C59        20.7284  -33.8418  -43.4671 C.3       10 UNK        -0.0876 
     60 S60        21.8178  -32.6471  -44.3156 S.3       10 UNK        -0.2414 
     61 C61        21.2718  -31.0716  -43.5861 C.3       10 UNK         0.0169 
     62 H62        14.1078  -24.5872  -46.2609 H         1 UNK         0.0903 
     63 H63        14.3455  -22.8743  -45.9085 H         1 UNK         0.0903 
     64 H64        14.1952  -23.4197  -47.5810 H         1 UNK         0.0903 
     65 H65        15.9982  -25.7835  -46.0814 H         1 UNK         0.3096 
     66 H66        18.4492  -25.0335  -47.3419 H         1 UNK         0.1121 
     67 H67        18.0310  -27.2399  -45.2615 H         1 UNK         0.0849 
     68 H68        19.3424  -27.1284  -46.4081 H         1 UNK         0.0849 
     69 H69        17.5433  -30.2956  -47.7630 H         1 UNK         0.0865 
     70 H70        19.0976  -29.5026  -47.8091 H         1 UNK         0.0865 
     71 H71        20.4795  -30.3255  -46.0769 H         1 UNK         0.1346 
     72 H72        18.9785  -30.9204  -42.1059 H         1 UNK         0.1412 
     73 H73        16.3318  -29.6347  -45.2236 H         1 UNK         0.1426 
     74 H74        16.5509  -30.8172  -41.7095 H         1 UNK         0.0716 
     75 H75        15.4677  -30.4859  -43.0346 H         1 UNK         0.0716 
     76 H76        17.7321  -29.2719  -40.3564 H         1 UNK         0.0695 
     77 H77        17.0395  -27.7499  -39.8741 H         1 UNK         0.0695 
     78 H78        19.1717  -28.0894  -42.0522 H         1 UNK         0.0983 
     79 H79        17.4686  -25.9355  -41.7156 H         1 UNK         0.3095 
     80 H80        17.9026  -23.7450  -42.2063 H         1 UNK         0.0454 
     81 H81        20.6596  -23.1013  -43.3904 H         1 UNK         0.0851 
     82 H82        20.0366  -22.6014  -41.8322 H         1 UNK         0.0851 
     83 H83        19.3042  -21.9780  -43.3026 H         1 UNK         0.0851 
     84 H84        17.1932  -24.4699  -44.1930 H         1 UNK         0.2976 
     85 H85        20.5864  -29.2241  -40.7900 H         1 UNK         0.3116 
     86 H86        22.1053  -29.7726  -39.3392 H         1 UNK         0.0646 
     87 H87        21.0269  -27.7652  -37.3074 H         1 UNK         0.0847 
     88 H88        22.0861  -29.1258  -36.9932 H         1 UNK         0.0847 
     89 H89        20.4344  -29.4150  -37.5102 H         1 UNK         0.0847 
     90 H90        22.1514  -26.9010  -40.9179 H         1 UNK         0.3040 
     91 H91        24.7367  -25.9192  -39.9154 H         1 UNK         0.1015 
     92 H92        23.1772  -25.1865  -42.4535 H         1 UNK         0.0786 
     93 H93        24.5628  -24.3322  -41.7936 H         1 UNK         0.0786 
     94 H94        23.0414  -24.3415  -40.9126 H         1 UNK         0.0786 
     95 H95        26.6548  -26.5928  -40.6726 H         1 UNK         0.3172 
     96 H96        28.3086  -27.5751  -41.6928 H         1 UNK         0.0595 
     97 H97        26.5673  -27.8552  -44.1952 H         1 UNK         0.0839 
     98 H98        28.3121  -28.0195  -44.1167 H         1 UNK         0.0839 
     99 H99        27.5695  -26.4624  -43.7886 H         1 UNK         0.0839 
    100 H100       25.2834  -29.4318  -42.1043 H         1 UNK         0.2998 
    101 H101       26.5961  -31.8325  -41.0516 H         1 UNK         0.0822 
    102 H102       26.8256  -32.1134  -43.5476 H         1 UNK         0.0787 
    103 H103       25.6636  -33.2591  -42.8985 H         1 UNK         0.0787 
    104 H104       25.0970  -31.8253  -43.7442 H         1 UNK         0.0787 
    105 H105       25.0493  -33.2773  -40.1391 H         1 UNK         0.3055 
    106 H106       22.6433  -32.0147  -39.1291 H         1 UNK         0.1106 
    107 H107       22.3729  -34.1711  -37.9078 H         1 UNK         0.0828 
    108 H108       23.7025  -34.8750  -38.8178 H         1 UNK         0.0828 
    109 H109       23.9950  -33.5311  -37.7139 H         1 UNK         0.0828 
    110 H110       23.3565  -34.3459  -41.6693 H         1 UNK         0.2931 
    111 H111       22.2223  -35.3568  -43.2463 H         1 UNK         0.0412 
    112 H112       20.3253  -37.3254  -40.5387 H         1 UNK         0.3472 
    113 H113       21.6890  -36.2551  -40.3302 H         1 UNK         0.3472 
    114 H114       19.9803  -33.3188  -42.8704 H         1 UNK         0.0970 
    115 H115       20.1712  -34.3673  -44.2445 H         1 UNK         0.0970 
    116 H116       21.9784  -30.2886  -43.8653 H         1 UNK         0.0612 
    117 H117       21.3138  -31.1489  -42.4993 H         1 UNK         0.0612 
@<TRIPOS>BOND
     1    1    2 1    
     2    1   62 1    
     3    1   63 1    
     4    1   64 1    
     5    2    3 2    
     6    2    4 am   BACKBONE|DICT|INTERRES
     7    4    5 1    
     8    4   65 1    
     9    5    6 1    
    10    5   25 1    
    11    5   66 1    
    12    6    7 1    
    13    6   67 1    
    14    6   68 1    
    15    7    8 1    
    16    8    9 1    
    17    8   69 1    
    18    8   70 1    
    19    9   10 ar   
    20    9   14 ar   
    21   10   11 ar   
    22   10   71 1    
    23   11   12 ar   
    24   11   61 1    
    25   12   13 ar   
    26   12   72 1    
    27   13   14 ar   
    28   13   15 1    
    29   14   73 1    
    30   15   16 1    
    31   15   74 1    
    32   15   75 1    
    33   16   17 1    
    34   17   18 1    
    35   17   76 1    
    36   17   77 1    
    37   18   19 1    
    38   18   27 1    
    39   18   78 1    
    40   19   20 am   BACKBONE|DICT|INTERRES
    41   19   79 1    
    42   20   21 2    
    43   20   22 1    
    44   22   23 1    
    45   22   24 1    
    46   22   80 1    
    47   23   81 1    
    48   23   82 1    
    49   23   83 1    
    50   24   25 am   BACKBONE|DICT|INTERRES
    51   24   84 1    
    52   25   26 2    
    53   27   28 2    
    54   27   29 am   BACKBONE|DICT|INTERRES
    55   29   30 1    
    56   29   85 1    
    57   30   31 1    
    58   30   32 1    
    59   30   86 1    
    60   31   87 1    
    61   31   88 1    
    62   31   89 1    
    63   32   33 2    
    64   32   34 am   BACKBONE|DICT|INTERRES
    65   34   35 1    
    66   34   90 1    
    67   35   36 1    
    68   35   37 1    
    69   35   91 1    
    70   36   92 1    
    71   36   93 1    
    72   36   94 1    
    73   37   38 2    
    74   37   39 am   BACKBONE|DICT|INTERRES
    75   39   40 1    
    76   39   95 1    
    77   40   41 1    
    78   40   42 1    
    79   40   96 1    
    80   41   97 1    
    81   41   98 1    
    82   41   99 1    
    83   42   43 2    
    84   42   44 am   BACKBONE|DICT|INTERRES
    85   44   45 1    
    86   44  100 1    
    87   45   46 1    
    88   45   47 1    
    89   45  101 1    
    90   46  102 1    
    91   46  103 1    
    92   46  104 1    
    93   47   48 2    
    94   47   49 am   BACKBONE|DICT|INTERRES
    95   49   50 1    
    96   49  105 1    
    97   50   51 1    
    98   50   52 1    
    99   50  106 1    
   100   51  107 1    
   101   51  108 1    
   102   51  109 1    
   103   52   53 2    
   104   52   54 am   BACKBONE|DICT|INTERRES
   105   54   55 1    
   106   54  110 1    
   107   55   56 1    
   108   55   59 1    
   109   55  111 1    
   110   56   57 am   BACKBONE|DICT|INTERRES
   111   56   58 2    
   112   57  112 1    
   113   57  113 1    
   114   59   60 1    
   115   59  114 1    
   116   59  115 1    
   117   60   61 1    
   118   61  116 1    
   119   61  117 1    
@<TRIPOS>SUBSTRUCTURE
     1 UNK         1 GROUP             0       ****    0 ROOT    
