@<TRIPOS>MOLECULE
3R8
117   119    1
SMALL
USER_CHARGES


@<TRIPOS>ATOM
      1 CA         14.5231  -23.9869  -47.6839 C.3       0 UNK        -0.2013 
      2 C          15.7320  -24.8755  -47.4330 C.2       0 UNK         0.4866 
      3 O          16.7291  -24.7684  -48.1471 O.2       0 UNK        -0.5176 
      4 N          15.6491  -25.7550  -46.4262 N.am      1 UNK        -0.4884 
      5 CA         16.7237  -26.6638  -46.0059 C.3       1 UNK         0.0853 
      6 C6         16.1998  -27.7842  -45.0696 C.3       10 UNK        -0.0849 
      7 S7         15.2446  -27.1660  -43.6351 S.3       10 UNK        -0.2776 
      8 C8         15.0641  -28.6724  -42.6286 C.3       10 UNK         0.0316 
      9 C9         16.3753  -29.0608  -41.9633 C.ar      10 UNK        -0.0863 
     10 C10        17.1446  -30.1082  -42.4763 C.ar      10 UNK        -0.1009 
     11 C11        18.3636  -30.4452  -41.8830 C.ar      10 UNK        -0.0712 
     12 C12        18.8069  -29.7404  -40.7597 C.ar      10 UNK        -0.0894 
     13 C13        18.0504  -28.6834  -40.2454 C.ar      10 UNK        -0.0745 
     14 C14        16.8280  -28.3588  -40.8424 C.ar      10 UNK        -0.0972 
     15 C15        18.5620  -27.8709  -39.0646 C.3       10 UNK         0.0209 
     16 S16        18.9599  -26.1587  -39.5474 S.3       10 UNK        -0.2568 
     17 C17        20.5392  -26.3500  -40.4465 C.3       10 UNK        -0.0983 
     18 CA         20.3819  -26.6818  -41.9583 C.3       3 UNK         0.0876 
     19 N          19.4320  -25.8185  -42.6691 N.am      3 UNK        -0.4424 
     20 C          19.6015  -24.5334  -43.0083 C.2       2 UNK         0.4918 
     21 O          20.5430  -23.8418  -42.6173 O.2       2 UNK        -0.4875 
     22 CA         18.5609  -23.9123  -43.9680 C.3       2 UNK         0.0481 
     23 CB         19.2424  -23.0455  -45.0470 C.3       2 UNK        -0.1831 
     24 N          17.6340  -24.8604  -44.6086 N.am      2 UNK        -0.4498 
     25 C          17.9247  -25.9178  -45.3866 C.2       1 UNK         0.5027 
     26 O          19.0690  -26.3162  -45.6123 O.2       1 UNK        -0.4969 
     27 C          21.7384  -26.7684  -42.6988 C.2       3 UNK         0.5005 
     28 O          22.7945  -26.6935  -42.0660 O.2       3 UNK        -0.5279 
     29 N          21.6910  -26.8814  -44.0368 N.am      4 UNK        -0.4463 
     30 CA         22.8584  -26.9617  -44.9190 C.3       4 UNK         0.0283 
     31 CB         22.3865  -27.0245  -46.3806 C.3       4 UNK        -0.1875 
     32 C          23.7561  -28.1639  -44.5769 C.2       4 UNK         0.4949 
     33 O          23.2899  -29.2989  -44.6377 O.2       4 UNK        -0.5039 
     34 N          25.0128  -27.8781  -44.2114 N.am      5 UNK        -0.4663 
     35 CA         26.0268  -28.8101  -43.6938 C.3       5 UNK         0.0242 
     36 CB         26.2955  -29.9849  -44.6601 C.3       5 UNK        -0.1982 
     37 C          25.7844  -29.2652  -42.2376 C.2       5 UNK         0.5017 
     38 O          26.4191  -30.2244  -41.7973 O.2       5 UNK        -0.5012 
     39 N          24.9428  -28.5291  -41.4952 N.am      6 UNK        -0.4439 
     40 CA         24.7149  -28.6207  -40.0505 C.3       6 UNK         0.0297 
     41 CB         25.9814  -28.1890  -39.2731 C.3       6 UNK        -0.2006 
     42 C          24.1223  -29.9740  -39.6125 C.2       6 UNK         0.4892 
     43 O          23.0314  -30.3200  -40.0703 O.2       6 UNK        -0.5089 
     44 N          24.8134  -30.6704  -38.6958 N.am      7 UNK        -0.4243 
     45 CA         24.3982  -31.8939  -38.0024 C.3       7 UNK         0.0196 
     46 CB         25.5613  -32.3982  -37.1313 C.3       7 UNK        -0.2007 
     47 C          23.9064  -32.9949  -38.9548 C.2       7 UNK         0.5020 
     48 O          24.7074  -33.5660  -39.6982 O.2       7 UNK        -0.5147 
     49 N          22.5851  -33.2269  -38.9377 N.am      8 UNK        -0.4734 
     50 CA         21.8288  -34.1602  -39.7859 C.3       8 UNK         0.0238 
     51 CB         22.1663  -35.6185  -39.4079 C.3       8 UNK        -0.1912 
     52 C          21.9771  -33.9037  -41.3015 C.2       8 UNK         0.5038 
     53 O          21.7100  -34.8105  -42.0920 O.2       8 UNK        -0.5046 
     54 N          22.4011  -32.6879  -41.6796 N.am      9 UNK        -0.4200 
     55 CA         22.7750  -32.2886  -43.0441 C.3       9 UNK         0.0839 
     56 C          23.9718  -33.1019  -43.6294 C.2       9 UNK         0.5513 
     57 N          24.8588  -33.6466  -42.8025 N.am      9 UNK        -0.7519 
     58 O          24.1173  -33.2316  -44.8423 O.2       9 UNK        -0.4960 
     59 C59        21.5462  -32.1897  -43.9961 C.3       10 UNK        -0.0876 
     60 S60        20.4719  -30.7773  -43.5759 S.3       10 UNK        -0.2414 
     61 C61        19.2323  -31.5325  -42.4868 C.3       10 UNK         0.0169 
     62 H62        13.7129  -24.1927  -46.9846 H         1 UNK         0.0903 
     63 H63        14.8011  -22.9383  -47.5817 H         1 UNK         0.0903 
     64 H64        14.1463  -24.1427  -48.6944 H         1 UNK         0.0903 
     65 H65        14.8043  -25.8062  -45.8728 H         1 UNK         0.3096 
     66 H66        17.1058  -27.1479  -46.9080 H         1 UNK         0.1121 
     67 H67        15.5513  -28.4537  -45.6369 H         1 UNK         0.0849 
     68 H68        17.0280  -28.4041  -44.7216 H         1 UNK         0.0849 
     69 H69        14.6834  -29.4853  -43.2492 H         1 UNK         0.0865 
     70 H70        14.3083  -28.4968  -41.8616 H         1 UNK         0.0865 
     71 H71        16.8086  -30.6456  -43.3528 H         1 UNK         0.1346 
     72 H72        19.7616  -29.9895  -40.3152 H         1 UNK         0.1412 
     73 H73        16.2433  -27.5365  -40.4521 H         1 UNK         0.1426 
     74 H74        19.4379  -28.3376  -38.6111 H         1 UNK         0.0716 
     75 H75        17.7923  -27.8477  -38.2919 H         1 UNK         0.0716 
     76 H76        21.1336  -27.1192  -39.9498 H         1 UNK         0.0695 
     77 H77        21.0931  -25.4174  -40.3253 H         1 UNK         0.0695 
     78 H78        19.9685  -27.6859  -42.0336 H         1 UNK         0.0983 
     79 H79        18.6091  -26.2826  -43.0238 H         1 UNK         0.3095 
     80 H80        17.9421  -23.2554  -43.3553 H         1 UNK         0.0454 
     81 H81        18.5087  -22.5835  -45.7075 H         1 UNK         0.0851 
     82 H82        19.9241  -23.6330  -45.6632 H         1 UNK         0.0851 
     83 H83        19.8232  -22.2387  -44.5984 H         1 UNK         0.0851 
     84 H84        16.6523  -24.6645  -44.4668 H         1 UNK         0.2976 
     85 H85        20.7843  -26.9003  -44.4911 H         1 UNK         0.3116 
     86 H86        23.4301  -26.0407  -44.7877 H         1 UNK         0.0646 
     87 H87        23.2351  -27.0752  -47.0638 H         1 UNK         0.0847 
     88 H88        21.8046  -26.1424  -46.6491 H         1 UNK         0.0847 
     89 H89        21.7657  -27.9026  -46.5646 H         1 UNK         0.0847 
     90 H90        25.2852  -26.9039  -44.1989 H         1 UNK         0.3040 
     91 H91        26.9493  -28.2288  -43.6503 H         1 UNK         0.1015 
     92 H92        26.4790  -29.6319  -45.6747 H         1 UNK         0.0786 
     93 H93        25.4621  -30.6857  -44.6933 H         1 UNK         0.0786 
     94 H94        27.1750  -30.5511  -44.3513 H         1 UNK         0.0786 
     95 H95        24.3842  -27.8165  -41.9590 H         1 UNK         0.3172 
     96 H96        23.9419  -27.8834  -39.8290 H         1 UNK         0.0595 
     97 H97        26.8219  -28.8639  -39.4396 H         1 UNK         0.0839 
     98 H98        25.7933  -28.1451  -38.1994 H         1 UNK         0.0839 
     99 H99        26.3004  -27.1913  -39.5751 H         1 UNK         0.0839 
    100 H100       25.7118  -30.2995  -38.4242 H         1 UNK         0.2998 
    101 H101       23.5791  -31.6193  -37.3347 H         1 UNK         0.0822 
    102 H102       26.4432  -32.6291  -37.7307 H         1 UNK         0.0787 
    103 H103       25.8480  -31.6601  -36.3819 H         1 UNK         0.0787 
    104 H104       25.2833  -33.3083  -36.5979 H         1 UNK         0.0787 
    105 H105       22.0210  -32.6636  -38.3153 H         1 UNK         0.3055 
    106 H106       20.7737  -33.9951  -39.5613 H         1 UNK         0.1106 
    107 H107       21.5125  -36.3214  -39.9257 H         1 UNK         0.0828 
    108 H108       23.1927  -35.8761  -39.6712 H         1 UNK         0.0828 
    109 H109       22.0404  -35.7916  -38.3393 H         1 UNK         0.0828 
    110 H110       22.5911  -31.9905  -40.9655 H         1 UNK         0.2931 
    111 H111       23.1819  -31.2836  -42.9332 H         1 UNK         0.0412 
    112 H112       24.7615  -33.5478  -41.7979 H         1 UNK         0.3472 
    113 H113       25.6347  -34.1642  -43.1829 H         1 UNK         0.3472 
    114 H114       21.8721  -32.0201  -45.0236 H         1 UNK         0.0970 
    115 H115       20.9717  -33.1165  -44.0129 H         1 UNK         0.0970 
    116 H116       18.6306  -32.2446  -43.0535 H         1 UNK         0.0612 
    117 H117       19.7186  -32.0935  -41.6899 H         1 UNK         0.0612 
@<TRIPOS>BOND
     1    1    2 1    
     2    1   62 1    
     3    1   63 1    
     4    1   64 1    
     5    2    3 2    
     6    2    4 am   BACKBONE|DICT|INTERRES
     7    4    5 1    
     8    4   65 1    
     9    5    6 1    
    10    5   25 1    
    11    5   66 1    
    12    6    7 1    
    13    6   67 1    
    14    6   68 1    
    15    7    8 1    
    16    8    9 1    
    17    8   69 1    
    18    8   70 1    
    19    9   10 ar   
    20    9   14 ar   
    21   10   11 ar   
    22   10   71 1    
    23   11   12 ar   
    24   11   61 1    
    25   12   13 ar   
    26   12   72 1    
    27   13   14 ar   
    28   13   15 1    
    29   14   73 1    
    30   15   16 1    
    31   15   74 1    
    32   15   75 1    
    33   16   17 1    
    34   17   18 1    
    35   17   76 1    
    36   17   77 1    
    37   18   19 1    
    38   18   27 1    
    39   18   78 1    
    40   19   20 am   BACKBONE|DICT|INTERRES
    41   19   79 1    
    42   20   21 2    
    43   20   22 1    
    44   22   23 1    
    45   22   24 1    
    46   22   80 1    
    47   23   81 1    
    48   23   82 1    
    49   23   83 1    
    50   24   25 am   BACKBONE|DICT|INTERRES
    51   24   84 1    
    52   25   26 2    
    53   27   28 2    
    54   27   29 am   BACKBONE|DICT|INTERRES
    55   29   30 1    
    56   29   85 1    
    57   30   31 1    
    58   30   32 1    
    59   30   86 1    
    60   31   87 1    
    61   31   88 1    
    62   31   89 1    
    63   32   33 2    
    64   32   34 am   BACKBONE|DICT|INTERRES
    65   34   35 1    
    66   34   90 1    
    67   35   36 1    
    68   35   37 1    
    69   35   91 1    
    70   36   92 1    
    71   36   93 1    
    72   36   94 1    
    73   37   38 2    
    74   37   39 am   BACKBONE|DICT|INTERRES
    75   39   40 1    
    76   39   95 1    
    77   40   41 1    
    78   40   42 1    
    79   40   96 1    
    80   41   97 1    
    81   41   98 1    
    82   41   99 1    
    83   42   43 2    
    84   42   44 am   BACKBONE|DICT|INTERRES
    85   44   45 1    
    86   44  100 1    
    87   45   46 1    
    88   45   47 1    
    89   45  101 1    
    90   46  102 1    
    91   46  103 1    
    92   46  104 1    
    93   47   48 2    
    94   47   49 am   BACKBONE|DICT|INTERRES
    95   49   50 1    
    96   49  105 1    
    97   50   51 1    
    98   50   52 1    
    99   50  106 1    
   100   51  107 1    
   101   51  108 1    
   102   51  109 1    
   103   52   53 2    
   104   52   54 am   BACKBONE|DICT|INTERRES
   105   54   55 1    
   106   54  110 1    
   107   55   56 1    
   108   55   59 1    
   109   55  111 1    
   110   56   57 am   BACKBONE|DICT|INTERRES
   111   56   58 2    
   112   57  112 1    
   113   57  113 1    
   114   59   60 1    
   115   59  114 1    
   116   59  115 1    
   117   60   61 1    
   118   61  116 1    
   119   61  117 1    
@<TRIPOS>SUBSTRUCTURE
     1 UNK         1 GROUP             0       ****    0 ROOT    
