@<TRIPOS>MOLECULE
3R8
117   119    1
SMALL
USER_CHARGES


@<TRIPOS>ATOM
      1 CA         15.8569  -23.1406  -44.7123 C.3       0 UNK        -0.2013 
      2 C          16.5207  -24.4848  -44.4540 C.2       0 UNK         0.4866 
      3 O          17.7489  -24.5601  -44.4020 O.2       0 UNK        -0.5176 
      4 N          15.7185  -25.5461  -44.3005 N.am      1 UNK        -0.4884 
      5 CA         16.1836  -26.9045  -43.9968 C.3       1 UNK         0.0853 
      6 C6         15.1230  -27.9711  -44.3620 C.3       10 UNK        -0.0849 
      7 S7         15.0604  -28.1815  -46.1726 S.3       10 UNK        -0.2776 
      8 C8         16.0205  -29.7149  -46.4201 C.3       10 UNK         0.0316 
      9 C9         17.3844  -29.6949  -45.7347 C.ar      10 UNK        -0.0863 
     10 C10        17.6323  -30.5440  -44.6533 C.ar      10 UNK        -0.1009 
     11 C11        18.8866  -30.5691  -44.0395 C.ar      10 UNK        -0.0712 
     12 C12        19.8975  -29.7220  -44.5045 C.ar      10 UNK        -0.0894 
     13 C13        19.6661  -28.8583  -45.5840 C.ar      10 UNK        -0.0745 
     14 C14        18.4068  -28.8594  -46.1967 C.ar      10 UNK        -0.0972 
     15 C15        20.7741  -27.9828  -46.1734 C.3       10 UNK         0.0209 
     16 S16        22.0235  -27.3853  -44.9814 S.3       10 UNK        -0.2568 
     17 C17        21.2481  -25.8821  -44.2794 C.3       10 UNK        -0.0983 
     18 CA         21.0153  -25.9220  -42.7459 C.3       3 UNK         0.0876 
     19 N          20.0702  -26.9761  -42.3899 N.am      3 UNK        -0.4424 
     20 C          19.4801  -27.1416  -41.1984 C.2       2 UNK         0.4918 
     21 O          19.7007  -26.4402  -40.2095 O.2       2 UNK        -0.4875 
     22 CA         18.3971  -28.2371  -41.1613 C.3       2 UNK         0.0481 
     23 CB         17.6483  -28.3301  -39.8159 C.3       2 UNK        -0.1831 
     24 N          17.4829  -28.0794  -42.3016 N.am      2 UNK        -0.4498 
     25 C          16.6731  -27.0353  -42.5414 C.2       1 UNK         0.5027 
     26 O          16.3489  -26.1954  -41.6979 O.2       1 UNK        -0.4969 
     27 C          22.3367  -26.0450  -41.9618 C.2       3 UNK         0.5005 
     28 O          22.8003  -27.1603  -41.7158 O.2       3 UNK        -0.5279 
     29 N          22.9622  -24.9049  -41.6368 N.am      4 UNK        -0.4463 
     30 CA         24.2248  -24.8246  -40.8864 C.3       4 UNK         0.0283 
     31 CB         24.5563  -23.3488  -40.6127 C.3       4 UNK        -0.1875 
     32 C          25.4226  -25.5264  -41.5586 C.2       4 UNK         0.4949 
     33 O          26.3857  -25.8665  -40.8723 O.2       4 UNK        -0.5039 
     34 N          25.3367  -25.7426  -42.8772 N.am      5 UNK        -0.4663 
     35 CA         26.3194  -26.4734  -43.6751 C.3       5 UNK         0.0242 
     36 CB         26.0871  -26.1493  -45.1602 C.3       5 UNK        -0.1982 
     37 C          26.2992  -27.9980  -43.4532 C.2       5 UNK         0.5017 
     38 O          27.2964  -28.6440  -43.7780 O.2       5 UNK        -0.5012 
     39 N          25.1893  -28.5521  -42.9417 N.am      6 UNK        -0.4439 
     40 CA         24.9965  -29.9997  -42.7845 C.3       6 UNK         0.0297 
     41 CB         24.1463  -30.5236  -43.9515 C.3       6 UNK        -0.2006 
     42 C          24.3962  -30.4140  -41.4306 C.2       6 UNK         0.4892 
     43 O          24.4884  -31.5945  -41.0890 O.2       6 UNK        -0.5089 
     44 N          23.8048  -29.4708  -40.6824 N.am      7 UNK        -0.4243 
     45 CA         23.1846  -29.6294  -39.3648 C.3       7 UNK         0.0196 
     46 CB         24.2522  -29.9256  -38.2868 C.3       7 UNK        -0.2007 
     47 C          22.0290  -30.6433  -39.4065 C.2       7 UNK         0.5020 
     48 O          20.9559  -30.3121  -39.9083 O.2       7 UNK        -0.5147 
     49 N          22.2688  -31.8577  -38.8970 N.am      8 UNK        -0.4734 
     50 CA         21.3218  -32.9749  -38.9151 C.3       8 UNK         0.0238 
     51 CB         21.7607  -34.0131  -37.8686 C.3       8 UNK        -0.1912 
     52 C          21.1626  -33.6366  -40.2979 C.2       8 UNK         0.5038 
     53 O          20.2025  -34.3876  -40.4725 O.2       8 UNK        -0.5046 
     54 N          22.0938  -33.3611  -41.2260 N.am      9 UNK        -0.4200 
     55 CA         22.1905  -33.8966  -42.5947 C.3       9 UNK         0.0839 
     56 C          22.1071  -35.4513  -42.6939 C.2       9 UNK         0.5513 
     57 N          21.5292  -36.0094  -43.7492 N.am      9 UNK        -0.7519 
     58 O          22.6354  -36.1639  -41.8433 O.2       9 UNK        -0.4960 
     59 C59        21.3631  -33.0852  -43.6397 C.3       10 UNK        -0.0876 
     60 S60        19.5480  -33.1945  -43.4730 S.3       10 UNK        -0.2414 
     61 C61        19.1366  -31.5243  -42.8813 C.3       10 UNK         0.0169 
     62 H62        16.1657  -22.4206  -43.9549 H         1 UNK         0.0903 
     63 H63        16.1532  -22.7575  -45.6891 H         1 UNK         0.0903 
     64 H64        14.7686  -23.2102  -44.6904 H         1 UNK         0.0903 
     65 H65        14.7168  -25.4234  -44.3388 H         1 UNK         0.3096 
     66 H66        17.0689  -27.0734  -44.6124 H         1 UNK         0.1121 
     67 H67        15.3328  -28.9378  -43.9013 H         1 UNK         0.0849 
     68 H68        14.1361  -27.6799  -43.9982 H         1 UNK         0.0849 
     69 H69        15.4258  -30.5598  -46.0689 H         1 UNK         0.0865 
     70 H70        16.1615  -29.8726  -47.4902 H         1 UNK         0.0865 
     71 H71        16.8543  -31.2072  -44.2986 H         1 UNK         0.1346 
     72 H72        20.8703  -29.7556  -44.0367 H         1 UNK         0.1412 
     73 H73        18.2203  -28.2157  -47.0459 H         1 UNK         0.1426 
     74 H74        20.3487  -27.1262  -46.6987 H         1 UNK         0.0716 
     75 H75        21.2921  -28.5733  -46.9300 H         1 UNK         0.0716 
     76 H76        20.2970  -25.7010  -44.7826 H         1 UNK         0.0695 
     77 H77        21.8767  -25.0290  -44.5406 H         1 UNK         0.0695 
     78 H78        20.5472  -24.9787  -42.4560 H         1 UNK         0.0983 
     79 H79        19.8524  -27.6211  -43.1337 H         1 UNK         0.3095 
     80 H80        18.9140  -29.1838  -41.3074 H         1 UNK         0.0454 
     81 H81        16.8805  -29.1027  -39.8420 H         1 UNK         0.0851 
     82 H82        17.1717  -27.3894  -39.5414 H         1 UNK         0.0851 
     83 H83        18.3395  -28.5863  -39.0122 H         1 UNK         0.0851 
     84 H84        17.6374  -28.7326  -43.0591 H         1 UNK         0.2976 
     85 H85        22.5360  -24.0248  -41.8915 H         1 UNK         0.3116 
     86 H86        24.0641  -25.3209  -39.9273 H         1 UNK         0.0646 
     87 H87        24.7012  -22.7890  -41.5373 H         1 UNK         0.0847 
     88 H88        25.4739  -23.2561  -40.0299 H         1 UNK         0.0847 
     89 H89        23.7652  -22.8611  -40.0430 H         1 UNK         0.0847 
     90 H90        24.5065  -25.4264  -43.3564 H         1 UNK         0.3040 
     91 H91        27.3155  -26.1201  -43.3987 H         1 UNK         0.1015 
     92 H92        25.1010  -26.4749  -45.4948 H         1 UNK         0.0786 
     93 H93        26.8254  -26.6486  -45.7894 H         1 UNK         0.0786 
     94 H94        26.1719  -25.0796  -45.3518 H         1 UNK         0.0786 
     95 H95        24.4112  -27.9494  -42.6928 H         1 UNK         0.3172 
     96 H96        25.9636  -30.5039  -42.8293 H         1 UNK         0.0595 
     97 H97        23.1516  -30.0821  -43.9490 H         1 UNK         0.0839 
     98 H98        24.0345  -31.6064  -43.8987 H         1 UNK         0.0839 
     99 H99        24.6090  -30.2960  -44.9114 H         1 UNK         0.0839 
    100 H100       23.6371  -28.5563  -41.0992 H         1 UNK         0.2998 
    101 H101       22.7323  -28.6659  -39.1231 H         1 UNK         0.0822 
    102 H102       24.9678  -29.1061  -38.2175 H         1 UNK         0.0787 
    103 H103       23.7964  -30.0345  -37.3020 H         1 UNK         0.0787 
    104 H104       24.8180  -30.8344  -38.4939 H         1 UNK         0.0787 
    105 H105       23.1926  -32.0462  -38.5342 H         1 UNK         0.3055 
    106 H106       20.3382  -32.5947  -38.6296 H         1 UNK         0.1106 
    107 H107       21.0560  -34.8448  -37.8236 H         1 UNK         0.0828 
    108 H108       22.7412  -34.4307  -38.1009 H         1 UNK         0.0828 
    109 H109       21.8071  -33.5774  -36.8705 H         1 UNK         0.0828 
    110 H110       22.8593  -32.7517  -40.9565 H         1 UNK         0.2931 
    111 H111       23.2318  -33.7036  -42.8537 H         1 UNK         0.0412 
    112 H112       21.5021  -37.0146  -43.8218 H         1 UNK         0.3472 
    113 H113       21.0685  -35.4421  -44.4423 H         1 UNK         0.3472 
    114 H114       21.6300  -33.3918  -44.6520 H         1 UNK         0.0970 
    115 H115       21.6561  -32.0379  -43.5849 H         1 UNK         0.0970 
    116 H116       19.9319  -31.1543  -42.2335 H         1 UNK         0.0612 
    117 H117       18.2434  -31.5857  -42.2578 H         1 UNK         0.0612 
@<TRIPOS>BOND
     1    1    2 1    
     2    1   62 1    
     3    1   63 1    
     4    1   64 1    
     5    2    3 2    
     6    2    4 am   BACKBONE|DICT|INTERRES
     7    4    5 1    
     8    4   65 1    
     9    5    6 1    
    10    5   25 1    
    11    5   66 1    
    12    6    7 1    
    13    6   67 1    
    14    6   68 1    
    15    7    8 1    
    16    8    9 1    
    17    8   69 1    
    18    8   70 1    
    19    9   10 ar   
    20    9   14 ar   
    21   10   11 ar   
    22   10   71 1    
    23   11   12 ar   
    24   11   61 1    
    25   12   13 ar   
    26   12   72 1    
    27   13   14 ar   
    28   13   15 1    
    29   14   73 1    
    30   15   16 1    
    31   15   74 1    
    32   15   75 1    
    33   16   17 1    
    34   17   18 1    
    35   17   76 1    
    36   17   77 1    
    37   18   19 1    
    38   18   27 1    
    39   18   78 1    
    40   19   20 am   BACKBONE|DICT|INTERRES
    41   19   79 1    
    42   20   21 2    
    43   20   22 1    
    44   22   23 1    
    45   22   24 1    
    46   22   80 1    
    47   23   81 1    
    48   23   82 1    
    49   23   83 1    
    50   24   25 am   BACKBONE|DICT|INTERRES
    51   24   84 1    
    52   25   26 2    
    53   27   28 2    
    54   27   29 am   BACKBONE|DICT|INTERRES
    55   29   30 1    
    56   29   85 1    
    57   30   31 1    
    58   30   32 1    
    59   30   86 1    
    60   31   87 1    
    61   31   88 1    
    62   31   89 1    
    63   32   33 2    
    64   32   34 am   BACKBONE|DICT|INTERRES
    65   34   35 1    
    66   34   90 1    
    67   35   36 1    
    68   35   37 1    
    69   35   91 1    
    70   36   92 1    
    71   36   93 1    
    72   36   94 1    
    73   37   38 2    
    74   37   39 am   BACKBONE|DICT|INTERRES
    75   39   40 1    
    76   39   95 1    
    77   40   41 1    
    78   40   42 1    
    79   40   96 1    
    80   41   97 1    
    81   41   98 1    
    82   41   99 1    
    83   42   43 2    
    84   42   44 am   BACKBONE|DICT|INTERRES
    85   44   45 1    
    86   44  100 1    
    87   45   46 1    
    88   45   47 1    
    89   45  101 1    
    90   46  102 1    
    91   46  103 1    
    92   46  104 1    
    93   47   48 2    
    94   47   49 am   BACKBONE|DICT|INTERRES
    95   49   50 1    
    96   49  105 1    
    97   50   51 1    
    98   50   52 1    
    99   50  106 1    
   100   51  107 1    
   101   51  108 1    
   102   51  109 1    
   103   52   53 2    
   104   52   54 am   BACKBONE|DICT|INTERRES
   105   54   55 1    
   106   54  110 1    
   107   55   56 1    
   108   55   59 1    
   109   55  111 1    
   110   56   57 am   BACKBONE|DICT|INTERRES
   111   56   58 2    
   112   57  112 1    
   113   57  113 1    
   114   59   60 1    
   115   59  114 1    
   116   59  115 1    
   117   60   61 1    
   118   61  116 1    
   119   61  117 1    
@<TRIPOS>SUBSTRUCTURE
     1 UNK         1 GROUP             0       ****    0 ROOT    
