@<TRIPOS>MOLECULE
3R8
117   119    1
SMALL
USER_CHARGES


@<TRIPOS>ATOM
      1 CA         15.7172  -23.4796  -46.5737 C.3       0 UNK        -0.2013 
      2 C          16.7451  -24.5994  -46.5086 C.2       0 UNK         0.4866 
      3 O          17.8419  -24.4556  -47.0496 O.2       0 UNK        -0.5176 
      4 N          16.3974  -25.7166  -45.8571 N.am      1 UNK        -0.4884 
      5 CA         17.2841  -26.8631  -45.6323 C.3       1 UNK         0.0853 
      6 C6         16.4695  -28.1277  -45.2664 C.3       10 UNK        -0.0849 
      7 S7         17.2517  -29.6682  -45.8524 S.3       10 UNK        -0.2776 
      8 C8         16.1984  -30.9240  -45.0523 C.3       10 UNK         0.0316 
      9 C9         16.7973  -31.3671  -43.7270 C.ar      10 UNK        -0.0863 
     10 C10        17.4933  -32.5739  -43.6342 C.ar      10 UNK        -0.1009 
     11 C11        18.1024  -32.9503  -42.4338 C.ar      10 UNK        -0.0712 
     12 C12        18.0221  -32.1026  -41.3228 C.ar      10 UNK        -0.0894 
     13 C13        17.3101  -30.9005  -41.3963 C.ar      10 UNK        -0.0745 
     14 C14        16.6742  -30.5611  -42.5947 C.ar      10 UNK        -0.0972 
     15 C15        17.2072  -29.9887  -40.1759 C.3       10 UNK         0.0209 
     16 S16        17.3124  -28.2142  -40.6060 S.3       10 UNK        -0.2568 
     17 C17        18.7905  -27.6596  -39.7010 C.3       10 UNK        -0.0983 
     18 CA         20.1096  -27.7815  -40.5061 C.3       3 UNK         0.0876 
     19 N          20.0375  -27.1621  -41.8377 N.am      3 UNK        -0.4424 
     20 C          21.0101  -27.2006  -42.7587 C.2       2 UNK         0.4918 
     21 O          22.0708  -27.8091  -42.5993 O.2       2 UNK        -0.4875 
     22 CA         20.7667  -26.3875  -44.0457 C.3       2 UNK         0.0481 
     23 CB         21.9886  -26.3558  -44.9793 C.3       2 UNK        -0.1831 
     24 N          19.6060  -26.8431  -44.8144 N.am      2 UNK        -0.4498 
     25 C          18.3364  -26.5057  -44.5588 C.2       1 UNK         0.5027 
     26 O          17.9866  -25.9077  -43.5367 O.2       1 UNK        -0.4969 
     27 C          21.2676  -27.2034  -39.6653 C.2       3 UNK         0.5005 
     28 O          22.0021  -27.9579  -39.0252 O.2       3 UNK        -0.5279 
     29 N          21.4089  -25.8691  -39.7017 N.am      4 UNK        -0.4463 
     30 CA         22.3853  -25.0931  -38.9318 C.3       4 UNK         0.0283 
     31 CB         22.0630  -23.5965  -39.0689 C.3       4 UNK        -0.1875 
     32 C          23.8501  -25.3590  -39.3155 C.2       4 UNK         0.4949 
     33 O          24.7313  -25.1816  -38.4750 O.2       4 UNK        -0.5039 
     34 N          24.0956  -25.8145  -40.5511 N.am      5 UNK        -0.4663 
     35 CA         25.4188  -26.1678  -41.0759 C.3       5 UNK         0.0242 
     36 CB         25.4052  -25.9896  -42.6046 C.3       5 UNK        -0.1982 
     37 C          25.8551  -27.5851  -40.6480 C.2       5 UNK         0.5017 
     38 O          26.3676  -28.3429  -41.4722 O.2       5 UNK        -0.5012 
     39 N          25.6275  -27.9160  -39.3677 N.am      6 UNK        -0.4439 
     40 CA         25.8650  -29.2086  -38.7151 C.3       6 UNK         0.0297 
     41 CB         27.3792  -29.4746  -38.5744 C.3       6 UNK        -0.2006 
     42 C          25.1078  -30.3667  -39.3966 C.2       6 UNK         0.4892 
     43 O          25.6917  -31.4279  -39.6244 O.2       6 UNK        -0.5089 
     44 N          23.8230  -30.1274  -39.7068 N.am      7 UNK        -0.4243 
     45 CA         22.9006  -31.0167  -40.4199 C.3       7 UNK         0.0196 
     46 CB         22.5427  -32.2472  -39.5600 C.3       7 UNK        -0.2007 
     47 C          23.4146  -31.3868  -41.8226 C.2       7 UNK         0.5020 
     48 O          23.6581  -32.5605  -42.1100 O.2       7 UNK        -0.5147 
     49 N          23.5580  -30.3765  -42.6899 N.am      8 UNK        -0.4734 
     50 CA         23.8915  -30.5492  -44.1055 C.3       8 UNK         0.0238 
     51 CB         24.6300  -29.2984  -44.6114 C.3       8 UNK        -0.1912 
     52 C          22.6076  -30.8558  -44.8966 C.2       8 UNK         0.5038 
     53 O          22.1313  -30.0153  -45.6611 O.2       8 UNK        -0.5046 
     54 N          22.0506  -32.0429  -44.6316 N.am      9 UNK        -0.4200 
     55 CA         20.7741  -32.5619  -45.1371 C.3       9 UNK         0.0839 
     56 C          20.6656  -32.5340  -46.6854 C.2       9 UNK         0.5513 
     57 N          19.5916  -31.9768  -47.2274 N.am      9 UNK        -0.7519 
     58 O          21.5264  -33.0561  -47.3908 O.2       9 UNK        -0.4960 
     59 C59        20.5197  -33.9986  -44.6068 C.3       10 UNK        -0.0876 
     60 S60        20.5894  -34.1213  -42.7838 S.3       10 UNK        -0.2414 
     61 C61        18.8355  -34.2789  -42.3340 C.3       10 UNK         0.0169 
     62 H62        16.1134  -22.5795  -46.1042 H         1 UNK         0.0903 
     63 H63        15.4810  -23.2468  -47.6117 H         1 UNK         0.0903 
     64 H64        14.7899  -23.7461  -46.0668 H         1 UNK         0.0903 
     65 H65        15.4982  -25.7610  -45.3988 H         1 UNK         0.3096 
     66 H66        17.8037  -27.0469  -46.5761 H         1 UNK         0.1121 
     67 H67        16.2754  -28.1692  -44.1956 H         1 UNK         0.0849 
     68 H68        15.4868  -28.0903  -45.7401 H         1 UNK         0.0849 
     69 H69        16.0975  -31.7769  -45.7254 H         1 UNK         0.0865 
     70 H70        15.1889  -30.5380  -44.9020 H         1 UNK         0.0865 
     71 H71        17.5681  -33.2165  -44.5000 H         1 UNK         0.1346 
     72 H72        18.5044  -32.3880  -40.3978 H         1 UNK         0.1412 
     73 H73        16.0982  -29.6505  -42.6492 H         1 UNK         0.1426 
     74 H74        17.9800  -30.2428  -39.4493 H         1 UNK         0.0716 
     75 H75        16.2508  -30.1719  -39.6849 H         1 UNK         0.0716 
     76 H76        18.8603  -28.2091  -38.7601 H         1 UNK         0.0695 
     77 H77        18.6108  -26.6192  -39.4223 H         1 UNK         0.0695 
     78 H78        20.3096  -28.8427  -40.6604 H         1 UNK         0.0983 
     79 H79        19.1746  -26.6829  -42.0757 H         1 UNK         0.3095 
     80 H80        20.5881  -25.3577  -43.7286 H         1 UNK         0.0454 
     81 H81        21.8326  -25.6666  -45.8092 H         1 UNK         0.0851 
     82 H82        22.1974  -27.3386  -45.4005 H         1 UNK         0.0851 
     83 H83        22.8818  -26.0213  -44.4521 H         1 UNK         0.0851 
     84 H84        19.8075  -27.3930  -45.6379 H         1 UNK         0.2976 
     85 H85        20.7611  -25.3415  -40.2692 H         1 UNK         0.3116 
     86 H86        22.2716  -25.3712  -37.8818 H         1 UNK         0.0646 
     87 H87        22.7565  -22.9926  -38.4817 H         1 UNK         0.0847 
     88 H88        21.0588  -23.3703  -38.7100 H         1 UNK         0.0847 
     89 H89        22.1356  -23.2598  -40.1039 H         1 UNK         0.0847 
     90 H90        23.3083  -26.0015  -41.1558 H         1 UNK         0.3040 
     91 H91        26.1588  -25.4748  -40.6689 H         1 UNK         0.1015 
     92 H92        25.1159  -24.9769  -42.8860 H         1 UNK         0.0786 
     93 H93        24.7098  -26.6824  -43.0758 H         1 UNK         0.0786 
     94 H94        26.3916  -26.1740  -43.0322 H         1 UNK         0.0786 
     95 H95        25.2166  -27.1945  -38.7849 H         1 UNK         0.3172 
     96 H96        25.4505  -29.1244  -37.7094 H         1 UNK         0.0595 
     97 H97        27.8581  -29.6111  -39.5446 H         1 UNK         0.0839 
     98 H98        27.5649  -30.3774  -37.9911 H         1 UNK         0.0839 
     99 H99        27.8816  -28.6525  -38.0649 H         1 UNK         0.0839 
    100 H100       23.4290  -29.2245  -39.4536 H         1 UNK         0.2998 
    101 H101       21.9810  -30.4521  -40.5712 H         1 UNK         0.0822 
    102 H102       23.4105  -32.8800  -39.3718 H         1 UNK         0.0787 
    103 H103       22.1280  -31.9500  -38.5969 H         1 UNK         0.0787 
    104 H104       21.7944  -32.8641  -40.0595 H         1 UNK         0.0787 
    105 H105       23.2676  -29.4423  -42.4169 H         1 UNK         0.3055 
    106 H106       24.5677  -31.3990  -44.2257 H         1 UNK         0.1106 
    107 H107       24.8819  -29.3929  -45.6683 H         1 UNK         0.0828 
    108 H108       24.0248  -28.4017  -44.4980 H         1 UNK         0.0828 
    109 H109       25.5612  -29.1422  -44.0665 H         1 UNK         0.0828 
    110 H110       22.5073  -32.6243  -43.9389 H         1 UNK         0.2931 
    111 H111       20.0025  -31.9063  -44.7300 H         1 UNK         0.0412 
    112 H112       18.8973  -31.5174  -46.6566 H         1 UNK         0.3472 
    113 H113       19.5005  -31.9653  -48.2312 H         1 UNK         0.3472 
    114 H114       19.5597  -34.3766  -44.9607 H         1 UNK         0.0970 
    115 H115       21.2686  -34.6838  -45.0093 H         1 UNK         0.0970 
    116 H116       18.3565  -35.0307  -42.9630 H         1 UNK         0.0612 
    117 H117       18.7730  -34.6570  -41.3125 H         1 UNK         0.0612 
@<TRIPOS>BOND
     1    1    2 1    
     2    1   62 1    
     3    1   63 1    
     4    1   64 1    
     5    2    3 2    
     6    2    4 am   BACKBONE|DICT|INTERRES
     7    4    5 1    
     8    4   65 1    
     9    5    6 1    
    10    5   25 1    
    11    5   66 1    
    12    6    7 1    
    13    6   67 1    
    14    6   68 1    
    15    7    8 1    
    16    8    9 1    
    17    8   69 1    
    18    8   70 1    
    19    9   10 ar   
    20    9   14 ar   
    21   10   11 ar   
    22   10   71 1    
    23   11   12 ar   
    24   11   61 1    
    25   12   13 ar   
    26   12   72 1    
    27   13   14 ar   
    28   13   15 1    
    29   14   73 1    
    30   15   16 1    
    31   15   74 1    
    32   15   75 1    
    33   16   17 1    
    34   17   18 1    
    35   17   76 1    
    36   17   77 1    
    37   18   19 1    
    38   18   27 1    
    39   18   78 1    
    40   19   20 am   BACKBONE|DICT|INTERRES
    41   19   79 1    
    42   20   21 2    
    43   20   22 1    
    44   22   23 1    
    45   22   24 1    
    46   22   80 1    
    47   23   81 1    
    48   23   82 1    
    49   23   83 1    
    50   24   25 am   BACKBONE|DICT|INTERRES
    51   24   84 1    
    52   25   26 2    
    53   27   28 2    
    54   27   29 am   BACKBONE|DICT|INTERRES
    55   29   30 1    
    56   29   85 1    
    57   30   31 1    
    58   30   32 1    
    59   30   86 1    
    60   31   87 1    
    61   31   88 1    
    62   31   89 1    
    63   32   33 2    
    64   32   34 am   BACKBONE|DICT|INTERRES
    65   34   35 1    
    66   34   90 1    
    67   35   36 1    
    68   35   37 1    
    69   35   91 1    
    70   36   92 1    
    71   36   93 1    
    72   36   94 1    
    73   37   38 2    
    74   37   39 am   BACKBONE|DICT|INTERRES
    75   39   40 1    
    76   39   95 1    
    77   40   41 1    
    78   40   42 1    
    79   40   96 1    
    80   41   97 1    
    81   41   98 1    
    82   41   99 1    
    83   42   43 2    
    84   42   44 am   BACKBONE|DICT|INTERRES
    85   44   45 1    
    86   44  100 1    
    87   45   46 1    
    88   45   47 1    
    89   45  101 1    
    90   46  102 1    
    91   46  103 1    
    92   46  104 1    
    93   47   48 2    
    94   47   49 am   BACKBONE|DICT|INTERRES
    95   49   50 1    
    96   49  105 1    
    97   50   51 1    
    98   50   52 1    
    99   50  106 1    
   100   51  107 1    
   101   51  108 1    
   102   51  109 1    
   103   52   53 2    
   104   52   54 am   BACKBONE|DICT|INTERRES
   105   54   55 1    
   106   54  110 1    
   107   55   56 1    
   108   55   59 1    
   109   55  111 1    
   110   56   57 am   BACKBONE|DICT|INTERRES
   111   56   58 2    
   112   57  112 1    
   113   57  113 1    
   114   59   60 1    
   115   59  114 1    
   116   59  115 1    
   117   60   61 1    
   118   61  116 1    
   119   61  117 1    
@<TRIPOS>SUBSTRUCTURE
     1 UNK         1 GROUP             0       ****    0 ROOT    
