@<TRIPOS>MOLECULE
3R8
117   119    1
SMALL
USER_CHARGES


@<TRIPOS>ATOM
      1 CA         20.4852  -28.8486  -42.7159 C.3       0 UNK        -0.2013 
      2 C          19.6625  -27.6578  -42.2643 C.2       0 UNK         0.4866 
      3 O          20.1154  -26.9022  -41.4079 O.2       0 UNK        -0.5176 
      4 N          18.4723  -27.4698  -42.8471 N.am      1 UNK        -0.4884 
      5 CA         17.5355  -26.3699  -42.5500 C.3       1 UNK         0.0853 
      6 C6         16.1443  -26.6447  -43.1711 C.3       10 UNK        -0.0849 
      7 S7         15.4200  -28.2213  -42.6051 S.3       10 UNK        -0.2776 
      8 C8         15.2880  -29.1618  -44.1608 C.3       10 UNK         0.0316 
      9 C9         16.6102  -29.7822  -44.5986 C.ar      10 UNK        -0.0863 
     10 C10        17.1403  -30.8632  -43.8866 C.ar      10 UNK        -0.1009 
     11 C11        18.2930  -31.5143  -44.3351 C.ar      10 UNK        -0.0712 
     12 C12        18.9285  -31.0653  -45.4971 C.ar      10 UNK        -0.0894 
     13 C13        18.4156  -29.9810  -46.2162 C.ar      10 UNK        -0.0745 
     14 C14        17.2578  -29.3400  -45.7583 C.ar      10 UNK        -0.0972 
     15 C15        19.0584  -29.5705  -47.5373 C.3       10 UNK         0.0209 
     16 S16        19.6746  -27.8579  -47.5431 S.3       10 UNK        -0.2568 
     17 C17        21.2245  -28.0046  -46.5893 C.3       10 UNK        -0.0983 
     18 CA         21.8596  -26.6203  -46.2870 C.3       3 UNK         0.0876 
     19 N          20.8757  -25.7420  -45.6553 N.am      3 UNK        -0.4424 
     20 C          21.0274  -24.4821  -45.2189 C.2       2 UNK         0.4918 
     21 O          22.0434  -23.8052  -45.3761 O.2       2 UNK        -0.4875 
     22 CA         19.8263  -23.8955  -44.4568 C.3       2 UNK         0.0481 
     23 CB         18.9197  -23.0947  -45.4112 C.3       2 UNK        -0.1831 
     24 N          19.1009  -24.9978  -43.8261 N.am      2 UNK        -0.4498 
     25 C          18.0486  -24.9815  -43.0061 C.2       1 UNK         0.5027 
     26 O          17.4810  -23.9567  -42.6262 O.2       1 UNK        -0.4969 
     27 C          23.1376  -26.7912  -45.4361 C.2       3 UNK         0.5005 
     28 O          23.0857  -26.6860  -44.2063 O.2       3 UNK        -0.5279 
     29 N          24.2520  -27.1115  -46.1108 N.am      4 UNK        -0.4463 
     30 CA         25.6108  -27.2293  -45.5590 C.3       4 UNK         0.0283 
     31 CB         26.5856  -27.5509  -46.7042 C.3       4 UNK        -0.1875 
     32 C          25.7958  -28.2346  -44.4041 C.2       4 UNK         0.4949 
     33 O          26.8096  -28.1616  -43.7094 O.2       4 UNK        -0.5039 
     34 N          24.8244  -29.1356  -44.2012 N.am      5 UNK        -0.4663 
     35 CA         24.7511  -30.0447  -43.0550 C.3       5 UNK         0.0242 
     36 CB         23.6459  -31.0836  -43.3006 C.3       5 UNK        -0.1982 
     37 C          24.5427  -29.3311  -41.7038 C.2       5 UNK         0.5017 
     38 O          24.8937  -29.9157  -40.6805 O.2       5 UNK        -0.5012 
     39 N          24.0006  -28.0993  -41.7186 N.am      6 UNK        -0.4439 
     40 CA         23.8488  -27.1818  -40.5783 C.3       6 UNK         0.0297 
     41 CB         25.2182  -26.5701  -40.2175 C.3       6 UNK        -0.2006 
     42 C          23.1519  -27.8265  -39.3625 C.2       6 UNK         0.4892 
     43 O          23.7588  -27.9764  -38.3007 O.2       6 UNK        -0.5089 
     44 N          21.8949  -28.2345  -39.5743 N.am      7 UNK        -0.4243 
     45 CA         20.9687  -28.8997  -38.6477 C.3       7 UNK         0.0196 
     46 CB         20.6684  -27.9994  -37.4318 C.3       7 UNK        -0.2007 
     47 C          21.3502  -30.3272  -38.2039 C.2       7 UNK         0.5020 
     48 O          20.5162  -30.9805  -37.5755 O.2       7 UNK        -0.5147 
     49 N          22.5537  -30.8209  -38.5346 N.am      8 UNK        -0.4734 
     50 CA         23.0570  -32.1339  -38.1023 C.3       8 UNK         0.0238 
     51 CB         24.5425  -32.2674  -38.4709 C.3       8 UNK        -0.1912 
     52 C          22.2621  -33.3300  -38.6551 C.2       8 UNK         0.5038 
     53 O          22.2202  -34.3757  -38.0055 O.2       8 UNK        -0.5046 
     54 N          21.6421  -33.1499  -39.8270 N.am      9 UNK        -0.4200 
     55 CA         20.7222  -34.1094  -40.4529 C.3       9 UNK         0.0839 
     56 C          19.2733  -34.0865  -39.8798 C.2       9 UNK         0.5513 
     57 N          18.9343  -33.2150  -38.9357 N.am      9 UNK        -0.7519 
     58 O          18.4413  -34.8908  -40.2915 O.2       9 UNK        -0.4960 
     59 C59        20.7599  -33.9987  -41.9994 C.3       10 UNK        -0.0876 
     60 S60        20.3078  -32.3465  -42.6314 S.3       10 UNK        -0.2414 
     61 C61        18.8224  -32.7369  -43.5999 C.3       10 UNK         0.0169 
     62 H62        20.6446  -29.5328  -41.8842 H         1 UNK         0.0903 
     63 H63        19.9958  -29.3958  -43.5185 H         1 UNK         0.0903 
     64 H64        21.4555  -28.5157  -43.0792 H         1 UNK         0.0903 
     65 H65        18.1274  -28.1585  -43.5040 H         1 UNK         0.3096 
     66 H66        17.4229  -26.3162  -41.4647 H         1 UNK         0.1121 
     67 H67        15.4439  -25.8512  -42.9023 H         1 UNK         0.0849 
     68 H68        16.2037  -26.6357  -44.2613 H         1 UNK         0.0849 
     69 H69        14.5606  -29.9622  -44.0167 H         1 UNK         0.0865 
     70 H70        14.8730  -28.5246  -44.9434 H         1 UNK         0.0865 
     71 H71        16.6337  -31.2175  -42.9989 H         1 UNK         0.1346 
     72 H72        19.8102  -31.5814  -45.8525 H         1 UNK         0.1412 
     73 H73        16.8418  -28.5222  -46.3316 H         1 UNK         0.1426 
     74 H74        18.3136  -29.6705  -48.3280 H         1 UNK         0.0716 
     75 H75        19.8745  -30.2436  -47.8048 H         1 UNK         0.0716 
     76 H76        21.9147  -28.6309  -47.1577 H         1 UNK         0.0695 
     77 H77        21.0084  -28.5426  -45.6647 H         1 UNK         0.0695 
     78 H78        22.1440  -26.1465  -47.2289 H         1 UNK         0.0983 
     79 H79        19.9543  -26.1468  -45.6012 H         1 UNK         0.3095 
     80 H80        20.2050  -23.2369  -43.6731 H         1 UNK         0.0454 
     81 H81        19.4865  -22.3164  -45.9239 H         1 UNK         0.0851 
     82 H82        18.1101  -22.5986  -44.8766 H         1 UNK         0.0851 
     83 H83        18.4752  -23.7327  -46.1759 H         1 UNK         0.0851 
     84 H84        19.5307  -25.9039  -43.9423 H         1 UNK         0.2976 
     85 H85        24.1829  -27.2139  -47.1137 H         1 UNK         0.3116 
     86 H86        25.8734  -26.2483  -45.1579 H         1 UNK         0.0646 
     87 H87        26.3536  -28.5074  -47.1744 H         1 UNK         0.0847 
     88 H88        26.5641  -26.7811  -47.4757 H         1 UNK         0.0847 
     89 H89        27.6129  -27.6089  -46.3411 H         1 UNK         0.0847 
     90 H90        24.0345  -29.1252  -44.8285 H         1 UNK         0.3040 
     91 H91        25.7047  -30.5733  -42.9875 H         1 UNK         0.1015 
     92 H92        23.5511  -31.7651  -42.4536 H         1 UNK         0.0786 
     93 H93        23.8621  -31.6921  -44.1788 H         1 UNK         0.0786 
     94 H94        22.6749  -30.6140  -43.4520 H         1 UNK         0.0786 
     95 H95        23.7335  -27.7115  -42.6206 H         1 UNK         0.3172 
     96 H96        23.2027  -26.3702  -40.9176 H         1 UNK         0.0595 
     97 H97        25.9238  -27.3303  -39.8799 H         1 UNK         0.0839 
     98 H98        25.1205  -25.8366  -39.4163 H         1 UNK         0.0839 
     99 H99        25.6614  -26.0601  -41.0729 H         1 UNK         0.0839 
    100 H100       21.4753  -27.9689  -40.4598 H         1 UNK         0.2998 
    101 H101       20.0368  -29.0084  -39.2049 H         1 UNK         0.0822 
    102 H102       19.8800  -28.4284  -36.8120 H         1 UNK         0.0787 
    103 H103       20.3302  -27.0115  -37.7448 H         1 UNK         0.0787 
    104 H104       21.5441  -27.8697  -36.7951 H         1 UNK         0.0787 
    105 H105       23.2031  -30.2260  -39.0360 H         1 UNK         0.3055 
    106 H106       22.9735  -32.1706  -37.0137 H         1 UNK         0.1106 
    107 H107       25.1284  -31.4356  -38.0792 H         1 UNK         0.0828 
    108 H108       24.9649  -33.1847  -38.0584 H         1 UNK         0.0828 
    109 H109       24.6879  -32.3021  -39.5510 H         1 UNK         0.0828 
    110 H110       21.7170  -32.2513  -40.2795 H         1 UNK         0.2931 
    111 H111       21.0948  -35.1082  -40.2177 H         1 UNK         0.0412 
    112 H112       19.6034  -32.5514  -38.5638 H         1 UNK         0.3472 
    113 H113       17.9928  -33.2254  -38.5773 H         1 UNK         0.3472 
    114 H114       21.7683  -34.2204  -42.3519 H         1 UNK         0.0970 
    115 H115       20.1249  -34.7625  -42.4520 H         1 UNK         0.0970 
    116 H116       19.0580  -33.5182  -44.3241 H         1 UNK         0.0612 
    117 H117       18.0607  -33.1479  -42.9353 H         1 UNK         0.0612 
@<TRIPOS>BOND
     1    1    2 1    
     2    1   62 1    
     3    1   63 1    
     4    1   64 1    
     5    2    3 2    
     6    2    4 am   BACKBONE|DICT|INTERRES
     7    4    5 1    
     8    4   65 1    
     9    5    6 1    
    10    5   25 1    
    11    5   66 1    
    12    6    7 1    
    13    6   67 1    
    14    6   68 1    
    15    7    8 1    
    16    8    9 1    
    17    8   69 1    
    18    8   70 1    
    19    9   10 ar   
    20    9   14 ar   
    21   10   11 ar   
    22   10   71 1    
    23   11   12 ar   
    24   11   61 1    
    25   12   13 ar   
    26   12   72 1    
    27   13   14 ar   
    28   13   15 1    
    29   14   73 1    
    30   15   16 1    
    31   15   74 1    
    32   15   75 1    
    33   16   17 1    
    34   17   18 1    
    35   17   76 1    
    36   17   77 1    
    37   18   19 1    
    38   18   27 1    
    39   18   78 1    
    40   19   20 am   BACKBONE|DICT|INTERRES
    41   19   79 1    
    42   20   21 2    
    43   20   22 1    
    44   22   23 1    
    45   22   24 1    
    46   22   80 1    
    47   23   81 1    
    48   23   82 1    
    49   23   83 1    
    50   24   25 am   BACKBONE|DICT|INTERRES
    51   24   84 1    
    52   25   26 2    
    53   27   28 2    
    54   27   29 am   BACKBONE|DICT|INTERRES
    55   29   30 1    
    56   29   85 1    
    57   30   31 1    
    58   30   32 1    
    59   30   86 1    
    60   31   87 1    
    61   31   88 1    
    62   31   89 1    
    63   32   33 2    
    64   32   34 am   BACKBONE|DICT|INTERRES
    65   34   35 1    
    66   34   90 1    
    67   35   36 1    
    68   35   37 1    
    69   35   91 1    
    70   36   92 1    
    71   36   93 1    
    72   36   94 1    
    73   37   38 2    
    74   37   39 am   BACKBONE|DICT|INTERRES
    75   39   40 1    
    76   39   95 1    
    77   40   41 1    
    78   40   42 1    
    79   40   96 1    
    80   41   97 1    
    81   41   98 1    
    82   41   99 1    
    83   42   43 2    
    84   42   44 am   BACKBONE|DICT|INTERRES
    85   44   45 1    
    86   44  100 1    
    87   45   46 1    
    88   45   47 1    
    89   45  101 1    
    90   46  102 1    
    91   46  103 1    
    92   46  104 1    
    93   47   48 2    
    94   47   49 am   BACKBONE|DICT|INTERRES
    95   49   50 1    
    96   49  105 1    
    97   50   51 1    
    98   50   52 1    
    99   50  106 1    
   100   51  107 1    
   101   51  108 1    
   102   51  109 1    
   103   52   53 2    
   104   52   54 am   BACKBONE|DICT|INTERRES
   105   54   55 1    
   106   54  110 1    
   107   55   56 1    
   108   55   59 1    
   109   55  111 1    
   110   56   57 am   BACKBONE|DICT|INTERRES
   111   56   58 2    
   112   57  112 1    
   113   57  113 1    
   114   59   60 1    
   115   59  114 1    
   116   59  115 1    
   117   60   61 1    
   118   61  116 1    
   119   61  117 1    
@<TRIPOS>SUBSTRUCTURE
     1 UNK         1 GROUP             0       ****    0 ROOT    
