@<TRIPOS>MOLECULE
3R8
117   119    1
SMALL
USER_CHARGES


@<TRIPOS>ATOM
      1 CA         16.4647  -21.1751  -42.3050 C.3       0 UNK        -0.2013 
      2 C          17.0098  -22.0920  -43.3898 C.2       0 UNK         0.4866 
      3 O          17.5291  -21.6087  -44.3964 O.2       0 UNK        -0.5176 
      4 N          16.8901  -23.4119  -43.1982 N.am      1 UNK        -0.4884 
      5 CA         17.4193  -24.4365  -44.1000 C.3       1 UNK         0.0853 
      6 C6         16.7155  -25.7975  -43.8610 C.3       10 UNK        -0.0849 
      7 S7         17.1990  -27.0689  -45.0743 S.3       10 UNK        -0.2776 
      8 C8         16.3039  -28.5531  -44.4817 C.3       10 UNK         0.0316 
      9 C9         17.2072  -29.7835  -44.4756 C.ar      10 UNK        -0.0863 
     10 C10        17.3193  -30.5957  -43.3405 C.ar      10 UNK        -0.1009 
     11 C11        18.2093  -31.6768  -43.3253 C.ar      10 UNK        -0.0712 
     12 C12        19.0080  -31.9278  -44.4454 C.ar      10 UNK        -0.0894 
     13 C13        18.8962  -31.1297  -45.5863 C.ar      10 UNK        -0.0745 
     14 C14        17.9583  -30.0967  -45.6101 C.ar      10 UNK        -0.0972 
     15 C15        19.8047  -31.3555  -46.7850 C.3       10 UNK         0.0209 
     16 S16        21.4161  -30.5212  -46.5845 S.3       10 UNK        -0.2568 
     17 C17        20.9590  -28.7490  -46.5464 C.3       10 UNK        -0.0983 
     18 CA         21.5600  -27.9277  -45.3765 C.3       3 UNK         0.0876 
     19 N          21.1497  -26.5242  -45.4670 N.am      3 UNK        -0.4424 
     20 C          21.7982  -25.5112  -44.8789 C.2       2 UNK         0.4918 
     21 O          22.8352  -25.6500  -44.2322 O.2       2 UNK        -0.4875 
     22 CA         21.1646  -24.1151  -45.0051 C.3       2 UNK         0.0481 
     23 CB         21.6582  -23.4151  -46.2805 C.3       2 UNK        -0.1831 
     24 N          19.6971  -24.1329  -44.9885 N.am      2 UNK        -0.4498 
     25 C          18.9537  -24.5152  -43.9398 C.2       1 UNK         0.5027 
     26 O          19.4334  -24.9216  -42.8792 O.2       1 UNK        -0.4969 
     27 C          21.3077  -28.4997  -43.9583 C.2       3 UNK         0.5005 
     28 O          22.1134  -29.3052  -43.4937 O.2       3 UNK        -0.5279 
     29 N          20.2736  -28.0118  -43.2495 N.am      4 UNK        -0.4463 
     30 CA         20.0591  -28.3099  -41.8276 C.3       4 UNK         0.0283 
     31 CB         18.6543  -27.8846  -41.3758 C.3       4 UNK        -0.1875 
     32 C          21.1148  -27.6398  -40.9363 C.2       4 UNK         0.4949 
     33 O          21.6240  -28.2799  -40.0177 O.2       4 UNK        -0.5039 
     34 N          21.4469  -26.3744  -41.2357 N.am      5 UNK        -0.4663 
     35 CA         22.4792  -25.5951  -40.5407 C.3       5 UNK         0.0242 
     36 CB         22.4405  -24.1386  -41.0289 C.3       5 UNK        -0.1982 
     37 C          23.8946  -26.1858  -40.6863 C.2       5 UNK         0.5017 
     38 O          24.7023  -26.0503  -39.7671 O.2       5 UNK        -0.5012 
     39 N          24.1530  -26.8641  -41.8133 N.am      6 UNK        -0.4439 
     40 CA         25.3634  -27.6485  -42.0755 C.3       6 UNK         0.0297 
     41 CB         25.4639  -27.9238  -43.5851 C.3       6 UNK        -0.2006 
     42 C          25.4453  -28.9662  -41.2727 C.2       6 UNK         0.4892 
     43 O          26.5122  -29.5827  -41.2638 O.2       6 UNK        -0.5089 
     44 N          24.3472  -29.3615  -40.6094 N.am      7 UNK        -0.4243 
     45 CA         24.1753  -30.5562  -39.7775 C.3       7 UNK         0.0196 
     46 CB         25.1310  -30.5260  -38.5615 C.3       7 UNK        -0.2007 
     47 C          24.2295  -31.8680  -40.5866 C.2       7 UNK         0.5020 
     48 O          23.9504  -31.8650  -41.7860 O.2       7 UNK        -0.5147 
     49 N          24.5327  -32.9776  -39.8954 N.am      8 UNK        -0.4734 
     50 CA         24.5449  -34.3643  -40.3893 C.3       8 UNK         0.0238 
     51 CB         25.5859  -34.5550  -41.5145 C.3       8 UNK        -0.1912 
     52 C          23.1479  -34.9054  -40.7657 C.2       8 UNK         0.5038 
     53 O          23.0517  -35.8445  -41.5581 O.2       8 UNK        -0.5046 
     54 N          22.0953  -34.3308  -40.1668 N.am      9 UNK        -0.4200 
     55 CA         20.6969  -34.7745  -40.2992 C.3       9 UNK         0.0839 
     56 C          20.3609  -36.0791  -39.5176 C.2       9 UNK         0.5513 
     57 N          21.2173  -36.5683  -38.6281 N.am      9 UNK        -0.7519 
     58 O          19.3008  -36.6623  -39.7288 O.2       9 UNK        -0.4960 
     59 C59        19.7010  -33.6409  -39.9343 C.3       10 UNK        -0.0876 
     60 S60        19.7793  -32.2429  -41.1042 S.3       10 UNK        -0.2414 
     61 C61        18.3035  -32.5886  -42.1112 C.3       10 UNK         0.0169 
     62 H62        15.6980  -20.5201  -42.7177 H         1 UNK         0.0903 
     63 H63        16.0241  -21.7350  -41.4802 H         1 UNK         0.0903 
     64 H64        17.2644  -20.5532  -41.9034 H         1 UNK         0.0903 
     65 H65        16.4836  -23.7516  -42.3378 H         1 UNK         0.3096 
     66 H66        17.1928  -24.1288  -45.1238 H         1 UNK         0.1121 
     67 H67        16.9073  -26.1616  -42.8521 H         1 UNK         0.0849 
     68 H68        15.6341  -25.6683  -43.9330 H         1 UNK         0.0849 
     69 H69        15.8982  -28.3715  -43.4855 H         1 UNK         0.0865 
     70 H70        15.4488  -28.7385  -45.1330 H         1 UNK         0.0865 
     71 H71        16.7226  -30.3835  -42.4640 H         1 UNK         0.1346 
     72 H72        19.7236  -32.7385  -44.4238 H         1 UNK         0.1412 
     73 H73        17.8515  -29.4904  -46.4988 H         1 UNK         0.1426 
     74 H74        19.3275  -31.0043  -47.7013 H         1 UNK         0.0716 
     75 H75        19.9749  -32.4245  -46.9204 H         1 UNK         0.0716 
     76 H76        21.3011  -28.3204  -47.4897 H         1 UNK         0.0695 
     77 H77        19.8801  -28.6294  -46.5632 H         1 UNK         0.0695 
     78 H78        22.6440  -27.9514  -45.5129 H         1 UNK         0.0983 
     79 H79        20.3023  -26.3266  -45.9788 H         1 UNK         0.3095 
     80 H80        21.4959  -23.5248  -44.1486 H         1 UNK         0.0454 
     81 H81        21.3359  -23.9374  -47.1821 H         1 UNK         0.0851 
     82 H82        21.2933  -22.3894  -46.3371 H         1 UNK         0.0851 
     83 H83        22.7481  -23.3697  -46.3028 H         1 UNK         0.0851 
     84 H84        19.2306  -23.7839  -45.8140 H         1 UNK         0.2976 
     85 H85        19.6575  -27.3350  -43.6761 H         1 UNK         0.3116 
     86 H86        20.1402  -29.3906  -41.7009 H         1 UNK         0.0646 
     87 H87        18.4361  -28.2842  -40.3848 H         1 UNK         0.0847 
     88 H88        17.8848  -28.2536  -42.0472 H         1 UNK         0.0847 
     89 H89        18.5545  -26.8017  -41.3105 H         1 UNK         0.0847 
     90 H90        20.9250  -25.8990  -41.9661 H         1 UNK         0.3040 
     91 H91        22.2331  -25.6043  -39.4766 H         1 UNK         0.1015 
     92 H92        21.4477  -23.7041  -40.9090 H         1 UNK         0.0786 
     93 H93        22.7180  -24.0565  -42.0793 H         1 UNK         0.0786 
     94 H94        23.1369  -23.5203  -40.4608 H         1 UNK         0.0786 
     95 H95        23.4492  -26.8520  -42.5425 H         1 UNK         0.3172 
     96 H96        26.2237  -27.0415  -41.7863 H         1 UNK         0.0595 
     97 H97        26.3992  -28.4298  -43.8275 H         1 UNK         0.0839 
     98 H98        25.4364  -26.9995  -44.1628 H         1 UNK         0.0839 
     99 H99        24.6518  -28.5627  -43.9323 H         1 UNK         0.0839 
    100 H100       23.5080  -28.8012  -40.7090 H         1 UNK         0.2998 
    101 H101       23.1566  -30.4918  -39.3924 H         1 UNK         0.0822 
    102 H102       25.1147  -29.5509  -38.0742 H         1 UNK         0.0787 
    103 H103       24.8432  -31.2577  -37.8061 H         1 UNK         0.0787 
    104 H104       26.1623  -30.7347  -38.8491 H         1 UNK         0.0787 
    105 H105       24.7513  -32.8670  -38.9142 H         1 UNK         0.3055 
    106 H106       24.8716  -34.9770  -39.5475 H         1 UNK         0.1106 
    107 H107       25.2872  -34.0527  -42.4349 H         1 UNK         0.0828 
    108 H108       26.5623  -34.1685  -41.2226 H         1 UNK         0.0828 
    109 H109       25.7158  -35.6114  -41.7524 H         1 UNK         0.0828 
    110 H110       22.2621  -33.5596  -39.5391 H         1 UNK         0.2931 
    111 H111       20.5348  -35.0198  -41.3509 H         1 UNK         0.0412 
    112 H112       22.0887  -36.0996  -38.4411 H         1 UNK         0.3472 
    113 H113       20.9846  -37.4161  -38.1344 H         1 UNK         0.3472 
    114 H114       18.6751  -34.0142  -39.9074 H         1 UNK         0.0970 
    115 H115       19.9025  -33.2657  -38.9295 H         1 UNK         0.0970 
    116 H116       18.3313  -33.6273  -42.4447 H         1 UNK         0.0612 
    117 H117       17.4133  -32.4874  -41.4884 H         1 UNK         0.0612 
@<TRIPOS>BOND
     1    1    2 1    
     2    1   62 1    
     3    1   63 1    
     4    1   64 1    
     5    2    3 2    
     6    2    4 am   BACKBONE|DICT|INTERRES
     7    4    5 1    
     8    4   65 1    
     9    5    6 1    
    10    5   25 1    
    11    5   66 1    
    12    6    7 1    
    13    6   67 1    
    14    6   68 1    
    15    7    8 1    
    16    8    9 1    
    17    8   69 1    
    18    8   70 1    
    19    9   10 ar   
    20    9   14 ar   
    21   10   11 ar   
    22   10   71 1    
    23   11   12 ar   
    24   11   61 1    
    25   12   13 ar   
    26   12   72 1    
    27   13   14 ar   
    28   13   15 1    
    29   14   73 1    
    30   15   16 1    
    31   15   74 1    
    32   15   75 1    
    33   16   17 1    
    34   17   18 1    
    35   17   76 1    
    36   17   77 1    
    37   18   19 1    
    38   18   27 1    
    39   18   78 1    
    40   19   20 am   BACKBONE|DICT|INTERRES
    41   19   79 1    
    42   20   21 2    
    43   20   22 1    
    44   22   23 1    
    45   22   24 1    
    46   22   80 1    
    47   23   81 1    
    48   23   82 1    
    49   23   83 1    
    50   24   25 am   BACKBONE|DICT|INTERRES
    51   24   84 1    
    52   25   26 2    
    53   27   28 2    
    54   27   29 am   BACKBONE|DICT|INTERRES
    55   29   30 1    
    56   29   85 1    
    57   30   31 1    
    58   30   32 1    
    59   30   86 1    
    60   31   87 1    
    61   31   88 1    
    62   31   89 1    
    63   32   33 2    
    64   32   34 am   BACKBONE|DICT|INTERRES
    65   34   35 1    
    66   34   90 1    
    67   35   36 1    
    68   35   37 1    
    69   35   91 1    
    70   36   92 1    
    71   36   93 1    
    72   36   94 1    
    73   37   38 2    
    74   37   39 am   BACKBONE|DICT|INTERRES
    75   39   40 1    
    76   39   95 1    
    77   40   41 1    
    78   40   42 1    
    79   40   96 1    
    80   41   97 1    
    81   41   98 1    
    82   41   99 1    
    83   42   43 2    
    84   42   44 am   BACKBONE|DICT|INTERRES
    85   44   45 1    
    86   44  100 1    
    87   45   46 1    
    88   45   47 1    
    89   45  101 1    
    90   46  102 1    
    91   46  103 1    
    92   46  104 1    
    93   47   48 2    
    94   47   49 am   BACKBONE|DICT|INTERRES
    95   49   50 1    
    96   49  105 1    
    97   50   51 1    
    98   50   52 1    
    99   50  106 1    
   100   51  107 1    
   101   51  108 1    
   102   51  109 1    
   103   52   53 2    
   104   52   54 am   BACKBONE|DICT|INTERRES
   105   54   55 1    
   106   54  110 1    
   107   55   56 1    
   108   55   59 1    
   109   55  111 1    
   110   56   57 am   BACKBONE|DICT|INTERRES
   111   56   58 2    
   112   57  112 1    
   113   57  113 1    
   114   59   60 1    
   115   59  114 1    
   116   59  115 1    
   117   60   61 1    
   118   61  116 1    
   119   61  117 1    
@<TRIPOS>SUBSTRUCTURE
     1 UNK         1 GROUP             0       ****    0 ROOT    
