@<TRIPOS>MOLECULE
3R8
117   119    1
SMALL
USER_CHARGES


@<TRIPOS>ATOM
      1 CA         16.5507  -31.3534  -48.2059 C.3       0 UNK        -0.2013 
      2 C          17.1830  -30.5899  -47.0517 C.2       0 UNK         0.4866 
      3 O          18.2661  -30.9550  -46.5983 O.2       0 UNK        -0.5176 
      4 N          16.5102  -29.5382  -46.5698 N.am      1 UNK        -0.4884 
      5 CA         16.9728  -28.6622  -45.4869 C.3       1 UNK         0.0853 
      6 C6         15.8297  -27.7525  -44.9736 C.3       10 UNK        -0.0849 
      7 S7         14.4889  -28.7503  -44.2311 S.3       10 UNK        -0.2776 
      8 C8         14.5481  -28.2936  -42.4652 C.3       10 UNK         0.0316 
      9 C9         15.9549  -28.3252  -41.8805 C.ar      10 UNK        -0.0863 
     10 C10        16.6865  -29.5155  -41.8323 C.ar      10 UNK        -0.1009 
     11 C11        17.9879  -29.5316  -41.3176 C.ar      10 UNK        -0.0712 
     12 C12        18.5478  -28.3447  -40.8308 C.ar      10 UNK        -0.0894 
     13 C13        17.8125  -27.1548  -40.8437 C.ar      10 UNK        -0.0745 
     14 C14        16.5204  -27.1529  -41.3739 C.ar      10 UNK        -0.0972 
     15 C15        18.3822  -25.8735  -40.2517 C.3       10 UNK         0.0209 
     16 S16        18.6534  -24.6118  -41.5362 S.3       10 UNK        -0.2568 
     17 C17        20.4538  -24.3536  -41.4262 C.3       10 UNK        -0.0983 
     18 CA         21.2800  -25.5180  -42.0240 C.3       3 UNK         0.0876 
     19 N          20.8356  -25.8745  -43.3785 N.am      3 UNK        -0.4424 
     20 C          21.2560  -26.9283  -44.0872 C.2       2 UNK         0.4918 
     21 O          22.1471  -27.6950  -43.7186 O.2       2 UNK        -0.4875 
     22 CA         20.5254  -27.1698  -45.4108 C.3       2 UNK         0.0481 
     23 CB         21.3398  -28.0535  -46.3792 C.3       2 UNK        -0.1831 
     24 N          19.2342  -27.7854  -45.1120 N.am      2 UNK        -0.4498 
     25 C          18.1897  -27.8334  -45.9470 C.2       1 UNK         0.5027 
     26 O          18.1582  -27.2645  -47.0416 O.2       1 UNK        -0.4969 
     27 C          22.7880  -25.2100  -41.9076 C.2       3 UNK         0.5005 
     28 O          23.3341  -25.3013  -40.8079 O.2       3 UNK        -0.5279 
     29 N          23.4507  -24.8935  -43.0307 N.am      4 UNK        -0.4463 
     30 CA         24.9038  -24.7164  -43.1344 C.3       4 UNK         0.0283 
     31 CB         25.2557  -24.2474  -44.5552 C.3       4 UNK        -0.1875 
     32 C          25.7124  -25.9785  -42.7710 C.2       4 UNK         0.4949 
     33 O          26.8617  -25.8526  -42.3493 O.2       4 UNK        -0.5039 
     34 N          25.0962  -27.1608  -42.9115 N.am      5 UNK        -0.4663 
     35 CA         25.6492  -28.4526  -42.4980 C.3       5 UNK         0.0242 
     36 CB         25.2691  -29.5007  -43.5558 C.3       5 UNK        -0.1982 
     37 C          25.1690  -28.8770  -41.0944 C.2       5 UNK         0.5017 
     38 O          25.4052  -30.0215  -40.7037 O.2       5 UNK        -0.5012 
     39 N          24.5007  -27.9702  -40.3627 N.am      6 UNK        -0.4439 
     40 CA         23.8497  -28.1838  -39.0672 C.3       6 UNK         0.0297 
     41 CB         24.8921  -28.4700  -37.9608 C.3       6 UNK        -0.2006 
     42 C          22.7280  -29.2328  -39.1864 C.2       6 UNK         0.4892 
     43 O          21.9286  -29.1487  -40.1195 O.2       6 UNK        -0.5089 
     44 N          22.6808  -30.1957  -38.2565 N.am      7 UNK        -0.4243 
     45 CA         21.7230  -31.3046  -38.2561 C.3       7 UNK         0.0196 
     46 CB         21.7411  -31.9834  -36.8771 C.3       7 UNK        -0.2007 
     47 C          21.9800  -32.3399  -39.3668 C.2       7 UNK         0.5020 
     48 O          21.0585  -33.0700  -39.7296 O.2       7 UNK        -0.5147 
     49 N          23.2063  -32.3870  -39.9046 N.am      8 UNK        -0.4734 
     50 CA         23.6274  -33.3009  -40.9695 C.3       8 UNK         0.0238 
     51 CB         25.1192  -33.6336  -40.7761 C.3       8 UNK        -0.1912 
     52 C          23.3236  -32.7291  -42.3685 C.2       8 UNK         0.5038 
     53 O          24.1855  -32.7708  -43.2481 O.2       8 UNK        -0.5046 
     54 N          22.1068  -32.2009  -42.5498 N.am      9 UNK        -0.4200 
     55 CA         21.6157  -31.6182  -43.8072 C.3       9 UNK         0.0839 
     56 C          21.4456  -32.6249  -44.9830 C.2       9 UNK         0.5513 
     57 N          21.3022  -33.9209  -44.7290 N.am      9 UNK        -0.7519 
     58 O          21.4761  -32.2247  -46.1433 O.2       9 UNK        -0.4960 
     59 C59        20.3478  -30.7537  -43.5844 C.3       10 UNK        -0.0876 
     60 S60        18.9485  -31.6648  -42.8448 S.3       10 UNK        -0.2414 
     61 C61        18.7621  -30.8419  -41.2305 C.3       10 UNK         0.0169 
     62 H62        16.3915  -32.3939  -47.9241 H         1 UNK         0.0903 
     63 H63        15.5897  -30.9303  -48.4980 H         1 UNK         0.0903 
     64 H64        17.2089  -31.3323  -49.0740 H         1 UNK         0.0903 
     65 H65        15.6260  -29.2814  -46.9845 H         1 UNK         0.3096 
     66 H66        17.2954  -29.3054  -44.6645 H         1 UNK         0.1121 
     67 H67        15.4114  -27.1624  -45.7912 H         1 UNK         0.0849 
     68 H68        16.2008  -27.0283  -44.2467 H         1 UNK         0.0849 
     69 H69        14.1036  -27.3037  -42.3499 H         1 UNK         0.0865 
     70 H70        13.9125  -28.9779  -41.9016 H         1 UNK         0.0865 
     71 H71        16.2451  -30.4300  -42.2053 H         1 UNK         0.1346 
     72 H72        19.5446  -28.3530  -40.4137 H         1 UNK         0.1412 
     73 H73        15.9559  -26.2302  -41.3888 H         1 UNK         0.1426 
     74 H74        19.3064  -26.0757  -39.7085 H         1 UNK         0.0716 
     75 H75        17.6808  -25.4781  -39.5156 H         1 UNK         0.0716 
     76 H76        20.6818  -23.4210  -41.9462 H         1 UNK         0.0695 
     77 H77        20.7173  -24.1877  -40.3794 H         1 UNK         0.0695 
     78 H78        21.1119  -26.4026  -41.4054 H         1 UNK         0.0983 
     79 H79        20.0779  -25.3156  -43.7451 H         1 UNK         0.3095 
     80 H80        20.3607  -26.1991  -45.8834 H         1 UNK         0.0454 
     81 H81        22.3221  -27.6196  -46.5695 H         1 UNK         0.0851 
     82 H82        21.4994  -29.0559  -45.9811 H         1 UNK         0.0851 
     83 H83        20.8413  -28.1556  -47.3430 H         1 UNK         0.0851 
     84 H84        19.1620  -28.2263  -44.2049 H         1 UNK         0.2976 
     85 H85        22.9225  -24.8310  -43.8889 H         1 UNK         0.3116 
     86 H86        25.1918  -23.9313  -42.4321 H         1 UNK         0.0646 
     87 H87        26.3290  -24.0794  -44.6554 H         1 UNK         0.0847 
     88 H88        24.7600  -23.3077  -44.7992 H         1 UNK         0.0847 
     89 H89        24.9710  -24.9849  -45.3067 H         1 UNK         0.0847 
     90 H90        24.1397  -27.1795  -43.2514 H         1 UNK         0.3040 
     91 H91        26.7391  -28.3958  -42.4560 H         1 UNK         0.1015 
     92 H92        25.6202  -29.2131  -44.5468 H         1 UNK         0.0786 
     93 H93        24.1894  -29.6354  -43.6077 H         1 UNK         0.0786 
     94 H94        25.7103  -30.4714  -43.3261 H         1 UNK         0.0786 
     95 H95        24.3238  -27.0598  -40.7746 H         1 UNK         0.3172 
     96 H96        23.3562  -27.2438  -38.8172 H         1 UNK         0.0595 
     97 H97        25.6586  -27.6952  -37.9404 H         1 UNK         0.0839 
     98 H98        25.3983  -29.4255  -38.1027 H         1 UNK         0.0839 
     99 H99        24.4302  -28.4792  -36.9728 H         1 UNK         0.0839 
    100 H100       23.3750  -30.1919  -37.5231 H         1 UNK         0.2998 
    101 H101       20.7252  -30.8918  -38.4204 H         1 UNK         0.0822 
    102 H102       21.4853  -31.2801  -36.0843 H         1 UNK         0.0787 
    103 H103       21.0143  -32.7961  -36.8330 H         1 UNK         0.0787 
    104 H104       22.7192  -32.4087  -36.6484 H         1 UNK         0.0787 
    105 H105       23.8862  -31.6944  -39.6186 H         1 UNK         0.3055 
    106 H106       23.0685  -34.2357  -40.8838 H         1 UNK         0.1106 
    107 H107       25.7470  -32.7488  -40.8881 H         1 UNK         0.0828 
    108 H108       25.3076  -34.0565  -39.7893 H         1 UNK         0.0828 
    109 H109       25.4559  -34.3673  -41.5097 H         1 UNK         0.0828 
    110 H110       21.4462  -32.2391  -41.7848 H         1 UNK         0.2931 
    111 H111       22.3912  -30.9281  -44.1414 H         1 UNK         0.0412 
    112 H112       21.2042  -34.5670  -45.4962 H         1 UNK         0.3472 
    113 H113       21.2691  -34.2540  -43.7791 H         1 UNK         0.3472 
    114 H114       20.0114  -30.3373  -44.5340 H         1 UNK         0.0970 
    115 H115       20.5991  -29.8982  -42.9551 H         1 UNK         0.0970 
    116 H116       19.7473  -30.6882  -40.7895 H         1 UNK         0.0612 
    117 H117       18.2292  -31.5156  -40.5584 H         1 UNK         0.0612 
@<TRIPOS>BOND
     1    1    2 1    
     2    1   62 1    
     3    1   63 1    
     4    1   64 1    
     5    2    3 2    
     6    2    4 am   BACKBONE|DICT|INTERRES
     7    4    5 1    
     8    4   65 1    
     9    5    6 1    
    10    5   25 1    
    11    5   66 1    
    12    6    7 1    
    13    6   67 1    
    14    6   68 1    
    15    7    8 1    
    16    8    9 1    
    17    8   69 1    
    18    8   70 1    
    19    9   10 ar   
    20    9   14 ar   
    21   10   11 ar   
    22   10   71 1    
    23   11   12 ar   
    24   11   61 1    
    25   12   13 ar   
    26   12   72 1    
    27   13   14 ar   
    28   13   15 1    
    29   14   73 1    
    30   15   16 1    
    31   15   74 1    
    32   15   75 1    
    33   16   17 1    
    34   17   18 1    
    35   17   76 1    
    36   17   77 1    
    37   18   19 1    
    38   18   27 1    
    39   18   78 1    
    40   19   20 am   BACKBONE|DICT|INTERRES
    41   19   79 1    
    42   20   21 2    
    43   20   22 1    
    44   22   23 1    
    45   22   24 1    
    46   22   80 1    
    47   23   81 1    
    48   23   82 1    
    49   23   83 1    
    50   24   25 am   BACKBONE|DICT|INTERRES
    51   24   84 1    
    52   25   26 2    
    53   27   28 2    
    54   27   29 am   BACKBONE|DICT|INTERRES
    55   29   30 1    
    56   29   85 1    
    57   30   31 1    
    58   30   32 1    
    59   30   86 1    
    60   31   87 1    
    61   31   88 1    
    62   31   89 1    
    63   32   33 2    
    64   32   34 am   BACKBONE|DICT|INTERRES
    65   34   35 1    
    66   34   90 1    
    67   35   36 1    
    68   35   37 1    
    69   35   91 1    
    70   36   92 1    
    71   36   93 1    
    72   36   94 1    
    73   37   38 2    
    74   37   39 am   BACKBONE|DICT|INTERRES
    75   39   40 1    
    76   39   95 1    
    77   40   41 1    
    78   40   42 1    
    79   40   96 1    
    80   41   97 1    
    81   41   98 1    
    82   41   99 1    
    83   42   43 2    
    84   42   44 am   BACKBONE|DICT|INTERRES
    85   44   45 1    
    86   44  100 1    
    87   45   46 1    
    88   45   47 1    
    89   45  101 1    
    90   46  102 1    
    91   46  103 1    
    92   46  104 1    
    93   47   48 2    
    94   47   49 am   BACKBONE|DICT|INTERRES
    95   49   50 1    
    96   49  105 1    
    97   50   51 1    
    98   50   52 1    
    99   50  106 1    
   100   51  107 1    
   101   51  108 1    
   102   51  109 1    
   103   52   53 2    
   104   52   54 am   BACKBONE|DICT|INTERRES
   105   54   55 1    
   106   54  110 1    
   107   55   56 1    
   108   55   59 1    
   109   55  111 1    
   110   56   57 am   BACKBONE|DICT|INTERRES
   111   56   58 2    
   112   57  112 1    
   113   57  113 1    
   114   59   60 1    
   115   59  114 1    
   116   59  115 1    
   117   60   61 1    
   118   61  116 1    
   119   61  117 1    
@<TRIPOS>SUBSTRUCTURE
     1 UNK         1 GROUP             0       ****    0 ROOT    
