@<TRIPOS>MOLECULE
3R8
117   119    1
SMALL
USER_CHARGES


@<TRIPOS>ATOM
      1 CA         17.5064  -23.3503  -49.1391 C.3       0 UNK        -0.2013 
      2 C          18.5911  -24.0900  -48.3701 C.2       0 UNK         0.4866 
      3 O          19.7368  -23.6391  -48.3409 O.2       0 UNK        -0.5176 
      4 N          18.2424  -25.2265  -47.7538 N.am      1 UNK        -0.4884 
      5 CA         19.1383  -26.0257  -46.9121 C.3       1 UNK         0.0853 
      6 C6         18.5745  -27.4547  -46.7016 C.3       10 UNK        -0.0849 
      7 S7         19.8826  -28.6651  -46.3195 S.3       10 UNK        -0.2776 
      8 C8         18.9076  -30.1739  -46.0274 C.3       10 UNK         0.0316 
      9 C9         18.4758  -30.3017  -44.5731 C.ar      10 UNK        -0.0863 
     10 C10        19.3048  -30.9522  -43.6550 C.ar      10 UNK        -0.1009 
     11 C11        18.9119  -31.1084  -42.3225 C.ar      10 UNK        -0.0712 
     12 C12        17.6709  -30.6160  -41.9118 C.ar      10 UNK        -0.0894 
     13 C13        16.8449  -29.9342  -42.8127 C.ar      10 UNK        -0.0745 
     14 C14        17.2469  -29.7909  -44.1450 C.ar      10 UNK        -0.0972 
     15 C15        15.5350  -29.3220  -42.3364 C.3       10 UNK         0.0209 
     16 S16        15.7949  -28.1092  -40.9989 S.3       10 UNK        -0.2568 
     17 C17        16.8339  -26.8421  -41.8112 C.3       10 UNK        -0.0983 
     18 CA         18.3619  -27.0857  -41.6881 C.3       3 UNK         0.0876 
     19 N          19.1162  -26.0956  -42.4513 N.am      3 UNK        -0.4424 
     20 C          20.4395  -26.0972  -42.6529 C.2       2 UNK         0.4918 
     21 O          21.2189  -26.9147  -42.1562 O.2       2 UNK        -0.4875 
     22 CA         20.9451  -25.0426  -43.6535 C.3       2 UNK         0.0481 
     23 CB         22.4616  -24.8003  -43.5610 C.3       2 UNK        -0.1831 
     24 N          20.5959  -25.4651  -45.0117 N.am      2 UNK        -0.4498 
     25 C          19.3811  -25.3236  -45.5604 C.2       1 UNK         0.5027 
     26 O          18.4536  -24.7187  -45.0127 O.2       1 UNK        -0.4969 
     27 C          18.8502  -27.1731  -40.2289 C.2       3 UNK         0.5005 
     28 O          18.8484  -26.1631  -39.5212 O.2       3 UNK        -0.5279 
     29 N          19.2770  -28.3826  -39.8375 N.am      4 UNK        -0.4463 
     30 CA         19.8231  -28.7763  -38.5338 C.3       4 UNK         0.0283 
     31 CB         18.7953  -28.5412  -37.4069 C.3       4 UNK        -0.1875 
     32 C          21.2007  -28.1669  -38.2020 C.2       4 UNK         0.4949 
     33 O          21.6691  -28.3506  -37.0777 O.2       4 UNK        -0.5039 
     34 N          21.8389  -27.4705  -39.1553 N.am      5 UNK        -0.4663 
     35 CA         23.1430  -26.8374  -38.9561 C.3       5 UNK         0.0242 
     36 CB         23.2992  -25.6372  -39.9035 C.3       5 UNK        -0.1982 
     37 C          24.2929  -27.8352  -39.1431 C.2       5 UNK         0.5017 
     38 O          25.1402  -27.9412  -38.2562 O.2       5 UNK        -0.5012 
     39 N          24.2967  -28.5389  -40.2854 N.am      6 UNK        -0.4439 
     40 CA         25.3304  -29.4991  -40.6949 C.3       6 UNK         0.0297 
     41 CB         26.7342  -28.8532  -40.7458 C.3       6 UNK        -0.2006 
     42 C          25.0372  -30.1210  -42.0669 C.2       6 UNK         0.4892 
     43 O          25.3593  -31.2945  -42.2516 O.2       6 UNK        -0.5089 
     44 N          24.4632  -29.3235  -42.9860 N.am      7 UNK        -0.4243 
     45 CA         24.3362  -29.5360  -44.4403 C.3       7 UNK         0.0196 
     46 CB         23.2440  -28.6054  -44.9907 C.3       7 UNK        -0.2007 
     47 C          24.1138  -30.9760  -44.9373 C.2       7 UNK         0.5020 
     48 O          24.8115  -31.4135  -45.8530 O.2       7 UNK        -0.5147 
     49 N          23.1786  -31.6905  -44.3079 N.am      8 UNK        -0.4734 
     50 CA         22.9893  -33.1342  -44.4667 C.3       8 UNK         0.0238 
     51 CB         21.9822  -33.4202  -45.5989 C.3       8 UNK        -0.1912 
     52 C          22.5760  -33.7355  -43.1152 C.2       8 UNK         0.5038 
     53 O          21.7144  -34.6151  -43.0714 O.2       8 UNK        -0.5046 
     54 N          23.1540  -33.1946  -42.0349 N.am      9 UNK        -0.4200 
     55 CA         22.6921  -33.3711  -40.6494 C.3       9 UNK         0.0839 
     56 C          23.6791  -34.1779  -39.7610 C.2       9 UNK         0.5513 
     57 N          24.7949  -34.6708  -40.2850 N.am      9 UNK        -0.7519 
     58 O          23.4214  -34.3732  -38.5762 O.2       9 UNK        -0.4960 
     59 C59        22.3098  -32.0107  -39.9923 C.3       10 UNK        -0.0876 
     60 S60        21.3627  -30.8728  -41.0680 S.3       10 UNK        -0.2414 
     61 C61        19.8280  -31.8150  -41.3356 C.3       10 UNK         0.0169 
     62 H62        16.5503  -23.8721  -49.1007 H         1 UNK         0.0903 
     63 H63        17.3655  -22.3533  -48.7225 H         1 UNK         0.0903 
     64 H64        17.7930  -23.2454  -50.1852 H         1 UNK         0.0903 
     65 H65        17.2786  -25.5282  -47.7811 H         1 UNK         0.3096 
     66 H66        20.0924  -26.0987  -47.4401 H         1 UNK         0.1121 
     67 H67        17.8089  -27.4727  -45.9235 H         1 UNK         0.0849 
     68 H68        18.0847  -27.8005  -47.6136 H         1 UNK         0.0849 
     69 H69        18.0402  -30.1957  -46.6889 H         1 UNK         0.0865 
     70 H70        19.5150  -31.0369  -46.3046 H         1 UNK         0.0865 
     71 H71        20.2626  -31.3352  -43.9751 H         1 UNK         0.1346 
     72 H72        17.3554  -30.7328  -40.8836 H         1 UNK         0.1412 
     73 H73        16.6061  -29.2770  -44.8482 H         1 UNK         0.1426 
     74 H74        14.8828  -30.1168  -41.9723 H         1 UNK         0.0716 
     75 H75        15.0043  -28.8380  -43.1578 H         1 UNK         0.0716 
     76 H76        16.5749  -25.8732  -41.3805 H         1 UNK         0.0695 
     77 H77        16.5495  -26.7864  -42.8634 H         1 UNK         0.0695 
     78 H78        18.5921  -28.0327  -42.1746 H         1 UNK         0.0983 
     79 H79        18.5710  -25.4050  -42.9522 H         1 UNK         0.3095 
     80 H80        20.4496  -24.0947  -43.4322 H         1 UNK         0.0454 
     81 H81        23.0358  -25.7193  -43.6671 H         1 UNK         0.0851 
     82 H82        22.7208  -24.3630  -42.5970 H         1 UNK         0.0851 
     83 H83        22.7998  -24.1032  -44.3276 H         1 UNK         0.0851 
     84 H84        21.2834  -26.0233  -45.4975 H         1 UNK         0.2976 
     85 H85        19.2813  -29.1195  -40.5306 H         1 UNK         0.3116 
     86 H86        19.9859  -29.8528  -38.5963 H         1 UNK         0.0646 
     87 H87        18.6365  -27.4796  -37.2163 H         1 UNK         0.0847 
     88 H88        19.1312  -28.9892  -36.4710 H         1 UNK         0.0847 
     89 H89        17.8307  -28.9871  -37.6491 H         1 UNK         0.0847 
     90 H90        21.4055  -27.3637  -40.0657 H         1 UNK         0.3040 
     91 H91        23.1950  -26.4547  -37.9337 H         1 UNK         0.1015 
     92 H92        22.4656  -24.9412  -39.8067 H         1 UNK         0.0786 
     93 H93        23.3595  -25.9482  -40.9456 H         1 UNK         0.0786 
     94 H94        24.2125  -25.0844  -39.6798 H         1 UNK         0.0786 
     95 H95        23.4951  -28.4493  -40.8953 H         1 UNK         0.3172 
     96 H96        25.3448  -30.3083  -39.9623 H         1 UNK         0.0595 
     97 H97        26.7392  -27.9456  -41.3503 H         1 UNK         0.0839 
     98 H98        27.4664  -29.5364  -41.1794 H         1 UNK         0.0839 
     99 H99        27.1052  -28.5973  -39.7542 H         1 UNK         0.0839 
    100 H100       24.2681  -28.3776  -42.6953 H         1 UNK         0.2998 
    101 H101       25.2863  -29.2147  -44.8716 H         1 UNK         0.0822 
    102 H102       23.5468  -27.5621  -44.9233 H         1 UNK         0.0787 
    103 H103       23.0421  -28.8079  -46.0438 H         1 UNK         0.0787 
    104 H104       22.3045  -28.7221  -44.4481 H         1 UNK         0.0787 
    105 H105       22.6681  -31.2533  -43.5515 H         1 UNK         0.3055 
    106 H106       23.9429  -33.5997  -44.7268 H         1 UNK         0.1106 
    107 H107       21.8897  -34.4925  -45.7758 H         1 UNK         0.0828 
    108 H108       20.9874  -33.0437  -45.3633 H         1 UNK         0.0828 
    109 H109       22.2996  -32.9656  -46.5374 H         1 UNK         0.0828 
    110 H110       23.9102  -32.5271  -42.1651 H         1 UNK         0.2931 
    111 H111       21.7860  -33.9784  -40.6571 H         1 UNK         0.0412 
    112 H112       25.4260  -35.1977  -39.7015 H         1 UNK         0.3472 
    113 H113       25.0117  -34.5200  -41.2575 H         1 UNK         0.3472 
    114 H114       21.7353  -32.1814  -39.0801 H         1 UNK         0.0970 
    115 H115       23.2089  -31.4788  -39.6784 H         1 UNK         0.0970 
    116 H116       19.3304  -31.9665  -40.3765 H         1 UNK         0.0612 
    117 H117       20.0583  -32.8052  -41.7271 H         1 UNK         0.0612 
@<TRIPOS>BOND
     1    1    2 1    
     2    1   62 1    
     3    1   63 1    
     4    1   64 1    
     5    2    3 2    
     6    2    4 am   BACKBONE|DICT|INTERRES
     7    4    5 1    
     8    4   65 1    
     9    5    6 1    
    10    5   25 1    
    11    5   66 1    
    12    6    7 1    
    13    6   67 1    
    14    6   68 1    
    15    7    8 1    
    16    8    9 1    
    17    8   69 1    
    18    8   70 1    
    19    9   10 ar   
    20    9   14 ar   
    21   10   11 ar   
    22   10   71 1    
    23   11   12 ar   
    24   11   61 1    
    25   12   13 ar   
    26   12   72 1    
    27   13   14 ar   
    28   13   15 1    
    29   14   73 1    
    30   15   16 1    
    31   15   74 1    
    32   15   75 1    
    33   16   17 1    
    34   17   18 1    
    35   17   76 1    
    36   17   77 1    
    37   18   19 1    
    38   18   27 1    
    39   18   78 1    
    40   19   20 am   BACKBONE|DICT|INTERRES
    41   19   79 1    
    42   20   21 2    
    43   20   22 1    
    44   22   23 1    
    45   22   24 1    
    46   22   80 1    
    47   23   81 1    
    48   23   82 1    
    49   23   83 1    
    50   24   25 am   BACKBONE|DICT|INTERRES
    51   24   84 1    
    52   25   26 2    
    53   27   28 2    
    54   27   29 am   BACKBONE|DICT|INTERRES
    55   29   30 1    
    56   29   85 1    
    57   30   31 1    
    58   30   32 1    
    59   30   86 1    
    60   31   87 1    
    61   31   88 1    
    62   31   89 1    
    63   32   33 2    
    64   32   34 am   BACKBONE|DICT|INTERRES
    65   34   35 1    
    66   34   90 1    
    67   35   36 1    
    68   35   37 1    
    69   35   91 1    
    70   36   92 1    
    71   36   93 1    
    72   36   94 1    
    73   37   38 2    
    74   37   39 am   BACKBONE|DICT|INTERRES
    75   39   40 1    
    76   39   95 1    
    77   40   41 1    
    78   40   42 1    
    79   40   96 1    
    80   41   97 1    
    81   41   98 1    
    82   41   99 1    
    83   42   43 2    
    84   42   44 am   BACKBONE|DICT|INTERRES
    85   44   45 1    
    86   44  100 1    
    87   45   46 1    
    88   45   47 1    
    89   45  101 1    
    90   46  102 1    
    91   46  103 1    
    92   46  104 1    
    93   47   48 2    
    94   47   49 am   BACKBONE|DICT|INTERRES
    95   49   50 1    
    96   49  105 1    
    97   50   51 1    
    98   50   52 1    
    99   50  106 1    
   100   51  107 1    
   101   51  108 1    
   102   51  109 1    
   103   52   53 2    
   104   52   54 am   BACKBONE|DICT|INTERRES
   105   54   55 1    
   106   54  110 1    
   107   55   56 1    
   108   55   59 1    
   109   55  111 1    
   110   56   57 am   BACKBONE|DICT|INTERRES
   111   56   58 2    
   112   57  112 1    
   113   57  113 1    
   114   59   60 1    
   115   59  114 1    
   116   59  115 1    
   117   60   61 1    
   118   61  116 1    
   119   61  117 1    
@<TRIPOS>SUBSTRUCTURE
     1 UNK         1 GROUP             0       ****    0 ROOT    
