@<TRIPOS>MOLECULE
3R8
117   119    1
SMALL
USER_CHARGES


@<TRIPOS>ATOM
      1 CA         14.2783  -22.9327  -45.1775 C.3       0 UNK        -0.2013 
      2 C          15.0737  -24.0886  -45.7658 C.2       0 UNK         0.4866 
      3 O          14.6123  -24.7337  -46.7079 O.2       0 UNK        -0.5176 
      4 N          16.2647  -24.3523  -45.2214 N.am      1 UNK        -0.4884 
      5 CA         17.1663  -25.4247  -45.6383 C.3       1 UNK         0.0853 
      6 C6         16.7926  -26.8153  -45.0496 C.3       10 UNK        -0.0849 
      7 S7         16.3309  -26.8172  -43.2766 S.3       10 UNK        -0.2776 
      8 C8         15.9491  -28.5752  -42.9850 C.3       10 UNK         0.0316 
      9 C9         17.2179  -29.3765  -42.7412 C.ar      10 UNK        -0.0863 
     10 C10        17.7046  -29.5555  -41.4426 C.ar      10 UNK        -0.1009 
     11 C11        18.9091  -30.2326  -41.2218 C.ar      10 UNK        -0.0712 
     12 C12        19.6300  -30.7217  -42.3153 C.ar      10 UNK        -0.0894 
     13 C13        19.1352  -30.5765  -43.6141 C.ar      10 UNK        -0.0745 
     14 C14        17.9203  -29.9198  -43.8178 C.ar      10 UNK        -0.0972 
     15 C15        19.8988  -31.1239  -44.8073 C.3       10 UNK         0.0209 
     16 S16        20.5281  -29.7886  -45.8716 S.3       10 UNK        -0.2568 
     17 C17        22.1125  -29.3491  -45.0736 C.3       10 UNK        -0.0983 
     18 CA         22.1592  -27.9457  -44.4035 C.3       3 UNK         0.0876 
     19 N          21.4663  -26.9245  -45.1979 N.am      3 UNK        -0.4424 
     20 C          21.7784  -25.6236  -45.2421 C.2       2 UNK         0.4918 
     21 O          22.6859  -25.1154  -44.5843 O.2       2 UNK        -0.4875 
     22 CA         20.9241  -24.7404  -46.1657 C.3       2 UNK         0.0481 
     23 CB         21.5444  -24.6848  -47.5709 C.3       2 UNK        -0.1831 
     24 N          19.5278  -25.1823  -46.2659 N.am      2 UNK        -0.4498 
     25 C          18.6054  -24.9906  -45.3113 C.2       1 UNK         0.5027 
     26 O          18.8508  -24.4683  -44.2216 O.2       1 UNK        -0.4969 
     27 C          21.7543  -27.9629  -42.9113 C.2       3 UNK         0.5005 
     28 O          22.2683  -28.8016  -42.1645 O.2       3 UNK        -0.5279 
     29 N          20.8934  -27.0175  -42.4956 N.am      4 UNK        -0.4463 
     30 CA         20.3755  -26.8183  -41.1370 C.3       4 UNK         0.0283 
     31 CB         19.4524  -25.5914  -41.1192 C.3       4 UNK        -0.1875 
     32 C          21.4418  -26.6857  -40.0386 C.2       4 UNK         0.4949 
     33 O          21.1757  -27.0637  -38.8984 O.2       4 UNK        -0.5039 
     34 N          22.6434  -26.2108  -40.3936 N.am      5 UNK        -0.4663 
     35 CA         23.8239  -26.1148  -39.5252 C.3       5 UNK         0.0242 
     36 CB         24.7936  -25.0830  -40.1316 C.3       5 UNK        -0.1982 
     37 C          24.5075  -27.4777  -39.2579 C.2       5 UNK         0.5017 
     38 O          25.7349  -27.5376  -39.1714 O.2       5 UNK        -0.5012 
     39 N          23.7017  -28.5436  -39.1412 N.am      6 UNK        -0.4439 
     40 CA         24.0647  -29.9455  -38.9088 C.3       6 UNK         0.0297 
     41 CB         24.6148  -30.1290  -37.4788 C.3       6 UNK        -0.2006 
     42 C          24.9958  -30.5371  -39.9874 C.2       6 UNK         0.4892 
     43 O          25.8364  -31.3797  -39.6679 O.2       6 UNK        -0.5089 
     44 N          24.8434  -30.0880  -41.2420 N.am      7 UNK        -0.4243 
     45 CA         25.7277  -30.4716  -42.3471 C.3       7 UNK         0.0196 
     46 CB         25.7009  -29.3846  -43.4313 C.3       7 UNK        -0.2007 
     47 C          25.3773  -31.8421  -42.9469 C.2       7 UNK         0.5020 
     48 O          26.2824  -32.5669  -43.3605 O.2       7 UNK        -0.5147 
     49 N          24.0808  -32.1723  -42.9893 N.am      8 UNK        -0.4734 
     50 CA         23.5541  -33.4209  -43.5521 C.3       8 UNK         0.0238 
     51 CB         23.4772  -33.3189  -45.0909 C.3       8 UNK        -0.1912 
     52 C          22.2088  -33.7897  -42.9047 C.2       8 UNK         0.5038 
     53 O          21.3123  -34.2870  -43.5875 O.2       8 UNK        -0.5046 
     54 N          22.0764  -33.4934  -41.6062 N.am      9 UNK        -0.4200 
     55 CA         20.8627  -33.7223  -40.8090 C.3       9 UNK         0.0839 
     56 C          20.6187  -35.2212  -40.4797 C.2       9 UNK         0.5513 
     57 N          19.3917  -35.5832  -40.1333 N.am      9 UNK        -0.7519 
     58 O          21.5295  -36.0472  -40.5015 O.2       9 UNK        -0.4960 
     59 C59        20.8717  -32.8300  -39.5367 C.3       10 UNK        -0.0876 
     60 S60        19.2473  -32.0812  -39.1706 S.3       10 UNK        -0.2414 
     61 C61        19.4515  -30.3836  -39.8070 C.3       10 UNK         0.0169 
     62 H62        14.0901  -22.1788  -45.9414 H         1 UNK         0.0903 
     63 H63        13.3180  -23.2896  -44.8062 H         1 UNK         0.0903 
     64 H64        14.8043  -22.4549  -44.3512 H         1 UNK         0.0903 
     65 H65        16.6215  -23.7934  -44.4561 H         1 UNK         0.3096 
     66 H66        17.1036  -25.5016  -46.7266 H         1 UNK         0.1121 
     67 H67        17.6075  -27.5214  -45.2121 H         1 UNK         0.0849 
     68 H68        15.9425  -27.2136  -45.6056 H         1 UNK         0.0849 
     69 H69        15.2898  -28.6532  -42.1192 H         1 UNK         0.0865 
     70 H70        15.3906  -28.9835  -43.8288 H         1 UNK         0.0865 
     71 H71        17.1584  -29.1428  -40.6054 H         1 UNK         0.1346 
     72 H72        20.5810  -31.2057  -42.1535 H         1 UNK         0.1412 
     73 H73        17.5406  -29.8051  -44.8236 H         1 UNK         0.1426 
     74 H74        19.2292  -31.7535  -45.3950 H         1 UNK         0.0716 
     75 H75        20.7177  -31.7679  -44.4911 H         1 UNK         0.0716 
     76 H76        22.4131  -30.1383  -44.3835 H         1 UNK         0.0695 
     77 H77        22.8625  -29.3750  -45.8655 H         1 UNK         0.0695 
     78 H78        23.2115  -27.6558  -44.3803 H         1 UNK         0.0983 
     79 H79        20.7056  -27.2662  -45.7679 H         1 UNK         0.3095 
     80 H80        20.9347  -23.7280  -45.7556 H         1 UNK         0.0454 
     81 H81        20.9999  -23.9977  -48.2187 H         1 UNK         0.0851 
     82 H82        22.5768  -24.3345  -47.5276 H         1 UNK         0.0851 
     83 H83        21.5537  -25.6642  -48.0509 H         1 UNK         0.0851 
     84 H84        19.2511  -25.6073  -47.1400 H         1 UNK         0.2976 
     85 H85        20.5441  -26.3757  -43.1929 H         1 UNK         0.3116 
     86 H86        19.7748  -27.6914  -40.8912 H         1 UNK         0.0646 
     87 H87        19.9782  -24.6843  -41.4199 H         1 UNK         0.0847 
     88 H88        19.0449  -25.4195  -40.1219 H         1 UNK         0.0847 
     89 H89        18.6054  -25.7242  -41.7903 H         1 UNK         0.0847 
     90 H90        22.7767  -25.9557  -41.3617 H         1 UNK         0.3040 
     91 H91        23.5014  -25.7363  -38.5526 H         1 UNK         0.1015 
     92 H92        24.3061  -24.1195  -40.2817 H         1 UNK         0.0786 
     93 H93        25.1845  -25.4161  -41.0940 H         1 UNK         0.0786 
     94 H94        25.6468  -24.9094  -39.4743 H         1 UNK         0.0786 
     95 H95        22.7077  -28.3521  -39.2072 H         1 UNK         0.3172 
     96 H96        23.1334  -30.5055  -38.9729 H         1 UNK         0.0595 
     97 H97        23.9283  -29.7263  -36.7341 H         1 UNK         0.0839 
     98 H98        25.5777  -29.6332  -37.3506 H         1 UNK         0.0839 
     99 H99        24.7589  -31.1846  -37.2450 H         1 UNK         0.0839 
    100 H100       24.0908  -29.4365  -41.4441 H         1 UNK         0.2998 
    101 H101       26.7501  -30.5301  -41.9662 H         1 UNK         0.0822 
    102 H102       24.7292  -29.3298  -43.9162 H         1 UNK         0.0787 
    103 H103       25.9324  -28.4020  -43.0192 H         1 UNK         0.0787 
    104 H104       26.4377  -29.5940  -44.2080 H         1 UNK         0.0787 
    105 H105       23.4034  -31.5145  -42.6279 H         1 UNK         0.3055 
    106 H106       24.2363  -34.2363  -43.3003 H         1 UNK         0.1106 
    107 H107       24.4590  -33.1353  -45.5272 H         1 UNK         0.0828 
    108 H108       23.1034  -34.2447  -45.5300 H         1 UNK         0.0828 
    109 H109       22.8160  -32.5137  -45.4106 H         1 UNK         0.0828 
    110 H110       22.8896  -33.1697  -41.1048 H         1 UNK         0.2931 
    111 H111       20.0282  -33.4136  -41.4418 H         1 UNK         0.0412 
    112 H112       19.2073  -36.5472  -39.9021 H         1 UNK         0.3472 
    113 H113       18.6490  -34.9022  -40.0838 H         1 UNK         0.3472 
    114 H114       21.5956  -32.0241  -39.6396 H         1 UNK         0.0970 
    115 H115       21.2036  -33.3874  -38.6583 H         1 UNK         0.0970 
    116 H116       18.9272  -29.7049  -39.1327 H         1 UNK         0.0612 
    117 H117       20.4970  -30.0742  -39.7775 H         1 UNK         0.0612 
@<TRIPOS>BOND
     1    1    2 1    
     2    1   62 1    
     3    1   63 1    
     4    1   64 1    
     5    2    3 2    
     6    2    4 am   BACKBONE|DICT|INTERRES
     7    4    5 1    
     8    4   65 1    
     9    5    6 1    
    10    5   25 1    
    11    5   66 1    
    12    6    7 1    
    13    6   67 1    
    14    6   68 1    
    15    7    8 1    
    16    8    9 1    
    17    8   69 1    
    18    8   70 1    
    19    9   10 ar   
    20    9   14 ar   
    21   10   11 ar   
    22   10   71 1    
    23   11   12 ar   
    24   11   61 1    
    25   12   13 ar   
    26   12   72 1    
    27   13   14 ar   
    28   13   15 1    
    29   14   73 1    
    30   15   16 1    
    31   15   74 1    
    32   15   75 1    
    33   16   17 1    
    34   17   18 1    
    35   17   76 1    
    36   17   77 1    
    37   18   19 1    
    38   18   27 1    
    39   18   78 1    
    40   19   20 am   BACKBONE|DICT|INTERRES
    41   19   79 1    
    42   20   21 2    
    43   20   22 1    
    44   22   23 1    
    45   22   24 1    
    46   22   80 1    
    47   23   81 1    
    48   23   82 1    
    49   23   83 1    
    50   24   25 am   BACKBONE|DICT|INTERRES
    51   24   84 1    
    52   25   26 2    
    53   27   28 2    
    54   27   29 am   BACKBONE|DICT|INTERRES
    55   29   30 1    
    56   29   85 1    
    57   30   31 1    
    58   30   32 1    
    59   30   86 1    
    60   31   87 1    
    61   31   88 1    
    62   31   89 1    
    63   32   33 2    
    64   32   34 am   BACKBONE|DICT|INTERRES
    65   34   35 1    
    66   34   90 1    
    67   35   36 1    
    68   35   37 1    
    69   35   91 1    
    70   36   92 1    
    71   36   93 1    
    72   36   94 1    
    73   37   38 2    
    74   37   39 am   BACKBONE|DICT|INTERRES
    75   39   40 1    
    76   39   95 1    
    77   40   41 1    
    78   40   42 1    
    79   40   96 1    
    80   41   97 1    
    81   41   98 1    
    82   41   99 1    
    83   42   43 2    
    84   42   44 am   BACKBONE|DICT|INTERRES
    85   44   45 1    
    86   44  100 1    
    87   45   46 1    
    88   45   47 1    
    89   45  101 1    
    90   46  102 1    
    91   46  103 1    
    92   46  104 1    
    93   47   48 2    
    94   47   49 am   BACKBONE|DICT|INTERRES
    95   49   50 1    
    96   49  105 1    
    97   50   51 1    
    98   50   52 1    
    99   50  106 1    
   100   51  107 1    
   101   51  108 1    
   102   51  109 1    
   103   52   53 2    
   104   52   54 am   BACKBONE|DICT|INTERRES
   105   54   55 1    
   106   54  110 1    
   107   55   56 1    
   108   55   59 1    
   109   55  111 1    
   110   56   57 am   BACKBONE|DICT|INTERRES
   111   56   58 2    
   112   57  112 1    
   113   57  113 1    
   114   59   60 1    
   115   59  114 1    
   116   59  115 1    
   117   60   61 1    
   118   61  116 1    
   119   61  117 1    
@<TRIPOS>SUBSTRUCTURE
     1 UNK         1 GROUP             0       ****    0 ROOT    
