@<TRIPOS>MOLECULE
3R8
117   119    1
SMALL
USER_CHARGES


@<TRIPOS>ATOM
      1 CA         19.8155  -26.8632  -48.5749 C.3       0 UNK        -0.2013 
      2 C          18.6949  -26.7603  -47.5513 C.2       0 UNK         0.4866 
      3 O          17.7933  -25.9393  -47.7149 O.2       0 UNK        -0.5176 
      4 N          18.7564  -27.5792  -46.4904 N.am      1 UNK        -0.4884 
      5 CA         17.7753  -27.6798  -45.3944 C.3       1 UNK         0.0853 
      6 C6         16.3508  -28.0477  -45.9145 C.3       10 UNK        -0.0849 
      7 S7         15.2405  -28.8938  -44.7297 S.3       10 UNK        -0.2776 
      8 C8         15.8560  -30.6207  -44.7191 C.3       10 UNK         0.0316 
      9 C9         16.5887  -31.0296  -43.4371 C.ar      10 UNK        -0.0863 
     10 C10        16.6561  -32.3810  -43.0743 C.ar      10 UNK        -0.1009 
     11 C11        17.3362  -32.7793  -41.9154 C.ar      10 UNK        -0.0712 
     12 C12        17.9890  -31.8205  -41.1341 C.ar      10 UNK        -0.0894 
     13 C13        17.9384  -30.4718  -41.4898 C.ar      10 UNK        -0.0745 
     14 C14        17.2152  -30.0866  -42.6177 C.ar      10 UNK        -0.0972 
     15 C15        18.6790  -29.4127  -40.6925 C.3       10 UNK         0.0209 
     16 S16        19.9041  -28.6072  -41.7632 S.3       10 UNK        -0.2568 
     17 C17        20.5963  -27.3428  -40.6632 C.3       10 UNK        -0.0983 
     18 CA         21.4673  -26.3509  -41.4777 C.3       3 UNK         0.0876 
     19 N          20.7247  -25.6816  -42.5560 N.am      3 UNK        -0.4424 
     20 C          19.7349  -24.7867  -42.4247 C.2       2 UNK         0.4918 
     21 O          19.3778  -24.2928  -41.3552 O.2       2 UNK        -0.4875 
     22 CA         19.0048  -24.3940  -43.7217 C.3       2 UNK         0.0481 
     23 CB         19.7955  -23.3180  -44.4836 C.3       2 UNK        -0.1831 
     24 N          18.7673  -25.5460  -44.6002 N.am      2 UNK        -0.4498 
     25 C          17.8121  -26.4728  -44.4150 C.2       1 UNK         0.5027 
     26 O          17.0017  -26.4137  -43.4900 O.2       1 UNK        -0.4969 
     27 C          22.2695  -25.3816  -40.5851 C.2       3 UNK         0.5005 
     28 O          22.2777  -25.5249  -39.3603 O.2       3 UNK        -0.5279 
     29 N          22.9449  -24.4117  -41.2183 N.am      4 UNK        -0.4463 
     30 CA         23.8168  -23.4461  -40.5444 C.3       4 UNK         0.0283 
     31 CB         24.1350  -22.2842  -41.4996 C.3       4 UNK        -0.1875 
     32 C          25.1140  -24.0810  -40.0104 C.2       4 UNK         0.4949 
     33 O          25.5493  -23.7282  -38.9141 O.2       4 UNK        -0.5039 
     34 N          25.7091  -24.9915  -40.7943 N.am      5 UNK        -0.4663 
     35 CA         26.9690  -25.6641  -40.4630 C.3       5 UNK         0.0242 
     36 CB         27.7947  -25.8602  -41.7461 C.3       5 UNK        -0.1982 
     37 C          26.7485  -27.0099  -39.7555 C.2       5 UNK         0.5017 
     38 O          27.4298  -27.2923  -38.7694 O.2       5 UNK        -0.5012 
     39 N          25.8178  -27.8175  -40.2758 N.am      6 UNK        -0.4439 
     40 CA         25.4864  -29.1706  -39.8318 C.3       6 UNK         0.0297 
     41 CB         26.6226  -30.1488  -40.1972 C.3       6 UNK        -0.2006 
     42 C          24.1717  -29.5854  -40.5057 C.2       6 UNK         0.4892 
     43 O          23.7158  -28.8876  -41.4153 O.2       6 UNK        -0.5089 
     44 N          23.5925  -30.7069  -40.0540 N.am      7 UNK        -0.4243 
     45 CA         22.3515  -31.2817  -40.5809 C.3       7 UNK         0.0196 
     46 CB         21.9350  -32.4896  -39.7257 C.3       7 UNK        -0.2007 
     47 C          22.4762  -31.6837  -42.0608 C.2       7 UNK         0.5020 
     48 O          23.3426  -32.4918  -42.4008 O.2       7 UNK        -0.5147 
     49 N          21.5971  -31.1291  -42.9046 N.am      8 UNK        -0.4734 
     50 CA         21.5758  -31.3192  -44.3593 C.3       8 UNK         0.0238 
     51 CB         20.5314  -30.3742  -44.9737 C.3       8 UNK        -0.1912 
     52 C          21.3079  -32.7669  -44.8001 C.2       8 UNK         0.5038 
     53 O          21.7887  -33.1728  -45.8588 O.2       8 UNK        -0.5046 
     54 N          20.5624  -33.5140  -43.9785 N.am      9 UNK        -0.4200 
     55 CA         20.3232  -34.9533  -44.1370 C.3       9 UNK         0.0839 
     56 C          21.5293  -35.8624  -43.7507 C.2       9 UNK         0.5513 
     57 N          22.6224  -35.3412  -43.2034 N.am      9 UNK        -0.7519 
     58 O          21.4765  -37.0702  -43.9689 O.2       9 UNK        -0.4960 
     59 C59        19.0057  -35.3870  -43.4444 C.3       10 UNK        -0.0876 
     60 S60        18.9635  -35.0256  -41.6534 S.3       10 UNK        -0.2414 
     61 C61        17.3337  -34.2364  -41.4736 C.3       10 UNK         0.0169 
     62 H62        20.3293  -25.9066  -48.6669 H         1 UNK         0.0903 
     63 H63        20.5520  -27.6189  -48.3024 H         1 UNK         0.0903 
     64 H64        19.4075  -27.1250  -49.5508 H         1 UNK         0.0903 
     65 H65        19.5361  -28.2183  -46.4239 H         1 UNK         0.3096 
     66 H66        18.1310  -28.5245  -44.8071 H         1 UNK         0.1121 
     67 H67        15.8402  -27.1505  -46.2688 H         1 UNK         0.0849 
     68 H68        16.4313  -28.6934  -46.7903 H         1 UNK         0.0849 
     69 H69        14.9972  -31.2777  -44.8655 H         1 UNK         0.0865 
     70 H70        16.5164  -30.7884  -45.5707 H         1 UNK         0.0865 
     71 H71        16.1632  -33.1239  -43.6865 H         1 UNK         0.1346 
     72 H72        18.5292  -32.1274  -40.2489 H         1 UNK         0.1412 
     73 H73        17.1729  -29.0350  -42.8550 H         1 UNK         0.1426 
     74 H74        19.1777  -29.8454  -39.8239 H         1 UNK         0.0716 
     75 H75        17.9694  -28.6717  -40.3216 H         1 UNK         0.0716 
     76 H76        21.1887  -27.8539  -39.9018 H         1 UNK         0.0695 
     77 H77        19.7886  -26.8229  -40.1452 H         1 UNK         0.0695 
     78 H78        22.2281  -26.9398  -41.9891 H         1 UNK         0.0983 
     79 H79        20.9267  -26.0184  -43.4853 H         1 UNK         0.3095 
     80 H80        18.0390  -23.9655  -43.4454 H         1 UNK         0.0454 
     81 H81        19.2504  -22.9762  -45.3636 H         1 UNK         0.0851 
     82 H82        20.7695  -23.6813  -44.8132 H         1 UNK         0.0851 
     83 H83        19.9699  -22.4443  -43.8539 H         1 UNK         0.0851 
     84 H84        19.3725  -25.6510  -45.4011 H         1 UNK         0.2976 
     85 H85        22.8682  -24.3442  -42.2231 H         1 UNK         0.3116 
     86 H86        23.2725  -23.0374  -39.6899 H         1 UNK         0.0646 
     87 H87        24.6645  -22.6221  -42.3912 H         1 UNK         0.0847 
     88 H88        24.7656  -21.5405  -41.0101 H         1 UNK         0.0847 
     89 H89        23.2267  -21.7738  -41.8206 H         1 UNK         0.0847 
     90 H90        25.2840  -25.2147  -41.6821 H         1 UNK         0.3040 
     91 H91        27.5544  -25.0332  -39.7894 H         1 UNK         0.1015 
     92 H92        27.2714  -26.4745  -42.4799 H         1 UNK         0.0786 
     93 H93        28.7436  -26.3520  -41.5272 H         1 UNK         0.0786 
     94 H94        28.0284  -24.9042  -42.2152 H         1 UNK         0.0786 
     95 H95        25.2567  -27.5083  -41.0600 H         1 UNK         0.3172 
     96 H96        25.3338  -29.1621  -38.7508 H         1 UNK         0.0595 
     97 H97        26.8030  -30.1684  -41.2728 H         1 UNK         0.0839 
     98 H98        26.3853  -31.1675  -39.8887 H         1 UNK         0.0839 
     99 H99        27.5585  -29.8806  -39.7073 H         1 UNK         0.0839 
    100 H100       24.0542  -31.2298  -39.3242 H         1 UNK         0.2998 
    101 H101       21.5773  -30.5216  -40.4806 H         1 UNK         0.0822 
    102 H102       21.0072  -32.9284  -40.0957 H         1 UNK         0.0787 
    103 H103       22.6924  -33.2746  -39.7399 H         1 UNK         0.0787 
    104 H104       21.7655  -32.2031  -38.6876 H         1 UNK         0.0787 
    105 H105       20.9366  -30.4561  -42.5336 H         1 UNK         0.3055 
    106 H106       22.5610  -31.0429  -44.7414 H         1 UNK         0.1106 
    107 H107       20.5056  -30.4744  -46.0597 H         1 UNK         0.0828 
    108 H108       19.5293  -30.5903  -44.6005 H         1 UNK         0.0828 
    109 H109       20.7614  -29.3333  -44.7465 H         1 UNK         0.0828 
    110 H110       20.2145  -33.0994  -43.1264 H         1 UNK         0.2931 
    111 H111       20.1735  -35.1303  -45.2039 H         1 UNK         0.0412 
    112 H112       22.7012  -34.3472  -43.0221 H         1 UNK         0.3472 
    113 H113       23.3894  -35.9511  -42.9691 H         1 UNK         0.3472 
    114 H114       18.8258  -36.4540  -43.5882 H         1 UNK         0.0970 
    115 H115       18.1691  -34.8863  -43.9333 H         1 UNK         0.0970 
    116 H116       17.0418  -34.2841  -40.4235 H         1 UNK         0.0612 
    117 H117       16.5856  -34.8125  -42.0205 H         1 UNK         0.0612 
@<TRIPOS>BOND
     1    1    2 1    
     2    1   62 1    
     3    1   63 1    
     4    1   64 1    
     5    2    3 2    
     6    2    4 am   BACKBONE|DICT|INTERRES
     7    4    5 1    
     8    4   65 1    
     9    5    6 1    
    10    5   25 1    
    11    5   66 1    
    12    6    7 1    
    13    6   67 1    
    14    6   68 1    
    15    7    8 1    
    16    8    9 1    
    17    8   69 1    
    18    8   70 1    
    19    9   10 ar   
    20    9   14 ar   
    21   10   11 ar   
    22   10   71 1    
    23   11   12 ar   
    24   11   61 1    
    25   12   13 ar   
    26   12   72 1    
    27   13   14 ar   
    28   13   15 1    
    29   14   73 1    
    30   15   16 1    
    31   15   74 1    
    32   15   75 1    
    33   16   17 1    
    34   17   18 1    
    35   17   76 1    
    36   17   77 1    
    37   18   19 1    
    38   18   27 1    
    39   18   78 1    
    40   19   20 am   BACKBONE|DICT|INTERRES
    41   19   79 1    
    42   20   21 2    
    43   20   22 1    
    44   22   23 1    
    45   22   24 1    
    46   22   80 1    
    47   23   81 1    
    48   23   82 1    
    49   23   83 1    
    50   24   25 am   BACKBONE|DICT|INTERRES
    51   24   84 1    
    52   25   26 2    
    53   27   28 2    
    54   27   29 am   BACKBONE|DICT|INTERRES
    55   29   30 1    
    56   29   85 1    
    57   30   31 1    
    58   30   32 1    
    59   30   86 1    
    60   31   87 1    
    61   31   88 1    
    62   31   89 1    
    63   32   33 2    
    64   32   34 am   BACKBONE|DICT|INTERRES
    65   34   35 1    
    66   34   90 1    
    67   35   36 1    
    68   35   37 1    
    69   35   91 1    
    70   36   92 1    
    71   36   93 1    
    72   36   94 1    
    73   37   38 2    
    74   37   39 am   BACKBONE|DICT|INTERRES
    75   39   40 1    
    76   39   95 1    
    77   40   41 1    
    78   40   42 1    
    79   40   96 1    
    80   41   97 1    
    81   41   98 1    
    82   41   99 1    
    83   42   43 2    
    84   42   44 am   BACKBONE|DICT|INTERRES
    85   44   45 1    
    86   44  100 1    
    87   45   46 1    
    88   45   47 1    
    89   45  101 1    
    90   46  102 1    
    91   46  103 1    
    92   46  104 1    
    93   47   48 2    
    94   47   49 am   BACKBONE|DICT|INTERRES
    95   49   50 1    
    96   49  105 1    
    97   50   51 1    
    98   50   52 1    
    99   50  106 1    
   100   51  107 1    
   101   51  108 1    
   102   51  109 1    
   103   52   53 2    
   104   52   54 am   BACKBONE|DICT|INTERRES
   105   54   55 1    
   106   54  110 1    
   107   55   56 1    
   108   55   59 1    
   109   55  111 1    
   110   56   57 am   BACKBONE|DICT|INTERRES
   111   56   58 2    
   112   57  112 1    
   113   57  113 1    
   114   59   60 1    
   115   59  114 1    
   116   59  115 1    
   117   60   61 1    
   118   61  116 1    
   119   61  117 1    
@<TRIPOS>SUBSTRUCTURE
     1 UNK         1 GROUP             0       ****    0 ROOT    
