@<TRIPOS>MOLECULE
3R8
117   119    1
SMALL
USER_CHARGES


@<TRIPOS>ATOM
      1 CA         14.5317  -28.9943  -41.3695 C.3       0 UNK        -0.2013 
      2 C          15.4718  -27.8027  -41.4735 C.2       0 UNK         0.4866 
      3 O          15.8419  -27.2236  -40.4527 O.2       0 UNK        -0.5176 
      4 N          15.8640  -27.4320  -42.7008 N.am      1 UNK        -0.4884 
      5 CA         16.7628  -26.3066  -42.9960 C.3       1 UNK         0.0853 
      6 C6         16.5052  -25.7329  -44.4186 C.3       10 UNK        -0.0849 
      7 S7         17.4230  -26.4746  -45.8165 S.3       10 UNK        -0.2776 
      8 C8         16.5335  -28.0333  -46.1324 C.3       10 UNK         0.0316 
      9 C9         17.3722  -29.2240  -45.6916 C.ar      10 UNK        -0.0863 
     10 C10        16.9670  -30.0489  -44.6386 C.ar      10 UNK        -0.1009 
     11 C11        17.7695  -31.1170  -44.2274 C.ar      10 UNK        -0.0712 
     12 C12        18.9816  -31.3616  -44.8830 C.ar      10 UNK        -0.0894 
     13 C13        19.3928  -30.5554  -45.9502 C.ar      10 UNK        -0.0745 
     14 C14        18.5705  -29.4991  -46.3552 C.ar      10 UNK        -0.0972 
     15 C15        20.6943  -30.8694  -46.6876 C.3       10 UNK         0.0209 
     16 S16        21.6014  -29.4002  -47.2881 S.3       10 UNK        -0.2568 
     17 C17        22.4253  -28.7629  -45.7909 C.3       10 UNK        -0.0983 
     18 CA         21.6664  -27.5510  -45.1699 C.3       3 UNK         0.0876 
     19 N          20.6984  -27.9438  -44.1398 N.am      3 UNK        -0.4424 
     20 C          20.9945  -28.3721  -42.9036 C.2       2 UNK         0.4918 
     21 O          22.1144  -28.7500  -42.5560 O.2       2 UNK        -0.4875 
     22 CA         19.8705  -28.3601  -41.8558 C.3       2 UNK         0.0481 
     23 CB         20.2999  -27.6169  -40.5747 C.3       2 UNK        -0.1831 
     24 N          18.5717  -27.8535  -42.3225 N.am      2 UNK        -0.4498 
     25 C          18.2519  -26.6005  -42.6898 C.2       1 UNK         0.5027 
     26 O          19.0793  -25.6937  -42.8062 O.2       1 UNK        -0.4969 
     27 C          22.5704  -26.4115  -44.6299 C.2       3 UNK         0.5005 
     28 O          23.7927  -26.4391  -44.7915 O.2       3 UNK        -0.5279 
     29 N          21.9339  -25.4390  -43.9523 N.am      4 UNK        -0.4463 
     30 CA         22.5392  -24.3124  -43.2402 C.3       4 UNK         0.0283 
     31 CB         23.1850  -23.3154  -44.2305 C.3       4 UNK        -0.1875 
     32 C          23.4754  -24.8039  -42.1193 C.2       4 UNK         0.4949 
     33 O          23.0050  -25.4504  -41.1832 O.2       4 UNK        -0.5039 
     34 N          24.7740  -24.4990  -42.2261 N.am      5 UNK        -0.4663 
     35 CA         25.8034  -24.8430  -41.2421 C.3       5 UNK         0.0242 
     36 CB         27.0367  -23.9589  -41.4962 C.3       5 UNK        -0.1982 
     37 C          26.2005  -26.3324  -41.2201 C.2       5 UNK         0.5017 
     38 O          26.9471  -26.7260  -40.3230 O.2       5 UNK        -0.5012 
     39 N          25.7360  -27.1279  -42.1965 N.am      6 UNK        -0.4439 
     40 CA         26.0854  -28.5445  -42.3477 C.3       6 UNK         0.0297 
     41 CB         25.5713  -29.0580  -43.7007 C.3       6 UNK        -0.2006 
     42 C          25.5846  -29.4548  -41.2106 C.2       6 UNK         0.4892 
     43 O          26.2390  -30.4617  -40.9363 O.2       6 UNK        -0.5089 
     44 N          24.4462  -29.0995  -40.5897 N.am      7 UNK        -0.4243 
     45 CA         23.7312  -29.8647  -39.5538 C.3       7 UNK         0.0196 
     46 CB         24.5475  -29.9160  -38.2447 C.3       7 UNK        -0.2007 
     47 C          23.3045  -31.2587  -40.0596 C.2       7 UNK         0.5020 
     48 O          23.4972  -32.2615  -39.3706 O.2       7 UNK        -0.5147 
     49 N          22.7859  -31.2930  -41.2931 N.am      8 UNK        -0.4734 
     50 CA         22.6064  -32.5126  -42.0814 C.3       8 UNK         0.0238 
     51 CB         22.5189  -32.1196  -43.5622 C.3       8 UNK        -0.1912 
     52 C          21.4057  -33.3888  -41.6866 C.2       8 UNK         0.5038 
     53 O          21.4273  -34.5804  -41.9996 O.2       8 UNK        -0.5046 
     54 N          20.3755  -32.8083  -41.0561 N.am      9 UNK        -0.4200 
     55 CA         19.1488  -33.5277  -40.6692 C.3       9 UNK         0.0839 
     56 C          19.3867  -34.5378  -39.5138 C.2       9 UNK         0.5513 
     57 N          18.7014  -35.6731  -39.5300 N.am      9 UNK        -0.7519 
     58 O          20.1456  -34.2803  -38.5819 O.2       9 UNK        -0.4960 
     59 C59        17.9628  -32.5823  -40.3275 C.3       10 UNK        -0.0876 
     60 S60        17.7023  -31.1974  -41.4863 S.3       10 UNK        -0.2414 
     61 C61        17.3303  -32.0041  -43.0717 C.3       10 UNK         0.0169 
     62 H62        14.9890  -29.7812  -40.7701 H         1 UNK         0.0903 
     63 H63        13.6018  -28.6963  -40.8858 H         1 UNK         0.0903 
     64 H64        14.2864  -29.4116  -42.3456 H         1 UNK         0.0903 
     65 H65        15.5097  -27.9274  -43.5043 H         1 UNK         0.3096 
     66 H66        16.4935  -25.5100  -42.2978 H         1 UNK         0.1121 
     67 H67        15.4383  -25.7362  -44.6483 H         1 UNK         0.0849 
     68 H68        16.7814  -24.6769  -44.4129 H         1 UNK         0.0849 
     69 H69        15.5569  -28.0279  -45.6475 H         1 UNK         0.0865 
     70 H70        16.3382  -28.1152  -47.2027 H         1 UNK         0.0865 
     71 H71        16.0298  -29.8681  -44.1336 H         1 UNK         0.1346 
     72 H72        19.5971  -32.1929  -44.5686 H         1 UNK         0.1412 
     73 H73        18.8661  -28.8728  -47.1856 H         1 UNK         0.1426 
     74 H74        21.3612  -31.4713  -46.0719 H         1 UNK         0.0716 
     75 H75        20.4446  -31.4863  -47.5516 H         1 UNK         0.0716 
     76 H76        22.5600  -29.5681  -45.0704 H         1 UNK         0.0695 
     77 H77        23.4313  -28.4914  -46.1129 H         1 UNK         0.0695 
     78 H78        21.0849  -27.0732  -45.9603 H         1 UNK         0.0983 
     79 H79        19.7345  -27.7114  -44.3330 H         1 UNK         0.3095 
     80 H80        19.7321  -29.4028  -41.5854 H         1 UNK         0.0454 
     81 H81        20.5014  -26.5620  -40.7621 H         1 UNK         0.0851 
     82 H82        19.5326  -27.6809  -39.8034 H         1 UNK         0.0851 
     83 H83        21.2111  -28.0384  -40.1579 H         1 UNK         0.0851 
     84 H84        17.8197  -28.5289  -42.3028 H         1 UNK         0.2976 
     85 H85        20.9373  -25.5496  -43.7914 H         1 UNK         0.3116 
     86 H86        21.7197  -23.7932  -42.7409 H         1 UNK         0.0646 
     87 H87        23.5788  -22.4414  -43.7098 H         1 UNK         0.0847 
     88 H88        22.4496  -22.9501  -44.9473 H         1 UNK         0.0847 
     89 H89        24.0012  -23.7600  -44.8007 H         1 UNK         0.0847 
     90 H90        25.0800  -23.9928  -43.0449 H         1 UNK         0.3040 
     91 H91        25.4148  -24.6076  -40.2486 H         1 UNK         0.1015 
     92 H92        26.7860  -22.8996  -41.4359 H         1 UNK         0.0786 
     93 H93        27.4725  -24.1472  -42.4783 H         1 UNK         0.0786 
     94 H94        27.8142  -24.1462  -40.7540 H         1 UNK         0.0786 
     95 H95        25.1251  -26.7278  -42.8993 H         1 UNK         0.3172 
     96 H96        27.1754  -28.6100  -42.3582 H         1 UNK         0.0595 
     97 H97        25.9693  -28.4727  -44.5298 H         1 UNK         0.0839 
     98 H98        25.8643  -30.0960  -43.8640 H         1 UNK         0.0839 
     99 H99        24.4843  -29.0156  -43.7523 H         1 UNK         0.0839 
    100 H100       23.9679  -28.2785  -40.9388 H         1 UNK         0.2998 
    101 H101       22.8121  -29.3240  -39.3367 H         1 UNK         0.0822 
    102 H102       24.8226  -28.9155  -37.9106 H         1 UNK         0.0787 
    103 H103       23.9701  -30.3785  -37.4433 H         1 UNK         0.0787 
    104 H104       25.4645  -30.4948  -38.3588 H         1 UNK         0.0787 
    105 H105       22.6526  -30.4095  -41.7801 H         1 UNK         0.3055 
    106 H106       23.4981  -33.1305  -41.9513 H         1 UNK         0.1106 
    107 H107       23.4408  -31.6463  -43.9006 H         1 UNK         0.0828 
    108 H108       22.3510  -32.9912  -44.1965 H         1 UNK         0.0828 
    109 H109       21.7014  -31.4201  -43.7329 H         1 UNK         0.0828 
    110 H110       20.4328  -31.8327  -40.8091 H         1 UNK         0.2931 
    111 H111       18.8513  -34.1160  -41.5386 H         1 UNK         0.0412 
    112 H112       18.0683  -35.8907  -40.2842 H         1 UNK         0.3472 
    113 H113       18.8291  -36.3334  -38.7785 H         1 UNK         0.3472 
    114 H114       18.1092  -32.1407  -39.3397 H         1 UNK         0.0970 
    115 H115       17.0340  -33.1522  -40.2633 H         1 UNK         0.0970 
    116 H116       17.8271  -32.9706  -43.1416 H         1 UNK         0.0612 
    117 H117       16.2593  -32.2028  -43.1322 H         1 UNK         0.0612 
@<TRIPOS>BOND
     1    1    2 1    
     2    1   62 1    
     3    1   63 1    
     4    1   64 1    
     5    2    3 2    
     6    2    4 am   BACKBONE|DICT|INTERRES
     7    4    5 1    
     8    4   65 1    
     9    5    6 1    
    10    5   25 1    
    11    5   66 1    
    12    6    7 1    
    13    6   67 1    
    14    6   68 1    
    15    7    8 1    
    16    8    9 1    
    17    8   69 1    
    18    8   70 1    
    19    9   10 ar   
    20    9   14 ar   
    21   10   11 ar   
    22   10   71 1    
    23   11   12 ar   
    24   11   61 1    
    25   12   13 ar   
    26   12   72 1    
    27   13   14 ar   
    28   13   15 1    
    29   14   73 1    
    30   15   16 1    
    31   15   74 1    
    32   15   75 1    
    33   16   17 1    
    34   17   18 1    
    35   17   76 1    
    36   17   77 1    
    37   18   19 1    
    38   18   27 1    
    39   18   78 1    
    40   19   20 am   BACKBONE|DICT|INTERRES
    41   19   79 1    
    42   20   21 2    
    43   20   22 1    
    44   22   23 1    
    45   22   24 1    
    46   22   80 1    
    47   23   81 1    
    48   23   82 1    
    49   23   83 1    
    50   24   25 am   BACKBONE|DICT|INTERRES
    51   24   84 1    
    52   25   26 2    
    53   27   28 2    
    54   27   29 am   BACKBONE|DICT|INTERRES
    55   29   30 1    
    56   29   85 1    
    57   30   31 1    
    58   30   32 1    
    59   30   86 1    
    60   31   87 1    
    61   31   88 1    
    62   31   89 1    
    63   32   33 2    
    64   32   34 am   BACKBONE|DICT|INTERRES
    65   34   35 1    
    66   34   90 1    
    67   35   36 1    
    68   35   37 1    
    69   35   91 1    
    70   36   92 1    
    71   36   93 1    
    72   36   94 1    
    73   37   38 2    
    74   37   39 am   BACKBONE|DICT|INTERRES
    75   39   40 1    
    76   39   95 1    
    77   40   41 1    
    78   40   42 1    
    79   40   96 1    
    80   41   97 1    
    81   41   98 1    
    82   41   99 1    
    83   42   43 2    
    84   42   44 am   BACKBONE|DICT|INTERRES
    85   44   45 1    
    86   44  100 1    
    87   45   46 1    
    88   45   47 1    
    89   45  101 1    
    90   46  102 1    
    91   46  103 1    
    92   46  104 1    
    93   47   48 2    
    94   47   49 am   BACKBONE|DICT|INTERRES
    95   49   50 1    
    96   49  105 1    
    97   50   51 1    
    98   50   52 1    
    99   50  106 1    
   100   51  107 1    
   101   51  108 1    
   102   51  109 1    
   103   52   53 2    
   104   52   54 am   BACKBONE|DICT|INTERRES
   105   54   55 1    
   106   54  110 1    
   107   55   56 1    
   108   55   59 1    
   109   55  111 1    
   110   56   57 am   BACKBONE|DICT|INTERRES
   111   56   58 2    
   112   57  112 1    
   113   57  113 1    
   114   59   60 1    
   115   59  114 1    
   116   59  115 1    
   117   60   61 1    
   118   61  116 1    
   119   61  117 1    
@<TRIPOS>SUBSTRUCTURE
     1 UNK         1 GROUP             0       ****    0 ROOT    
