@<TRIPOS>MOLECULE
3R8
117   119    1
SMALL
USER_CHARGES


@<TRIPOS>ATOM
      1 CA         13.8686  -23.1194  -46.2680 C.3       0 UNK        -0.2013 
      2 C          14.8795  -24.1892  -46.6524 C.2       0 UNK         0.4866 
      3 O          15.5875  -24.0325  -47.6473 O.2       0 UNK        -0.5176 
      4 N          14.9463  -25.2773  -45.8746 N.am      1 UNK        -0.4884 
      5 CA         15.8859  -26.3923  -46.0511 C.3       1 UNK         0.0853 
      6 C6         15.4819  -27.6370  -45.2161 C.3       10 UNK        -0.0849 
      7 S7         15.0544  -27.2652  -43.4761 S.3       10 UNK        -0.2776 
      8 C8         15.2905  -28.8855  -42.6832 C.3       10 UNK         0.0316 
      9 C9         16.7363  -29.1027  -42.2627 C.ar      10 UNK        -0.0863 
     10 C10        17.5930  -29.8935  -43.0355 C.ar      10 UNK        -0.1009 
     11 C11        18.9125  -30.1112  -42.6273 C.ar      10 UNK        -0.0712 
     12 C12        19.3683  -29.5372  -41.4383 C.ar      10 UNK        -0.0894 
     13 C13        18.5276  -28.7377  -40.6626 C.ar      10 UNK        -0.0745 
     14 C14        17.2100  -28.5266  -41.0792 C.ar      10 UNK        -0.0972 
     15 C15        19.0321  -28.1147  -39.3691 C.3       10 UNK         0.0209 
     16 S16        19.4005  -26.3450  -39.5761 S.3       10 UNK        -0.2568 
     17 C17        21.1124  -26.3564  -40.2169 C.3       10 UNK        -0.0983 
     18 CA         21.2265  -26.4629  -41.7634 C.3       3 UNK         0.0876 
     19 N          20.3038  -25.5534  -42.4557 N.am      3 UNK        -0.4424 
     20 C          19.7842  -25.7625  -43.6704 C.2       2 UNK         0.4918 
     21 O          20.0949  -26.7255  -44.3728 O.2       2 UNK        -0.4875 
     22 CA         18.8311  -24.6744  -44.1975 C.3       2 UNK         0.0481 
     23 CB         19.5394  -23.7753  -45.2295 C.3       2 UNK        -0.1831 
     24 N          17.5675  -25.2079  -44.7212 N.am      2 UNK        -0.4498 
     25 C          17.3511  -25.9770  -45.8012 C.2       1 UNK         0.5027 
     26 O          18.2154  -26.3288  -46.6052 O.2       1 UNK        -0.4969 
     27 C          22.6808  -26.2780  -42.2619 C.2       3 UNK         0.5005 
     28 O          23.6011  -26.1397  -41.4534 O.2       3 UNK        -0.5279 
     29 N          22.8662  -26.2560  -43.5902 N.am      4 UNK        -0.4463 
     30 CA         24.1143  -25.9204  -44.2881 C.3       4 UNK         0.0283 
     31 CB         23.8423  -25.8604  -45.7997 C.3       4 UNK        -0.1875 
     32 C          25.2962  -26.8609  -43.9922 C.2       4 UNK         0.4949 
     33 O          26.4455  -26.4278  -44.0768 O.2       4 UNK        -0.5039 
     34 N          24.9933  -28.1136  -43.6364 N.am      5 UNK        -0.4663 
     35 CA         25.9535  -29.1293  -43.2007 C.3       5 UNK         0.0242 
     36 CB         26.0025  -30.2515  -44.2537 C.3       5 UNK        -0.1982 
     37 C          25.5907  -29.6421  -41.7949 C.2       5 UNK         0.5017 
     38 O          25.8360  -30.8106  -41.4901 O.2       5 UNK        -0.5012 
     39 N          24.9931  -28.7613  -40.9736 N.am      6 UNK        -0.4439 
     40 CA         24.4137  -29.0206  -39.6497 C.3       6 UNK         0.0297 
     41 CB         25.4956  -29.4994  -38.6552 C.3       6 UNK        -0.2006 
     42 C          23.2034  -29.9733  -39.7192 C.2       6 UNK         0.4892 
     43 O          22.7415  -30.3135  -40.8100 O.2       6 UNK        -0.5089 
     44 N          22.7031  -30.3912  -38.5483 N.am      7 UNK        -0.4243 
     45 CA         21.5719  -31.3165  -38.3935 C.3       7 UNK         0.0196 
     46 CB         21.1573  -31.3554  -36.9136 C.3       7 UNK        -0.2007 
     47 C          21.8319  -32.7407  -38.9247 C.2       7 UNK         0.5020 
     48 O          20.8777  -33.4961  -39.1081 O.2       7 UNK        -0.5147 
     49 N          23.1044  -33.0847  -39.1680 N.am      8 UNK        -0.4734 
     50 CA         23.5206  -34.3165  -39.8422 C.3       8 UNK         0.0238 
     51 CB         25.0287  -34.5214  -39.6241 C.3       8 UNK        -0.1912 
     52 C          23.1925  -34.3195  -41.3480 C.2       8 UNK         0.5038 
     53 O          23.0232  -35.4001  -41.9153 O.2       8 UNK        -0.5046 
     54 N          23.1039  -33.1257  -41.9533 N.am      9 UNK        -0.4200 
     55 CA         22.8236  -32.8751  -43.3757 C.3       9 UNK         0.0839 
     56 C          23.9252  -33.4141  -44.3404 C.2       9 UNK         0.5513 
     57 N          23.7171  -33.3198  -45.6476 N.am      9 UNK        -0.7519 
     58 O          24.9895  -33.8742  -43.9318 O.2       9 UNK        -0.4960 
     59 C59        21.3824  -33.2971  -43.7967 C.3       10 UNK        -0.0876 
     60 S60        20.0795  -32.6054  -42.7217 S.3       10 UNK        -0.2414 
     61 C61        19.8561  -30.9608  -43.4627 C.3       10 UNK         0.0169 
     62 H62        14.3771  -22.1752  -46.0748 H         1 UNK         0.0903 
     63 H63        13.1590  -22.9645  -47.0804 H         1 UNK         0.0903 
     64 H64        13.3066  -23.3908  -45.3745 H         1 UNK         0.0903 
     65 H65        14.3374  -25.3577  -45.0712 H         1 UNK         0.3096 
     66 H66        15.8346  -26.6843  -47.1029 H         1 UNK         0.1121 
     67 H67        14.6074  -28.1040  -45.6720 H         1 UNK         0.0849 
     68 H68        16.2674  -28.3945  -45.2506 H         1 UNK         0.0849 
     69 H69        14.9529  -29.6805  -43.3501 H         1 UNK         0.0865 
     70 H70        14.6483  -28.9406  -41.8028 H         1 UNK         0.0865 
     71 H71        17.2333  -30.3440  -43.9504 H         1 UNK         0.1346 
     72 H72        20.3840  -29.7135  -41.1209 H         1 UNK         0.1412 
     73 H73        16.5523  -27.9102  -40.4812 H         1 UNK         0.1426 
     74 H74        19.9135  -28.6370  -38.9953 H         1 UNK         0.0716 
     75 H75        18.2673  -28.2239  -38.5988 H         1 UNK         0.0716 
     76 H76        21.6650  -27.1662  -39.7383 H         1 UNK         0.0695 
     77 H77        21.5776  -25.4318  -39.8695 H         1 UNK         0.0695 
     78 H78        20.9563  -27.4832  -42.0347 H         1 UNK         0.0983 
     79 H79        20.0331  -24.7289  -41.9396 H         1 UNK         0.3095 
     80 H80        18.5467  -24.0419  -43.3550 H         1 UNK         0.0454 
     81 H81        18.8760  -22.9922  -45.5963 H         1 UNK         0.0851 
     82 H82        19.8960  -24.3427  -46.0897 H         1 UNK         0.0851 
     83 H83        20.4075  -23.2851  -44.7871 H         1 UNK         0.0851 
     84 H84        16.7577  -25.0201  -44.1465 H         1 UNK         0.2976 
     85 H85        22.0451  -26.4124  -44.1680 H         1 UNK         0.3116 
     86 H86        24.4096  -24.9227  -43.9568 H         1 UNK         0.0646 
     87 H87        24.7434  -25.5829  -46.3487 H         1 UNK         0.0847 
     88 H88        23.0795  -25.1189  -46.0382 H         1 UNK         0.0847 
     89 H89        23.5081  -26.8234  -46.1880 H         1 UNK         0.0847 
     90 H90        24.0172  -28.3708  -43.5862 H         1 UNK         0.3040 
     91 H91        26.9546  -28.7010  -43.1146 H         1 UNK         0.1015 
     92 H92        26.3322  -29.8699  -45.2201 H         1 UNK         0.0786 
     93 H93        25.0237  -30.7082  -44.3934 H         1 UNK         0.0786 
     94 H94        26.6975  -31.0413  -43.9653 H         1 UNK         0.0786 
     95 H95        24.8056  -27.8321  -41.3372 H         1 UNK         0.3172 
     96 H96        24.0345  -28.0604  -39.2976 H         1 UNK         0.0595 
     97 H97        25.8182  -30.5207  -38.8605 H         1 UNK         0.0839 
     98 H98        25.1352  -29.4722  -37.6267 H         1 UNK         0.0839 
     99 H99        26.3775  -28.8600  -38.6954 H         1 UNK         0.0839 
    100 H100       23.1331  -30.0642  -37.6949 H         1 UNK         0.2998 
    101 H101       20.7351  -30.9198  -38.9711 H         1 UNK         0.0822 
    102 H102       20.8754  -30.3657  -36.5535 H         1 UNK         0.0787 
    103 H103       20.2954  -32.0079  -36.7660 H         1 UNK         0.0787 
    104 H104       21.9615  -31.7300  -36.2791 H         1 UNK         0.0787 
    105 H105       23.8253  -32.4056  -38.9732 H         1 UNK         0.3055 
    106 H106       22.9871  -35.1551  -39.3887 H         1 UNK         0.1106 
    107 H107       25.3675  -35.4462  -40.0933 H         1 UNK         0.0828 
    108 H108       25.6126  -33.7062  -40.0545 H         1 UNK         0.0828 
    109 H109       25.2728  -34.5892  -38.5638 H         1 UNK         0.0828 
    110 H110       23.2389  -32.2900  -41.3968 H         1 UNK         0.2931 
    111 H111       22.8861  -31.7905  -43.4686 H         1 UNK         0.0412 
    112 H112       22.8720  -32.9190  -46.0219 H         1 UNK         0.3472 
    113 H113       24.4319  -33.6508  -46.2770 H         1 UNK         0.3472 
    114 H114       21.1666  -32.9952  -44.8222 H         1 UNK         0.0970 
    115 H115       21.2897  -34.3842  -43.7812 H         1 UNK         0.0970 
    116 H116       20.8220  -30.4587  -43.5357 H         1 UNK         0.0612 
    117 H117       19.4805  -31.0682  -44.4814 H         1 UNK         0.0612 
@<TRIPOS>BOND
     1    1    2 1    
     2    1   62 1    
     3    1   63 1    
     4    1   64 1    
     5    2    3 2    
     6    2    4 am   BACKBONE|DICT|INTERRES
     7    4    5 1    
     8    4   65 1    
     9    5    6 1    
    10    5   25 1    
    11    5   66 1    
    12    6    7 1    
    13    6   67 1    
    14    6   68 1    
    15    7    8 1    
    16    8    9 1    
    17    8   69 1    
    18    8   70 1    
    19    9   10 ar   
    20    9   14 ar   
    21   10   11 ar   
    22   10   71 1    
    23   11   12 ar   
    24   11   61 1    
    25   12   13 ar   
    26   12   72 1    
    27   13   14 ar   
    28   13   15 1    
    29   14   73 1    
    30   15   16 1    
    31   15   74 1    
    32   15   75 1    
    33   16   17 1    
    34   17   18 1    
    35   17   76 1    
    36   17   77 1    
    37   18   19 1    
    38   18   27 1    
    39   18   78 1    
    40   19   20 am   BACKBONE|DICT|INTERRES
    41   19   79 1    
    42   20   21 2    
    43   20   22 1    
    44   22   23 1    
    45   22   24 1    
    46   22   80 1    
    47   23   81 1    
    48   23   82 1    
    49   23   83 1    
    50   24   25 am   BACKBONE|DICT|INTERRES
    51   24   84 1    
    52   25   26 2    
    53   27   28 2    
    54   27   29 am   BACKBONE|DICT|INTERRES
    55   29   30 1    
    56   29   85 1    
    57   30   31 1    
    58   30   32 1    
    59   30   86 1    
    60   31   87 1    
    61   31   88 1    
    62   31   89 1    
    63   32   33 2    
    64   32   34 am   BACKBONE|DICT|INTERRES
    65   34   35 1    
    66   34   90 1    
    67   35   36 1    
    68   35   37 1    
    69   35   91 1    
    70   36   92 1    
    71   36   93 1    
    72   36   94 1    
    73   37   38 2    
    74   37   39 am   BACKBONE|DICT|INTERRES
    75   39   40 1    
    76   39   95 1    
    77   40   41 1    
    78   40   42 1    
    79   40   96 1    
    80   41   97 1    
    81   41   98 1    
    82   41   99 1    
    83   42   43 2    
    84   42   44 am   BACKBONE|DICT|INTERRES
    85   44   45 1    
    86   44  100 1    
    87   45   46 1    
    88   45   47 1    
    89   45  101 1    
    90   46  102 1    
    91   46  103 1    
    92   46  104 1    
    93   47   48 2    
    94   47   49 am   BACKBONE|DICT|INTERRES
    95   49   50 1    
    96   49  105 1    
    97   50   51 1    
    98   50   52 1    
    99   50  106 1    
   100   51  107 1    
   101   51  108 1    
   102   51  109 1    
   103   52   53 2    
   104   52   54 am   BACKBONE|DICT|INTERRES
   105   54   55 1    
   106   54  110 1    
   107   55   56 1    
   108   55   59 1    
   109   55  111 1    
   110   56   57 am   BACKBONE|DICT|INTERRES
   111   56   58 2    
   112   57  112 1    
   113   57  113 1    
   114   59   60 1    
   115   59  114 1    
   116   59  115 1    
   117   60   61 1    
   118   61  116 1    
   119   61  117 1    
@<TRIPOS>SUBSTRUCTURE
     1 UNK         1 GROUP             0       ****    0 ROOT    
