@<TRIPOS>MOLECULE
3R8
117   119    1
SMALL
USER_CHARGES


@<TRIPOS>ATOM
      1 CA         12.9588  -29.8346  -41.0672 C.3       0 UNK        -0.2013 
      2 C          13.6338  -28.7055  -41.8317 C.2       0 UNK         0.4866 
      3 O          13.4698  -27.5390  -41.4726 O.2       0 UNK        -0.5176 
      4 N          14.3852  -29.0413  -42.8876 N.am      1 UNK        -0.4884 
      5 CA         15.1742  -28.0964  -43.6829 C.3       1 UNK         0.0853 
      6 C6         15.5560  -28.7150  -45.0485 C.3       10 UNK        -0.0849 
      7 S7         16.0650  -27.4623  -46.2743 S.3       10 UNK        -0.2776 
      8 C8         16.9447  -28.4828  -47.5025 C.3       10 UNK         0.0316 
      9 C9         18.2816  -28.9852  -46.9754 C.ar      10 UNK        -0.0863 
     10 C10        18.3945  -30.2794  -46.4596 C.ar      10 UNK        -0.1009 
     11 C11        19.6085  -30.7286  -45.9357 C.ar      10 UNK        -0.0712 
     12 C12        20.7301  -29.9006  -45.9942 C.ar      10 UNK        -0.0894 
     13 C13        20.6296  -28.5932  -46.4809 C.ar      10 UNK        -0.0745 
     14 C14        19.4013  -28.1469  -46.9804 C.ar      10 UNK        -0.0972 
     15 C15        21.8182  -27.6330  -46.4290 C.3       10 UNK         0.0209 
     16 S16        22.9011  -27.8301  -44.9638 S.3       10 UNK        -0.2568 
     17 C17        21.7117  -27.7367  -43.5797 C.3       10 UNK        -0.0983 
     18 CA         21.5580  -26.3085  -42.9901 C.3       3 UNK         0.0876 
     19 N          20.2431  -26.1119  -42.3892 N.am      3 UNK        -0.4424 
     20 C          19.1073  -25.9099  -43.0585 C.2       2 UNK         0.4918 
     21 O          19.0368  -25.8143  -44.2854 O.2       2 UNK        -0.4875 
     22 CA         17.8422  -25.7390  -42.2039 C.3       2 UNK         0.0481 
     23 CB         17.5658  -24.2492  -41.9454 C.3       2 UNK        -0.1831 
     24 N          16.6796  -26.3369  -42.8599 N.am      2 UNK        -0.4498 
     25 C          16.4182  -27.6502  -42.8854 C.2       1 UNK         0.5027 
     26 O          17.1037  -28.5005  -42.3113 O.2       1 UNK        -0.4969 
     27 C          22.6256  -25.9839  -41.9305 C.2       3 UNK         0.5005 
     28 O          22.2932  -25.4968  -40.8455 O.2       3 UNK        -0.5279 
     29 N          23.8838  -26.2996  -42.2493 N.am      4 UNK        -0.4463 
     30 CA         25.0214  -26.2450  -41.3367 C.3       4 UNK         0.0283 
     31 CB         25.8033  -24.9318  -41.5230 C.3       4 UNK        -0.1875 
     32 C          25.8937  -27.4841  -41.5556 C.2       4 UNK         0.4949 
     33 O          25.9724  -28.3301  -40.6648 O.2       4 UNK        -0.5039 
     34 N          26.4971  -27.5855  -42.7501 N.am      5 UNK        -0.4663 
     35 CA         27.4746  -28.6152  -43.1281 C.3       5 UNK         0.0242 
     36 CB         27.9944  -28.3218  -44.5446 C.3       5 UNK        -0.1982 
     37 C          26.9655  -30.0639  -43.0364 C.2       5 UNK         0.5017 
     38 O          27.7386  -30.9524  -42.6788 O.2       5 UNK        -0.5012 
     39 N          25.6729  -30.2757  -43.3142 N.am      6 UNK        -0.4439 
     40 CA         24.9856  -31.5694  -43.2325 C.3       6 UNK         0.0297 
     41 CB         23.7946  -31.5496  -44.2065 C.3       6 UNK        -0.2006 
     42 C          24.5457  -31.9220  -41.7947 C.2       6 UNK         0.4892 
     43 O          23.4426  -32.4381  -41.6083 O.2       6 UNK        -0.5089 
     44 N          25.3878  -31.6007  -40.7993 N.am      7 UNK        -0.4243 
     45 CA         25.1452  -31.7167  -39.3530 C.3       7 UNK         0.0196 
     46 CB         25.1599  -33.1978  -38.9198 C.3       7 UNK        -0.2007 
     47 C          23.8651  -30.9743  -38.9175 C.2       7 UNK         0.5020 
     48 O          23.0517  -31.5207  -38.1722 O.2       7 UNK        -0.5147 
     49 N          23.6907  -29.7605  -39.4603 N.am      8 UNK        -0.4734 
     50 CA         22.5201  -28.8747  -39.3743 C.3       8 UNK         0.0238 
     51 CB         22.2145  -28.4879  -37.9129 C.3       8 UNK        -0.1912 
     52 C          21.2506  -29.3680  -40.1049 C.2       8 UNK         0.5038 
     53 O          20.3010  -28.5909  -40.2022 O.2       8 UNK        -0.5046 
     54 N          21.2515  -30.6052  -40.6235 N.am      9 UNK        -0.4200 
     55 CA         20.1168  -31.3094  -41.2376 C.3       9 UNK         0.0839 
     56 C          18.8992  -31.4159  -40.2714 C.2       9 UNK         0.5513 
     57 N          17.7886  -30.7317  -40.5149 N.am      9 UNK        -0.7519 
     58 O          18.9556  -32.1610  -39.2959 O.2       9 UNK        -0.4960 
     59 C59        19.8034  -30.8208  -42.6794 C.3       10 UNK        -0.0876 
     60 S60        18.8400  -32.0506  -43.6350 S.3       10 UNK        -0.2414 
     61 C61        19.6940  -32.0810  -45.2465 C.3       10 UNK         0.0169 
     62 H62        13.2912  -29.8355  -40.0294 H         1 UNK         0.0903 
     63 H63        11.8773  -29.7018  -41.0787 H         1 UNK         0.0903 
     64 H64        13.1853  -30.8106  -41.4961 H         1 UNK         0.0903 
     65 H65        14.5155  -30.0177  -43.1115 H         1 UNK         0.3096 
     66 H66        14.5438  -27.2231  -43.8675 H         1 UNK         0.1121 
     67 H67        14.7007  -29.2439  -45.4725 H         1 UNK         0.0849 
     68 H68        16.3376  -29.4636  -44.9173 H         1 UNK         0.0849 
     69 H69        16.3102  -29.3171  -47.8061 H         1 UNK         0.0865 
     70 H70        17.1108  -27.8871  -48.4014 H         1 UNK         0.0865 
     71 H71        17.5278  -30.9252  -46.4228 H         1 UNK         0.1346 
     72 H72        21.6710  -30.2546  -45.6035 H         1 UNK         0.1412 
     73 H73        19.3061  -27.1347  -47.3496 H         1 UNK         0.1426 
     74 H74        22.4180  -27.7690  -47.3295 H         1 UNK         0.0716 
     75 H75        21.4630  -26.6012  -46.4445 H         1 UNK         0.0716 
     76 H76        20.7442  -28.1008  -43.9218 H         1 UNK         0.0695 
     77 H77        22.0165  -28.4518  -42.8143 H         1 UNK         0.0695 
     78 H78        21.6676  -25.5699  -43.7875 H         1 UNK         0.0983 
     79 H79        20.2472  -26.1245  -41.3762 H         1 UNK         0.3095 
     80 H80        17.9938  -26.2334  -41.2414 H         1 UNK         0.0454 
     81 H81        16.6847  -24.1114  -41.3184 H         1 UNK         0.0851 
     82 H82        17.4073  -23.7000  -42.8745 H         1 UNK         0.0851 
     83 H83        18.4050  -23.7803  -41.4299 H         1 UNK         0.0851 
     84 H84        16.1007  -25.7132  -43.4032 H         1 UNK         0.2976 
     85 H85        24.0439  -26.7298  -43.1522 H         1 UNK         0.3116 
     86 H86        24.6714  -26.2842  -40.3025 H         1 UNK         0.0646 
     87 H87        25.1947  -24.0728  -41.2401 H         1 UNK         0.0847 
     88 H88        26.6952  -24.9153  -40.8953 H         1 UNK         0.0847 
     89 H89        26.1238  -24.7827  -42.5543 H         1 UNK         0.0847 
     90 H90        26.3696  -26.8367  -43.4156 H         1 UNK         0.3040 
     91 H91        28.3141  -28.5315  -42.4343 H         1 UNK         0.1015 
     92 H92        27.1918  -28.3466  -45.2830 H         1 UNK         0.0786 
     93 H93        28.7394  -29.0589  -44.8486 H         1 UNK         0.0786 
     94 H94        28.4718  -27.3431  -44.5987 H         1 UNK         0.0786 
     95 H95        25.1117  -29.4793  -43.5785 H         1 UNK         0.3172 
     96 H96        25.6705  -32.3546  -43.5592 H         1 UNK         0.0595 
     97 H97        23.0439  -30.8273  -43.8877 H         1 UNK         0.0839 
     98 H98        23.3093  -32.5253  -44.2572 H         1 UNK         0.0839 
     99 H99        24.1068  -31.2914  -45.2186 H         1 UNK         0.0839 
    100 H100       26.2710  -31.1823  -41.0662 H         1 UNK         0.2998 
    101 H101       25.9761  -31.2140  -38.8554 H         1 UNK         0.0822 
    102 H102       25.0807  -33.2890  -37.8358 H         1 UNK         0.0787 
    103 H103       24.3293  -33.7550  -39.3547 H         1 UNK         0.0787 
    104 H104       26.0858  -33.6890  -39.2188 H         1 UNK         0.0787 
    105 H105       24.4570  -29.4019  -40.0254 H         1 UNK         0.3055 
    106 H106       22.8175  -27.9620  -39.8863 H         1 UNK         0.1106 
    107 H107       23.1007  -28.1008  -37.4103 H         1 UNK         0.0828 
    108 H108       21.4531  -27.7079  -37.8694 H         1 UNK         0.0828 
    109 H109       21.8405  -29.3337  -37.3358 H         1 UNK         0.0828 
    110 H110       22.0828  -31.1719  -40.5064 H         1 UNK         0.2931 
    111 H111       20.4837  -32.3320  -41.3385 H         1 UNK         0.0412 
    112 H112       17.0115  -30.8251  -39.8818 H         1 UNK         0.3472 
    113 H113       17.7313  -30.0668  -41.2800 H         1 UNK         0.3472 
    114 H114       19.2866  -29.8611  -42.6768 H         1 UNK         0.0970 
    115 H115       20.7421  -30.6463  -43.2033 H         1 UNK         0.0970 
    116 H116       19.2338  -32.8412  -45.8791 H         1 UNK         0.0612 
    117 H117       20.7317  -32.3850  -45.1004 H         1 UNK         0.0612 
@<TRIPOS>BOND
     1    1    2 1    
     2    1   62 1    
     3    1   63 1    
     4    1   64 1    
     5    2    3 2    
     6    2    4 am   BACKBONE|DICT|INTERRES
     7    4    5 1    
     8    4   65 1    
     9    5    6 1    
    10    5   25 1    
    11    5   66 1    
    12    6    7 1    
    13    6   67 1    
    14    6   68 1    
    15    7    8 1    
    16    8    9 1    
    17    8   69 1    
    18    8   70 1    
    19    9   10 ar   
    20    9   14 ar   
    21   10   11 ar   
    22   10   71 1    
    23   11   12 ar   
    24   11   61 1    
    25   12   13 ar   
    26   12   72 1    
    27   13   14 ar   
    28   13   15 1    
    29   14   73 1    
    30   15   16 1    
    31   15   74 1    
    32   15   75 1    
    33   16   17 1    
    34   17   18 1    
    35   17   76 1    
    36   17   77 1    
    37   18   19 1    
    38   18   27 1    
    39   18   78 1    
    40   19   20 am   BACKBONE|DICT|INTERRES
    41   19   79 1    
    42   20   21 2    
    43   20   22 1    
    44   22   23 1    
    45   22   24 1    
    46   22   80 1    
    47   23   81 1    
    48   23   82 1    
    49   23   83 1    
    50   24   25 am   BACKBONE|DICT|INTERRES
    51   24   84 1    
    52   25   26 2    
    53   27   28 2    
    54   27   29 am   BACKBONE|DICT|INTERRES
    55   29   30 1    
    56   29   85 1    
    57   30   31 1    
    58   30   32 1    
    59   30   86 1    
    60   31   87 1    
    61   31   88 1    
    62   31   89 1    
    63   32   33 2    
    64   32   34 am   BACKBONE|DICT|INTERRES
    65   34   35 1    
    66   34   90 1    
    67   35   36 1    
    68   35   37 1    
    69   35   91 1    
    70   36   92 1    
    71   36   93 1    
    72   36   94 1    
    73   37   38 2    
    74   37   39 am   BACKBONE|DICT|INTERRES
    75   39   40 1    
    76   39   95 1    
    77   40   41 1    
    78   40   42 1    
    79   40   96 1    
    80   41   97 1    
    81   41   98 1    
    82   41   99 1    
    83   42   43 2    
    84   42   44 am   BACKBONE|DICT|INTERRES
    85   44   45 1    
    86   44  100 1    
    87   45   46 1    
    88   45   47 1    
    89   45  101 1    
    90   46  102 1    
    91   46  103 1    
    92   46  104 1    
    93   47   48 2    
    94   47   49 am   BACKBONE|DICT|INTERRES
    95   49   50 1    
    96   49  105 1    
    97   50   51 1    
    98   50   52 1    
    99   50  106 1    
   100   51  107 1    
   101   51  108 1    
   102   51  109 1    
   103   52   53 2    
   104   52   54 am   BACKBONE|DICT|INTERRES
   105   54   55 1    
   106   54  110 1    
   107   55   56 1    
   108   55   59 1    
   109   55  111 1    
   110   56   57 am   BACKBONE|DICT|INTERRES
   111   56   58 2    
   112   57  112 1    
   113   57  113 1    
   114   59   60 1    
   115   59  114 1    
   116   59  115 1    
   117   60   61 1    
   118   61  116 1    
   119   61  117 1    
@<TRIPOS>SUBSTRUCTURE
     1 UNK         1 GROUP             0       ****    0 ROOT    
