@<TRIPOS>MOLECULE
3R8
117   119    1
SMALL
USER_CHARGES


@<TRIPOS>ATOM
      1 CA         21.3560  -28.4120  -47.4280 C.3       0 UNK        -0.2013 
      2 C          20.3042  -28.1192  -46.3695 C.2       0 UNK         0.4866 
      3 O          20.4332  -28.5811  -45.2371 O.2       0 UNK        -0.5176 
      4 N          19.2715  -27.3407  -46.7220 N.am      1 UNK        -0.4884 
      5 CA         18.1430  -27.0047  -45.8391 C.3       1 UNK         0.0853 
      6 C6         16.8226  -26.7596  -46.6143 C.3       10 UNK        -0.0849 
      7 S7         16.3327  -28.1935  -47.6351 S.3       10 UNK        -0.2776 
      8 C8         15.2635  -29.1334  -46.4910 C.3       10 UNK         0.0316 
      9 C9         16.0357  -29.6567  -45.2864 C.ar      10 UNK        -0.0863 
     10 C10        17.0128  -30.6433  -45.4536 C.ar      10 UNK        -0.1009 
     11 C11        17.7639  -31.0886  -44.3623 C.ar      10 UNK        -0.0712 
     12 C12        17.5269  -30.5504  -43.0937 C.ar      10 UNK        -0.0894 
     13 C13        16.5362  -29.5832  -42.9092 C.ar      10 UNK        -0.0745 
     14 C14        15.7939  -29.1392  -44.0090 C.ar      10 UNK        -0.0972 
     15 C15        16.2458  -29.0329  -41.5214 C.3       10 UNK         0.0209 
     16 S16        16.9985  -27.3951  -41.2753 S.3       10 UNK        -0.2568 
     17 C17        18.5360  -27.7499  -40.3494 C.3       10 UNK        -0.0983 
     18 CA         19.8505  -27.4426  -41.1207 C.3       3 UNK         0.0876 
     19 N          19.7626  -26.2103  -41.9163 N.am      3 UNK        -0.4424 
     20 C          20.7367  -25.6415  -42.6397 C.2       2 UNK         0.4918 
     21 O          21.9279  -25.9429  -42.5620 O.2       2 UNK        -0.4875 
     22 CA         20.2726  -24.6273  -43.6995 C.3       2 UNK         0.0481 
     23 CB         21.4217  -23.7472  -44.2225 C.3       2 UNK        -0.1831 
     24 N          19.7026  -25.3858  -44.8123 N.am      2 UNK        -0.4498 
     25 C          18.4520  -25.8665  -44.8427 C.2       1 UNK         0.5027 
     26 O          17.5687  -25.4758  -44.0787 O.2       1 UNK        -0.4969 
     27 C          21.0474  -27.4786  -40.1482 C.2       3 UNK         0.5005 
     28 O          21.7674  -28.4773  -40.0986 O.2       3 UNK        -0.5279 
     29 N          21.2404  -26.3793  -39.4054 N.am      4 UNK        -0.4463 
     30 CA         22.3061  -26.2224  -38.4129 C.3       4 UNK         0.0283 
     31 CB         21.9492  -25.0710  -37.4594 C.3       4 UNK        -0.1875 
     32 C          23.6920  -25.9895  -39.0363 C.2       4 UNK         0.4949 
     33 O          24.6881  -26.4097  -38.4490 O.2       4 UNK        -0.5039 
     34 N          23.7387  -25.3358  -40.2058 N.am      5 UNK        -0.4663 
     35 CA         24.9720  -25.0862  -40.9588 C.3       5 UNK         0.0242 
     36 CB         24.7539  -23.9317  -41.9497 C.3       5 UNK        -0.1982 
     37 C          25.4510  -26.3501  -41.6876 C.2       5 UNK         0.5017 
     38 O          26.6517  -26.6217  -41.7096 O.2       5 UNK        -0.5012 
     39 N          24.4963  -27.1128  -42.2381 N.am      6 UNK        -0.4439 
     40 CA         24.7113  -28.4312  -42.8364 C.3       6 UNK         0.0297 
     41 CB         23.4473  -28.8372  -43.6117 C.3       6 UNK        -0.2006 
     42 C          25.0720  -29.5127  -41.8003 C.2       6 UNK         0.4892 
     43 O          25.7403  -30.4817  -42.1615 O.2       6 UNK        -0.5089 
     44 N          24.6267  -29.3153  -40.5485 N.am      7 UNK        -0.4243 
     45 CA         24.6884  -30.2391  -39.4110 C.3       7 UNK         0.0196 
     46 CB         26.1453  -30.5631  -39.0156 C.3       7 UNK        -0.2007 
     47 C          23.8223  -31.4837  -39.6748 C.2       7 UNK         0.5020 
     48 O          24.3089  -32.6126  -39.5845 O.2       7 UNK        -0.5147 
     49 N          22.5500  -31.2244  -40.0127 N.am      8 UNK        -0.4734 
     50 CA         21.5263  -32.1653  -40.4848 C.3       8 UNK         0.0238 
     51 CB         21.2630  -33.2812  -39.4484 C.3       8 UNK        -0.1912 
     52 C          21.8310  -32.7128  -41.8948 C.2       8 UNK         0.5038 
     53 O          22.7685  -32.2595  -42.5547 O.2       8 UNK        -0.5046 
     54 N          20.9847  -33.6360  -42.3632 N.am      9 UNK        -0.4200 
     55 CA         21.0725  -34.2394  -43.7003 C.3       9 UNK         0.0839 
     56 C          22.2157  -35.2846  -43.7985 C.2       9 UNK         0.5513 
     57 N          22.8352  -35.4185  -44.9632 N.am      9 UNK        -0.7519 
     58 O          22.5126  -36.0046  -42.8470 O.2       9 UNK        -0.4960 
     59 C59        19.7173  -34.8570  -44.1388 C.3       10 UNK        -0.0876 
     60 S60        18.2539  -33.7698  -43.9677 S.3       10 UNK        -0.2414 
     61 C61        18.8401  -32.1442  -44.5466 C.3       10 UNK         0.0169 
     62 H62        21.4231  -29.4860  -47.5996 H         1 UNK         0.0903 
     63 H63        21.1253  -27.9301  -48.3779 H         1 UNK         0.0903 
     64 H64        22.3317  -28.0592  -47.0949 H         1 UNK         0.0903 
     65 H65        19.2073  -26.9890  -47.6674 H         1 UNK         0.3096 
     66 H66        17.9808  -27.8675  -45.1929 H         1 UNK         0.1121 
     67 H67        16.9230  -25.8909  -47.2672 H         1 UNK         0.0849 
     68 H68        16.0037  -26.5291  -45.9298 H         1 UNK         0.0849 
     69 H69        14.4271  -28.5060  -46.1788 H         1 UNK         0.0865 
     70 H70        14.8268  -29.9767  -47.0278 H         1 UNK         0.0865 
     71 H71        17.2023  -31.0467  -46.4390 H         1 UNK         0.1346 
     72 H72        18.1054  -30.8976  -42.2487 H         1 UNK         0.1412 
     73 H73        15.0376  -28.3787  -43.8682 H         1 UNK         0.1426 
     74 H74        16.5718  -29.7285  -40.7471 H         1 UNK         0.0716 
     75 H75        15.1662  -28.9364  -41.3968 H         1 UNK         0.0716 
     76 H76        18.4786  -27.1510  -39.4381 H         1 UNK         0.0695 
     77 H77        18.5366  -28.7894  -40.0175 H         1 UNK         0.0695 
     78 H78        20.0068  -28.2470  -41.8432 H         1 UNK         0.0983 
     79 H79        18.8145  -25.9018  -42.0946 H         1 UNK         0.3095 
     80 H80        19.5175  -23.9749  -43.2561 H         1 UNK         0.0454 
     81 H81        21.8632  -23.1656  -43.4127 H         1 UNK         0.0851 
     82 H82        22.2188  -24.3392  -44.6743 H         1 UNK         0.0851 
     83 H83        21.0670  -23.0393  -44.9716 H         1 UNK         0.0851 
     84 H84        20.3628  -25.7937  -45.4587 H         1 UNK         0.2976 
     85 H85        20.6034  -25.6042  -39.5240 H         1 UNK         0.3116 
     86 H86        22.3614  -27.1418  -37.8254 H         1 UNK         0.0646 
     87 H87        22.7144  -24.9501  -36.6912 H         1 UNK         0.0847 
     88 H88        21.0058  -25.2578  -36.9460 H         1 UNK         0.0847 
     89 H89        21.8642  -24.1194  -37.9856 H         1 UNK         0.0847 
     90 H90        22.8700  -25.0823  -40.6563 H         1 UNK         0.3040 
     91 H91        25.7547  -24.7883  -40.2570 H         1 UNK         0.1015 
     92 H92        24.4247  -23.0261  -41.4400 H         1 UNK         0.0786 
     93 H93        24.0110  -24.1817  -42.7068 H         1 UNK         0.0786 
     94 H94        25.6802  -23.6905  -42.4730 H         1 UNK         0.0786 
     95 H95        23.5393  -26.7635  -42.2306 H         1 UNK         0.3172 
     96 H96        25.5400  -28.3538  -43.5432 H         1 UNK         0.0595 
     97 H97        23.2085  -28.1163  -44.3937 H         1 UNK         0.0839 
     98 H98        22.5787  -28.9157  -42.9561 H         1 UNK         0.0839 
     99 H99        23.5767  -29.8082  -44.0920 H         1 UNK         0.0839 
    100 H100       24.0453  -28.5007  -40.4005 H         1 UNK         0.2998 
    101 H101       24.2308  -29.7158  -38.5697 H         1 UNK         0.0822 
    102 H102       26.7182  -29.6528  -38.8387 H         1 UNK         0.0787 
    103 H103       26.1745  -31.1501  -38.0970 H         1 UNK         0.0787 
    104 H104       26.6603  -31.1409  -39.7833 H         1 UNK         0.0787 
    105 H105       22.2832  -30.2418  -40.0707 H         1 UNK         0.3055 
    106 H106       20.6128  -31.5758  -40.5797 H         1 UNK         0.1106 
    107 H107       22.0730  -34.0110  -39.4216 H         1 UNK         0.0828 
    108 H108       21.1501  -32.8712  -38.4448 H         1 UNK         0.0828 
    109 H109       20.3453  -33.8253  -39.6725 H         1 UNK         0.0828 
    110 H110       20.2422  -33.9774  -41.7722 H         1 UNK         0.2931 
    111 H111       21.3144  -33.4421  -44.4058 H         1 UNK         0.0412 
    112 H112       23.5692  -36.1043  -45.0518 H         1 UNK         0.3472 
    113 H113       22.5940  -34.8399  -45.7531 H         1 UNK         0.3472 
    114 H114       19.5143  -35.7636  -43.5651 H         1 UNK         0.0970 
    115 H115       19.7741  -35.1738  -45.1819 H         1 UNK         0.0970 
    116 H116       19.1389  -32.2174  -45.5934 H         1 UNK         0.0612 
    117 H117       19.7225  -31.8286  -43.9912 H         1 UNK         0.0612 
@<TRIPOS>BOND
     1    1    2 1    
     2    1   62 1    
     3    1   63 1    
     4    1   64 1    
     5    2    3 2    
     6    2    4 am   BACKBONE|DICT|INTERRES
     7    4    5 1    
     8    4   65 1    
     9    5    6 1    
    10    5   25 1    
    11    5   66 1    
    12    6    7 1    
    13    6   67 1    
    14    6   68 1    
    15    7    8 1    
    16    8    9 1    
    17    8   69 1    
    18    8   70 1    
    19    9   10 ar   
    20    9   14 ar   
    21   10   11 ar   
    22   10   71 1    
    23   11   12 ar   
    24   11   61 1    
    25   12   13 ar   
    26   12   72 1    
    27   13   14 ar   
    28   13   15 1    
    29   14   73 1    
    30   15   16 1    
    31   15   74 1    
    32   15   75 1    
    33   16   17 1    
    34   17   18 1    
    35   17   76 1    
    36   17   77 1    
    37   18   19 1    
    38   18   27 1    
    39   18   78 1    
    40   19   20 am   BACKBONE|DICT|INTERRES
    41   19   79 1    
    42   20   21 2    
    43   20   22 1    
    44   22   23 1    
    45   22   24 1    
    46   22   80 1    
    47   23   81 1    
    48   23   82 1    
    49   23   83 1    
    50   24   25 am   BACKBONE|DICT|INTERRES
    51   24   84 1    
    52   25   26 2    
    53   27   28 2    
    54   27   29 am   BACKBONE|DICT|INTERRES
    55   29   30 1    
    56   29   85 1    
    57   30   31 1    
    58   30   32 1    
    59   30   86 1    
    60   31   87 1    
    61   31   88 1    
    62   31   89 1    
    63   32   33 2    
    64   32   34 am   BACKBONE|DICT|INTERRES
    65   34   35 1    
    66   34   90 1    
    67   35   36 1    
    68   35   37 1    
    69   35   91 1    
    70   36   92 1    
    71   36   93 1    
    72   36   94 1    
    73   37   38 2    
    74   37   39 am   BACKBONE|DICT|INTERRES
    75   39   40 1    
    76   39   95 1    
    77   40   41 1    
    78   40   42 1    
    79   40   96 1    
    80   41   97 1    
    81   41   98 1    
    82   41   99 1    
    83   42   43 2    
    84   42   44 am   BACKBONE|DICT|INTERRES
    85   44   45 1    
    86   44  100 1    
    87   45   46 1    
    88   45   47 1    
    89   45  101 1    
    90   46  102 1    
    91   46  103 1    
    92   46  104 1    
    93   47   48 2    
    94   47   49 am   BACKBONE|DICT|INTERRES
    95   49   50 1    
    96   49  105 1    
    97   50   51 1    
    98   50   52 1    
    99   50  106 1    
   100   51  107 1    
   101   51  108 1    
   102   51  109 1    
   103   52   53 2    
   104   52   54 am   BACKBONE|DICT|INTERRES
   105   54   55 1    
   106   54  110 1    
   107   55   56 1    
   108   55   59 1    
   109   55  111 1    
   110   56   57 am   BACKBONE|DICT|INTERRES
   111   56   58 2    
   112   57  112 1    
   113   57  113 1    
   114   59   60 1    
   115   59  114 1    
   116   59  115 1    
   117   60   61 1    
   118   61  116 1    
   119   61  117 1    
@<TRIPOS>SUBSTRUCTURE
     1 UNK         1 GROUP             0       ****    0 ROOT    
