@<TRIPOS>MOLECULE
3R8
117   119    1
SMALL
USER_CHARGES


@<TRIPOS>ATOM
      1 CA         24.9842  -25.8089  -46.5848 C.3       0 UNK        -0.2013 
      2 C          24.2038  -26.2520  -45.3569 C.2       0 UNK         0.4866 
      3 O          24.4481  -25.7483  -44.2618 O.2       0 UNK        -0.5176 
      4 N          23.2728  -27.1985  -45.5282 N.am      1 UNK        -0.4884 
      5 CA         22.3980  -27.7175  -44.4718 C.3       1 UNK         0.0853 
      6 C6         21.7814  -29.0865  -44.8583 C.3       10 UNK        -0.0849 
      7 S7         20.9261  -29.0781  -46.4782 S.3       10 UNK        -0.2776 
      8 C8         20.1713  -30.7341  -46.5341 C.3       10 UNK         0.0316 
      9 C9         19.1035  -30.9020  -45.4648 C.ar      10 UNK        -0.0863 
     10 C10        19.3526  -31.6850  -44.3365 C.ar      10 UNK        -0.1009 
     11 C11        18.3873  -31.8151  -43.3341 C.ar      10 UNK        -0.0712 
     12 C12        17.1573  -31.1613  -43.4710 C.ar      10 UNK        -0.0894 
     13 C13        16.8880  -30.3900  -44.6081 C.ar      10 UNK        -0.0745 
     14 C14        17.8650  -30.2714  -45.6027 C.ar      10 UNK        -0.0972 
     15 C15        15.5311  -29.7182  -44.7876 C.3       10 UNK         0.0209 
     16 S16        15.6699  -27.9358  -45.1504 S.3       10 UNK        -0.2568 
     17 C17        15.8081  -27.2070  -43.4841 C.3       10 UNK        -0.0983 
     18 CA         17.2527  -27.1822  -42.9091 C.3       3 UNK         0.0876 
     19 N          18.2547  -26.6317  -43.8320 N.am      3 UNK        -0.4424 
     20 C          18.3832  -25.3585  -44.2325 C.2       2 UNK         0.4918 
     21 O          17.5423  -24.4862  -44.0128 O.2       2 UNK        -0.4875 
     22 CA         19.6937  -24.9692  -44.9559 C.3       2 UNK         0.0481 
     23 CB         20.3104  -23.6986  -44.3349 C.3       2 UNK        -0.1831 
     24 N          20.7201  -26.0217  -45.0454 N.am      2 UNK        -0.4498 
     25 C          21.3170  -26.7006  -44.0518 C.2       1 UNK         0.5027 
     26 O          21.0292  -26.5718  -42.8579 O.2       1 UNK        -0.4969 
     27 C          17.3097  -26.5040  -41.5140 C.2       3 UNK         0.5005 
     28 O          16.2896  -26.4490  -40.8232 O.2       3 UNK        -0.5279 
     29 N          18.4817  -25.9726  -41.1280 N.am      4 UNK        -0.4463 
     30 CA         18.6567  -25.1427  -39.9323 C.3       4 UNK         0.0283 
     31 CB         18.2452  -23.6877  -40.2249 C.3       4 UNK        -0.1875 
     32 C          20.0867  -25.2097  -39.3871 C.2       4 UNK         0.4949 
     33 O          20.2584  -25.3988  -38.1830 O.2       4 UNK        -0.5039 
     34 N          21.0895  -25.0765  -40.2690 N.am      5 UNK        -0.4663 
     35 CA         22.5057  -25.2658  -39.9281 C.3       5 UNK         0.0242 
     36 CB         23.3872  -24.6856  -41.0441 C.3       5 UNK        -0.1982 
     37 C          22.8378  -26.7467  -39.6748 C.2       5 UNK         0.5017 
     38 O          23.6846  -27.0466  -38.8336 O.2       5 UNK        -0.5012 
     39 N          22.1214  -27.6313  -40.3845 N.am      6 UNK        -0.4439 
     40 CA         22.0210  -29.0795  -40.1838 C.3       6 UNK         0.0297 
     41 CB         21.4092  -29.3934  -38.8013 C.3       6 UNK        -0.2006 
     42 C          23.3172  -29.8667  -40.4499 C.2       6 UNK         0.4892 
     43 O          23.4622  -30.9856  -39.9562 O.2       6 UNK        -0.5089 
     44 N          24.2180  -29.2905  -41.2579 N.am      7 UNK        -0.4243 
     45 CA         25.5406  -29.8271  -41.5981 C.3       7 UNK         0.0196 
     46 CB         26.2609  -28.8176  -42.5078 C.3       7 UNK        -0.2007 
     47 C          25.5410  -31.2235  -42.2506 C.2       7 UNK         0.5020 
     48 O          26.5295  -31.9447  -42.1133 O.2       7 UNK        -0.5147 
     49 N          24.4531  -31.5752  -42.9482 N.am      8 UNK        -0.4734 
     50 CA         24.2881  -32.8545  -43.6453 C.3       8 UNK         0.0238 
     51 CB         23.8177  -32.5723  -45.0833 C.3       8 UNK        -0.1912 
     52 C          23.3052  -33.8080  -42.9417 C.2       8 UNK         0.5038 
     53 O          23.1109  -34.9173  -43.4421 O.2       8 UNK        -0.5046 
     54 N          22.6754  -33.3789  -41.8383 N.am      9 UNK        -0.4200 
     55 CA         21.6698  -34.1730  -41.1132 C.3       9 UNK         0.0839 
     56 C          22.3035  -35.3220  -40.2831 C.2       9 UNK         0.5513 
     57 N          21.5596  -36.3936  -40.0442 N.am      9 UNK        -0.7519 
     58 O          23.4411  -35.2396  -39.8240 O.2       9 UNK        -0.4960 
     59 C59        20.7362  -33.3000  -40.2309 C.3       10 UNK        -0.0876 
     60 S60        19.9995  -31.8870  -41.1181 S.3       10 UNK        -0.2414 
     61 C61        18.6936  -32.6664  -42.1115 C.3       10 UNK         0.0169 
     62 H62        24.6716  -26.3428  -47.4820 H         1 UNK         0.0903 
     63 H63        24.8386  -24.7426  -46.7561 H         1 UNK         0.0903 
     64 H64        26.0487  -25.9882  -46.4367 H         1 UNK         0.0903 
     65 H65        23.1159  -27.5883  -46.4481 H         1 UNK         0.3096 
     66 H66        23.0180  -27.8779  -43.5881 H         1 UNK         0.1121 
     67 H67        22.5762  -29.8302  -44.9088 H         1 UNK         0.0849 
     68 H68        21.0979  -29.4319  -44.0802 H         1 UNK         0.0849 
     69 H69        20.9473  -31.4940  -46.4384 H         1 UNK         0.0865 
     70 H70        19.7222  -30.8838  -47.5170 H         1 UNK         0.0865 
     71 H71        20.3059  -32.1835  -44.2240 H         1 UNK         0.1346 
     72 H72        16.4071  -31.2634  -42.6987 H         1 UNK         0.1412 
     73 H73        17.6656  -29.6750  -46.4829 H         1 UNK         0.1426 
     74 H74        14.8949  -29.8680  -43.9141 H         1 UNK         0.0716 
     75 H75        15.0200  -30.2000  -45.6221 H         1 UNK         0.0716 
     76 H76        15.1382  -27.7496  -42.8148 H         1 UNK         0.0695 
     77 H77        15.4118  -26.1917  -43.5424 H         1 UNK         0.0695 
     78 H78        17.5508  -28.2171  -42.7357 H         1 UNK         0.0983 
     79 H79        18.9942  -27.2675  -44.0911 H         1 UNK         0.3095 
     80 H80        19.4118  -24.7357  -45.9834 H         1 UNK         0.0454 
     81 H81        21.2085  -23.3917  -44.8708 H         1 UNK         0.0851 
     82 H82        20.5808  -23.8470  -43.2896 H         1 UNK         0.0851 
     83 H83        19.6130  -22.8608  -44.3735 H         1 UNK         0.0851 
     84 H84        21.0123  -26.2539  -45.9850 H         1 UNK         0.2976 
     85 H85        19.2913  -26.1108  -41.7216 H         1 UNK         0.3116 
     86 H86        18.0073  -25.5267  -39.1421 H         1 UNK         0.0646 
     87 H87        18.4032  -23.0522  -39.3524 H         1 UNK         0.0847 
     88 H88        17.1890  -23.6194  -40.4858 H         1 UNK         0.0847 
     89 H89        18.8185  -23.2626  -41.0494 H         1 UNK         0.0847 
     90 H90        20.8816  -24.9247  -41.2455 H         1 UNK         0.3040 
     91 H91        22.7172  -24.7192  -39.0061 H         1 UNK         0.1015 
     92 H92        23.2130  -23.6172  -41.1721 H         1 UNK         0.0786 
     93 H93        23.2004  -25.1709  -42.0014 H         1 UNK         0.0786 
     94 H94        24.4458  -24.8159  -40.8148 H         1 UNK         0.0786 
     95 H95        21.5214  -27.2476  -41.1087 H         1 UNK         0.3172 
     96 H96        21.3144  -29.4111  -40.9431 H         1 UNK         0.0595 
     97 H97        22.0821  -29.1164  -37.9894 H         1 UNK         0.0839 
     98 H98        21.1965  -30.4571  -38.6937 H         1 UNK         0.0839 
     99 H99        20.4688  -28.8621  -38.6545 H         1 UNK         0.0839 
    100 H100       24.0193  -28.3548  -41.5779 H         1 UNK         0.2998 
    101 H101       26.1021  -29.9106  -40.6653 H         1 UNK         0.0822 
    102 H102       25.7258  -28.6655  -43.4463 H         1 UNK         0.0787 
    103 H103       26.3672  -27.8474  -42.0217 H         1 UNK         0.0787 
    104 H104       27.2651  -29.1632  -42.7579 H         1 UNK         0.0787 
    105 H105       23.6827  -30.9258  -42.9922 H         1 UNK         0.3055 
    106 H106       25.2444  -33.3794  -43.7036 H         1 UNK         0.1106 
    107 H107       23.8025  -33.4882  -45.6757 H         1 UNK         0.0828 
    108 H108       22.8094  -32.1612  -45.1023 H         1 UNK         0.0828 
    109 H109       24.4806  -31.8721  -45.5921 H         1 UNK         0.0828 
    110 H110       22.9404  -32.4982  -41.4155 H         1 UNK         0.2931 
    111 H111       21.0406  -34.6460  -41.8695 H         1 UNK         0.0412 
    112 H112       20.6234  -36.4730  -40.4107 H         1 UNK         0.3472 
    113 H113       21.9465  -37.1460  -39.4954 H         1 UNK         0.3472 
    114 H114       19.9305  -33.9021  -39.8069 H         1 UNK         0.0970 
    115 H115       21.2932  -32.8996  -39.3815 H         1 UNK         0.0970 
    116 H116       19.0089  -33.6564  -42.4415 H         1 UNK         0.0612 
    117 H117       17.8063  -32.8085  -41.4930 H         1 UNK         0.0612 
@<TRIPOS>BOND
     1    1    2 1    
     2    1   62 1    
     3    1   63 1    
     4    1   64 1    
     5    2    3 2    
     6    2    4 am   BACKBONE|DICT|INTERRES
     7    4    5 1    
     8    4   65 1    
     9    5    6 1    
    10    5   25 1    
    11    5   66 1    
    12    6    7 1    
    13    6   67 1    
    14    6   68 1    
    15    7    8 1    
    16    8    9 1    
    17    8   69 1    
    18    8   70 1    
    19    9   10 ar   
    20    9   14 ar   
    21   10   11 ar   
    22   10   71 1    
    23   11   12 ar   
    24   11   61 1    
    25   12   13 ar   
    26   12   72 1    
    27   13   14 ar   
    28   13   15 1    
    29   14   73 1    
    30   15   16 1    
    31   15   74 1    
    32   15   75 1    
    33   16   17 1    
    34   17   18 1    
    35   17   76 1    
    36   17   77 1    
    37   18   19 1    
    38   18   27 1    
    39   18   78 1    
    40   19   20 am   BACKBONE|DICT|INTERRES
    41   19   79 1    
    42   20   21 2    
    43   20   22 1    
    44   22   23 1    
    45   22   24 1    
    46   22   80 1    
    47   23   81 1    
    48   23   82 1    
    49   23   83 1    
    50   24   25 am   BACKBONE|DICT|INTERRES
    51   24   84 1    
    52   25   26 2    
    53   27   28 2    
    54   27   29 am   BACKBONE|DICT|INTERRES
    55   29   30 1    
    56   29   85 1    
    57   30   31 1    
    58   30   32 1    
    59   30   86 1    
    60   31   87 1    
    61   31   88 1    
    62   31   89 1    
    63   32   33 2    
    64   32   34 am   BACKBONE|DICT|INTERRES
    65   34   35 1    
    66   34   90 1    
    67   35   36 1    
    68   35   37 1    
    69   35   91 1    
    70   36   92 1    
    71   36   93 1    
    72   36   94 1    
    73   37   38 2    
    74   37   39 am   BACKBONE|DICT|INTERRES
    75   39   40 1    
    76   39   95 1    
    77   40   41 1    
    78   40   42 1    
    79   40   96 1    
    80   41   97 1    
    81   41   98 1    
    82   41   99 1    
    83   42   43 2    
    84   42   44 am   BACKBONE|DICT|INTERRES
    85   44   45 1    
    86   44  100 1    
    87   45   46 1    
    88   45   47 1    
    89   45  101 1    
    90   46  102 1    
    91   46  103 1    
    92   46  104 1    
    93   47   48 2    
    94   47   49 am   BACKBONE|DICT|INTERRES
    95   49   50 1    
    96   49  105 1    
    97   50   51 1    
    98   50   52 1    
    99   50  106 1    
   100   51  107 1    
   101   51  108 1    
   102   51  109 1    
   103   52   53 2    
   104   52   54 am   BACKBONE|DICT|INTERRES
   105   54   55 1    
   106   54  110 1    
   107   55   56 1    
   108   55   59 1    
   109   55  111 1    
   110   56   57 am   BACKBONE|DICT|INTERRES
   111   56   58 2    
   112   57  112 1    
   113   57  113 1    
   114   59   60 1    
   115   59  114 1    
   116   59  115 1    
   117   60   61 1    
   118   61  116 1    
   119   61  117 1    
@<TRIPOS>SUBSTRUCTURE
     1 UNK         1 GROUP             0       ****    0 ROOT    
