@<TRIPOS>MOLECULE
3R8
117   119    1
SMALL
USER_CHARGES


@<TRIPOS>ATOM
      1 CA         17.1457  -26.8650  -49.7676 C.3       0 UNK        -0.2013 
      2 C          17.3668  -27.1415  -48.2885 C.2       0 UNK         0.4866 
      3 O          18.3996  -27.6999  -47.9153 O.2       0 UNK        -0.5176 
      4 N          16.4127  -26.7465  -47.4359 N.am      1 UNK        -0.4884 
      5 CA         16.4347  -26.9376  -45.9791 C.3       1 UNK         0.0853 
      6 C6         15.0009  -26.9971  -45.3908 C.3       10 UNK        -0.0849 
      7 S7         14.2002  -28.5752  -45.8433 S.3       10 UNK        -0.2776 
      8 C8         14.1242  -29.4726  -44.2515 C.3       10 UNK         0.0316 
      9 C9         15.4177  -29.4109  -43.4424 C.ar      10 UNK        -0.0863 
     10 C10        16.6194  -29.8946  -43.9693 C.ar      10 UNK        -0.1009 
     11 C11        17.8026  -29.8088  -43.2294 C.ar      10 UNK        -0.0712 
     12 C12        17.7679  -29.2864  -41.9335 C.ar      10 UNK        -0.0894 
     13 C13        16.5745  -28.7943  -41.3907 C.ar      10 UNK        -0.0745 
     14 C14        15.4064  -28.8615  -42.1563 C.ar      10 UNK        -0.0972 
     15 C15        16.4918  -28.2169  -39.9758 C.3       10 UNK         0.0209 
     16 S16        18.0274  -27.4598  -39.3363 S.3       10 UNK        -0.2568 
     17 C17        18.2739  -26.0414  -40.4598 C.3       10 UNK        -0.0983 
     18 CA         19.5428  -26.2020  -41.3393 C.3       3 UNK         0.0876 
     19 N          19.3577  -25.5919  -42.6641 N.am      3 UNK        -0.4424 
     20 C          20.1349  -25.8123  -43.7318 C.2       2 UNK         0.4918 
     21 O          21.1408  -26.5213  -43.7046 O.2       2 UNK        -0.4875 
     22 CA         19.7017  -25.1359  -45.0421 C.3       2 UNK         0.0481 
     23 CB         20.8639  -25.0084  -46.0433 C.3       2 UNK        -0.1831 
     24 N          18.6261  -25.9052  -45.6593 N.am      2 UNK        -0.4498 
     25 C          17.3423  -25.9031  -45.2812 C.2       1 UNK         0.5027 
     26 O          16.8882  -25.1386  -44.4268 O.2       1 UNK        -0.4969 
     27 C          20.8402  -25.7682  -40.6107 C.2       3 UNK         0.5005 
     28 O          21.2064  -26.3749  -39.6034 O.2       3 UNK        -0.5279 
     29 N          21.5448  -24.7621  -41.1499 N.am      4 UNK        -0.4463 
     30 CA         22.9055  -24.3835  -40.7618 C.3       4 UNK         0.0283 
     31 CB         23.2647  -23.0473  -41.4319 C.3       4 UNK        -0.1875 
     32 C          23.9642  -25.4550  -41.0992 C.2       4 UNK         0.4949 
     33 O          25.0417  -25.4295  -40.5037 O.2       4 UNK        -0.5039 
     34 N          23.6611  -26.3672  -42.0372 N.am      5 UNK        -0.4663 
     35 CA         24.5010  -27.5140  -42.3832 C.3       5 UNK         0.0242 
     36 CB         24.0245  -28.1135  -43.7166 C.3       5 UNK        -0.1982 
     37 C          24.4838  -28.5581  -41.2524 C.2       5 UNK         0.5017 
     38 O          23.4784  -29.2485  -41.0671 O.2       5 UNK        -0.5012 
     39 N          25.5922  -28.6269  -40.5059 N.am      6 UNK        -0.4439 
     40 CA         25.8124  -29.5431  -39.3856 C.3       6 UNK         0.0297 
     41 CB         27.0607  -29.0741  -38.6164 C.3       6 UNK        -0.2006 
     42 C          25.9656  -31.0099  -39.8299 C.2       6 UNK         0.4892 
     43 O          26.1067  -31.2884  -41.0228 O.2       6 UNK        -0.5089 
     44 N          25.9592  -31.9161  -38.8407 N.am      7 UNK        -0.4243 
     45 CA         26.1336  -33.3694  -38.9752 C.3       7 UNK         0.0196 
     46 CB         27.5667  -33.7085  -39.4413 C.3       7 UNK        -0.2007 
     47 C          25.0431  -34.0228  -39.8465 C.2       7 UNK         0.5020 
     48 O          25.3518  -34.8502  -40.7051 O.2       7 UNK        -0.5147 
     49 N          23.7862  -33.6282  -39.5907 N.am      8 UNK        -0.4734 
     50 CA         22.5600  -34.0589  -40.2730 C.3       8 UNK         0.0238 
     51 CB         22.2867  -35.5595  -40.0275 C.3       8 UNK        -0.1912 
     52 C          22.5612  -33.6812  -41.7659 C.2       8 UNK         0.5038 
     53 O          22.5363  -34.5632  -42.6273 O.2       8 UNK        -0.5046 
     54 N          22.5742  -32.3676  -42.0300 N.am      9 UNK        -0.4200 
     55 CA         22.4855  -31.7595  -43.3686 C.3       9 UNK         0.0839 
     56 C          23.7724  -31.9359  -44.2295 C.2       9 UNK         0.5513 
     57 N          24.9554  -32.0325  -43.6362 N.am      9 UNK        -0.7519 
     58 O          23.7097  -31.9657  -45.4561 O.2       9 UNK        -0.4960 
     59 C59        21.1838  -32.1358  -44.1424 C.3       10 UNK        -0.0876 
     60 S60        19.6495  -31.8645  -43.1881 S.3       10 UNK        -0.2414 
     61 C61        19.1255  -30.2510  -43.8359 C.3       10 UNK         0.0169 
     62 H62        16.1930  -26.3691  -49.9523 H         1 UNK         0.0903 
     63 H63        17.9409  -26.2274  -50.1528 H         1 UNK         0.0903 
     64 H64        17.1559  -27.7992  -50.3285 H         1 UNK         0.0903 
     65 H65        15.5940  -26.2773  -47.7974 H         1 UNK         0.3096 
     66 H66        16.9097  -27.8991  -45.7775 H         1 UNK         0.1121 
     67 H67        14.3953  -26.1670  -45.7581 H         1 UNK         0.0849 
     68 H68        15.0051  -26.8990  -44.3041 H         1 UNK         0.0849 
     69 H69        13.2904  -29.0711  -43.6734 H         1 UNK         0.0865 
     70 H70        13.8791  -30.5172  -44.4479 H         1 UNK         0.0865 
     71 H71        16.6354  -30.3126  -44.9668 H         1 UNK         0.1346 
     72 H72        18.6784  -29.2684  -41.3526 H         1 UNK         0.1412 
     73 H73        14.4786  -28.4896  -41.7425 H         1 UNK         0.1426 
     74 H74        15.6990  -27.4689  -39.9228 H         1 UNK         0.0716 
     75 H75        16.2003  -29.0203  -39.2983 H         1 UNK         0.0716 
     76 H76        18.3087  -25.1207  -39.8744 H         1 UNK         0.0695 
     77 H77        17.3850  -25.9551  -41.0874 H         1 UNK         0.0695 
     78 H78        19.6859  -27.2643  -41.5388 H         1 UNK         0.0983 
     79 H79        18.5237  -25.0328  -42.7927 H         1 UNK         0.3095 
     80 H80        19.3430  -24.1307  -44.8111 H         1 UNK         0.0454 
     81 H81        20.5540  -24.4786  -46.9441 H         1 UNK         0.0851 
     82 H82        21.6942  -24.4503  -45.6085 H         1 UNK         0.0851 
     83 H83        21.2496  -25.9831  -46.3455 H         1 UNK         0.0851 
     84 H84        18.8911  -26.5664  -46.3843 H         1 UNK         0.2976 
     85 H85        21.1643  -24.3094  -41.9678 H         1 UNK         0.3116 
     86 H86        22.9197  -24.2393  -39.6794 H         1 UNK         0.0646 
     87 H87        22.5691  -22.2581  -41.1459 H         1 UNK         0.0847 
     88 H88        24.2621  -22.7189  -41.1359 H         1 UNK         0.0847 
     89 H89        23.2585  -23.1256  -42.5199 H         1 UNK         0.0847 
     90 H90        22.7489  -26.3353  -42.4809 H         1 UNK         0.3040 
     91 H91        25.5245  -27.1607  -42.5275 H         1 UNK         0.1015 
     92 H92        22.9924  -28.4592  -43.6593 H         1 UNK         0.0786 
     93 H93        24.6422  -28.9655  -44.0028 H         1 UNK         0.0786 
     94 H94        24.0838  -27.3827  -44.5233 H         1 UNK         0.0786 
     95 H95        26.3585  -28.0100  -40.7330 H         1 UNK         0.3172 
     96 H96        24.9466  -29.4789  -38.7232 H         1 UNK         0.0595 
     97 H97        27.9602  -29.1395  -39.2303 H         1 UNK         0.0839 
     98 H98        27.2326  -29.6788  -37.7252 H         1 UNK         0.0839 
     99 H99        26.9569  -28.0411  -38.2831 H         1 UNK         0.0839 
    100 H100       25.8308  -31.5818  -37.8952 H         1 UNK         0.2998 
    101 H101       26.0103  -33.7886  -37.9752 H         1 UNK         0.0822 
    102 H102       27.7383  -34.7855  -39.4242 H         1 UNK         0.0787 
    103 H103       27.7540  -33.3669  -40.4599 H         1 UNK         0.0787 
    104 H104       28.3137  -33.2522  -38.7919 H         1 UNK         0.0787 
    105 H105       23.6597  -32.9300  -38.8707 H         1 UNK         0.3055 
    106 H106       21.7361  -33.5056  -39.8183 H         1 UNK         0.1106 
    107 H107       21.3306  -35.8549  -40.4612 H         1 UNK         0.0828 
    108 H108       23.0522  -36.1950  -40.4736 H         1 UNK         0.0828 
    109 H109       22.2424  -35.7860  -38.9623 H         1 UNK         0.0828 
    110 H110       22.6470  -31.7103  -41.2661 H         1 UNK         0.2931 
    111 H111       22.4271  -30.6881  -43.1823 H         1 UNK         0.0412 
    112 H112       25.7775  -32.1452  -44.2069 H         1 UNK         0.3472 
    113 H113       25.0597  -31.9418  -42.6314 H         1 UNK         0.3472 
    114 H114       21.1216  -31.5697  -45.0735 H         1 UNK         0.0970 
    115 H115       21.2111  -33.1840  -44.4436 H         1 UNK         0.0970 
    116 H116       19.0436  -30.3050  -44.9227 H         1 UNK         0.0612 
    117 H117       19.8947  -29.5073  -43.6193 H         1 UNK         0.0612 
@<TRIPOS>BOND
     1    1    2 1    
     2    1   62 1    
     3    1   63 1    
     4    1   64 1    
     5    2    3 2    
     6    2    4 am   BACKBONE|DICT|INTERRES
     7    4    5 1    
     8    4   65 1    
     9    5    6 1    
    10    5   25 1    
    11    5   66 1    
    12    6    7 1    
    13    6   67 1    
    14    6   68 1    
    15    7    8 1    
    16    8    9 1    
    17    8   69 1    
    18    8   70 1    
    19    9   10 ar   
    20    9   14 ar   
    21   10   11 ar   
    22   10   71 1    
    23   11   12 ar   
    24   11   61 1    
    25   12   13 ar   
    26   12   72 1    
    27   13   14 ar   
    28   13   15 1    
    29   14   73 1    
    30   15   16 1    
    31   15   74 1    
    32   15   75 1    
    33   16   17 1    
    34   17   18 1    
    35   17   76 1    
    36   17   77 1    
    37   18   19 1    
    38   18   27 1    
    39   18   78 1    
    40   19   20 am   BACKBONE|DICT|INTERRES
    41   19   79 1    
    42   20   21 2    
    43   20   22 1    
    44   22   23 1    
    45   22   24 1    
    46   22   80 1    
    47   23   81 1    
    48   23   82 1    
    49   23   83 1    
    50   24   25 am   BACKBONE|DICT|INTERRES
    51   24   84 1    
    52   25   26 2    
    53   27   28 2    
    54   27   29 am   BACKBONE|DICT|INTERRES
    55   29   30 1    
    56   29   85 1    
    57   30   31 1    
    58   30   32 1    
    59   30   86 1    
    60   31   87 1    
    61   31   88 1    
    62   31   89 1    
    63   32   33 2    
    64   32   34 am   BACKBONE|DICT|INTERRES
    65   34   35 1    
    66   34   90 1    
    67   35   36 1    
    68   35   37 1    
    69   35   91 1    
    70   36   92 1    
    71   36   93 1    
    72   36   94 1    
    73   37   38 2    
    74   37   39 am   BACKBONE|DICT|INTERRES
    75   39   40 1    
    76   39   95 1    
    77   40   41 1    
    78   40   42 1    
    79   40   96 1    
    80   41   97 1    
    81   41   98 1    
    82   41   99 1    
    83   42   43 2    
    84   42   44 am   BACKBONE|DICT|INTERRES
    85   44   45 1    
    86   44  100 1    
    87   45   46 1    
    88   45   47 1    
    89   45  101 1    
    90   46  102 1    
    91   46  103 1    
    92   46  104 1    
    93   47   48 2    
    94   47   49 am   BACKBONE|DICT|INTERRES
    95   49   50 1    
    96   49  105 1    
    97   50   51 1    
    98   50   52 1    
    99   50  106 1    
   100   51  107 1    
   101   51  108 1    
   102   51  109 1    
   103   52   53 2    
   104   52   54 am   BACKBONE|DICT|INTERRES
   105   54   55 1    
   106   54  110 1    
   107   55   56 1    
   108   55   59 1    
   109   55  111 1    
   110   56   57 am   BACKBONE|DICT|INTERRES
   111   56   58 2    
   112   57  112 1    
   113   57  113 1    
   114   59   60 1    
   115   59  114 1    
   116   59  115 1    
   117   60   61 1    
   118   61  116 1    
   119   61  117 1    
@<TRIPOS>SUBSTRUCTURE
     1 UNK         1 GROUP             0       ****    0 ROOT    
