@<TRIPOS>MOLECULE
3R8
117   119    1
SMALL
USER_CHARGES


@<TRIPOS>ATOM
      1 CA         18.2177  -21.7530  -48.4104 C.3       0 UNK        -0.2013 
      2 C          18.8093  -22.3941  -47.1639 C.2       0 UNK         0.4866 
      3 O          18.9769  -21.7180  -46.1483 O.2       0 UNK        -0.5176 
      4 N          19.1346  -23.6911  -47.2337 N.am      1 UNK        -0.4884 
      5 CA         19.6487  -24.4821  -46.1127 C.3       1 UNK         0.0853 
      6 C6         20.2934  -25.7984  -46.6148 C.3       10 UNK        -0.0849 
      7 S7         21.2679  -26.6615  -45.3331 S.3       10 UNK        -0.2776 
      8 C8         21.5126  -28.2925  -46.1086 C.3       10 UNK         0.0316 
      9 C9         20.5825  -29.3652  -45.5504 C.ar      10 UNK        -0.0863 
     10 C10        21.1094  -30.4307  -44.8105 C.ar      10 UNK        -0.1009 
     11 C11        20.2857  -31.4712  -44.3676 C.ar      10 UNK        -0.0712 
     12 C12        18.9182  -31.4254  -44.6513 C.ar      10 UNK        -0.0894 
     13 C13        18.3709  -30.3514  -45.3562 C.ar      10 UNK        -0.0745 
     14 C14        19.2090  -29.3309  -45.8166 C.ar      10 UNK        -0.0972 
     15 C15        16.8716  -30.2993  -45.6105 C.3       10 UNK         0.0209 
     16 S16        16.0390  -29.0744  -44.5496 S.3       10 UNK        -0.2568 
     17 C17        16.5051  -29.6134  -42.8639 C.3       10 UNK        -0.0983 
     18 CA         17.7220  -28.8266  -42.3044 C.3       3 UNK         0.0876 
     19 N          17.5030  -27.3744  -42.3816 N.am      3 UNK        -0.4424 
     20 C          18.4496  -26.4300  -42.3823 C.2       2 UNK         0.4918 
     21 O          19.6438  -26.6460  -42.1564 O.2       2 UNK        -0.4875 
     22 CA         17.9995  -24.9982  -42.6922 C.3       2 UNK         0.0481 
     23 CB         18.1982  -24.0826  -41.4742 C.3       2 UNK        -0.1831 
     24 N          18.8056  -24.5145  -43.8093 N.am      2 UNK        -0.4498 
     25 C          18.5238  -24.7595  -45.0951 C.2       1 UNK         0.5027 
     26 O          17.4495  -25.2203  -45.4904 O.2       1 UNK        -0.4969 
     27 C          18.1440  -29.2898  -40.8893 C.2       3 UNK         0.5005 
     28 O          17.4861  -30.1350  -40.2801 O.2       3 UNK        -0.5279 
     29 N          19.2329  -28.6941  -40.3960 N.am      4 UNK        -0.4463 
     30 CA         19.8382  -28.8361  -39.0726 C.3       4 UNK         0.0283 
     31 CB         18.8742  -28.3445  -37.9736 C.3       4 UNK        -0.1875 
     32 C          21.1679  -28.0651  -38.9766 C.2       4 UNK         0.4949 
     33 O          21.9711  -28.3728  -38.0968 O.2       4 UNK        -0.5039 
     34 N          21.3788  -27.0594  -39.8411 N.am      5 UNK        -0.4663 
     35 CA         22.5137  -26.1367  -39.7660 C.3       5 UNK         0.0242 
     36 CB         22.0665  -24.7747  -40.3243 C.3       5 UNK        -0.1982 
     37 C          23.7762  -26.6206  -40.4992 C.2       5 UNK         0.5017 
     38 O          24.8288  -26.0066  -40.3152 O.2       5 UNK        -0.5012 
     39 N          23.6712  -27.6673  -41.3277 N.am      6 UNK        -0.4439 
     40 CA         24.7601  -28.1598  -42.1693 C.3       6 UNK         0.0297 
     41 CB         24.7875  -27.3638  -43.4881 C.3       6 UNK        -0.2006 
     42 C          24.6094  -29.6598  -42.4412 C.2       6 UNK         0.4892 
     43 O          23.5223  -30.2166  -42.2660 O.2       6 UNK        -0.5089 
     44 N          25.7176  -30.2606  -42.8992 N.am      7 UNK        -0.4243 
     45 CA         25.8871  -31.6670  -43.2787 C.3       7 UNK         0.0196 
     46 CB         25.0816  -31.9787  -44.5614 C.3       7 UNK        -0.2007 
     47 C          25.6056  -32.6318  -42.1096 C.2       7 UNK         0.5020 
     48 O          25.8471  -32.2800  -40.9526 O.2       7 UNK        -0.5147 
     49 N          25.1036  -33.8342  -42.4225 N.am      8 UNK        -0.4734 
     50 CA         24.7608  -34.8869  -41.4572 C.3       8 UNK         0.0238 
     51 CB         24.4187  -36.1751  -42.2242 C.3       8 UNK        -0.1912 
     52 C          23.6160  -34.5156  -40.4950 C.2       8 UNK         0.5038 
     53 O          23.4727  -35.1621  -39.4564 O.2       8 UNK        -0.5046 
     54 N          22.8321  -33.4918  -40.8530 N.am      9 UNK        -0.4200 
     55 CA         21.7661  -32.9160  -40.0250 C.3       9 UNK         0.0839 
     56 C          22.2923  -32.0555  -38.8415 C.2       9 UNK         0.5513 
     57 N          23.5442  -31.6101  -38.8426 N.am      9 UNK        -0.7519 
     58 O          21.5525  -31.8107  -37.8933 O.2       9 UNK        -0.4960 
     59 C59        20.7374  -32.1293  -40.8795 C.3       10 UNK        -0.0876 
     60 S60        19.9635  -33.1726  -42.1586 S.3       10 UNK        -0.2414 
     61 C61        20.8841  -32.6785  -43.6539 C.3       10 UNK         0.0169 
     62 H62        18.8420  -20.9218  -48.7372 H         1 UNK         0.0903 
     63 H63        18.1374  -22.4610  -49.2351 H         1 UNK         0.0903 
     64 H64        17.2213  -21.3673  -48.1966 H         1 UNK         0.0903 
     65 H65        18.9434  -24.2041  -48.0829 H         1 UNK         0.3096 
     66 H66        20.4265  -23.8896  -45.6245 H         1 UNK         0.1121 
     67 H67        20.9735  -25.5818  -47.4404 H         1 UNK         0.0849 
     68 H68        19.5344  -26.4683  -47.0211 H         1 UNK         0.0849 
     69 H69        21.3784  -28.2215  -47.1889 H         1 UNK         0.0865 
     70 H70        22.5537  -28.5836  -45.9605 H         1 UNK         0.0865 
     71 H71        22.1705  -30.4663  -44.6065 H         1 UNK         0.1346 
     72 H72        18.2764  -32.2291  -44.3170 H         1 UNK         0.1412 
     73 H73        18.7850  -28.5104  -46.3771 H         1 UNK         0.1426 
     74 H74        16.4157  -31.2776  -45.4504 H         1 UNK         0.0716 
     75 H75        16.6893  -30.0448  -46.6555 H         1 UNK         0.0716 
     76 H76        15.6359  -29.4753  -42.2184 H         1 UNK         0.0695 
     77 H77        16.7071  -30.6860  -42.8722 H         1 UNK         0.0695 
     78 H78        18.5758  -29.0523  -42.9460 H         1 UNK         0.0983 
     79 H79        16.5505  -27.0975  -42.5701 H         1 UNK         0.3095 
     80 H80        16.9409  -24.9904  -42.9610 H         1 UNK         0.0454 
     81 H81        17.6173  -24.4362  -40.6215 H         1 UNK         0.0851 
     82 H82        19.2416  -24.0397  -41.1624 H         1 UNK         0.0851 
     83 H83        17.8725  -23.0647  -41.6885 H         1 UNK         0.0851 
     84 H84        19.7298  -24.1825  -43.5733 H         1 UNK         0.2976 
     85 H85        19.6649  -28.0152  -41.0174 H         1 UNK         0.3116 
     86 H86        20.0519  -29.8900  -38.9034 H         1 UNK         0.0646 
     87 H87        19.3431  -28.3982  -36.9900 H         1 UNK         0.0847 
     88 H88        17.9709  -28.9520  -37.9257 H         1 UNK         0.0847 
     89 H89        18.5744  -27.3087  -38.1365 H         1 UNK         0.0847 
     90 H90        20.6953  -26.8380  -40.5564 H         1 UNK         0.3040 
     91 H91        22.7906  -25.9942  -38.7187 H         1 UNK         0.1015 
     92 H92        21.2308  -24.3698  -39.7537 H         1 UNK         0.0786 
     93 H93        21.7606  -24.8483  -41.3689 H         1 UNK         0.0786 
     94 H94        22.8739  -24.0429  -40.2718 H         1 UNK         0.0786 
     95 H95        22.8016  -28.1798  -41.3934 H         1 UNK         0.3172 
     96 H96        25.7090  -28.0205  -41.6466 H         1 UNK         0.0595 
     97 H97        24.9375  -26.2991  -43.3087 H         1 UNK         0.0839 
     98 H98        23.8554  -27.4800  -44.0407 H         1 UNK         0.0839 
     99 H99        25.5964  -27.6963  -44.1396 H         1 UNK         0.0839 
    100 H100       26.5556  -29.7000  -42.9672 H         1 UNK         0.2998 
    101 H101       26.9450  -31.7888  -43.5161 H         1 UNK         0.0822 
    102 H102       25.2742  -31.2351  -45.3350 H         1 UNK         0.0787 
    103 H103       25.3562  -32.9460  -44.9833 H         1 UNK         0.0787 
    104 H104       24.0084  -31.9877  -44.3765 H         1 UNK         0.0787 
    105 H105       24.9417  -34.0452  -43.3970 H         1 UNK         0.3055 
    106 H106       25.6433  -35.0751  -40.8415 H         1 UNK         0.1106 
    107 H107       23.5493  -36.0421  -42.8695 H         1 UNK         0.0828 
    108 H108       25.2529  -36.5031  -42.8446 H         1 UNK         0.0828 
    109 H109       24.1908  -36.9908  -41.5363 H         1 UNK         0.0828 
    110 H110       23.0491  -32.9967  -41.7043 H         1 UNK         0.2931 
    111 H111       21.2290  -33.7507  -39.5698 H         1 UNK         0.0412 
    112 H112       23.8635  -31.0505  -38.0681 H         1 UNK         0.3472 
    113 H113       24.1716  -31.8177  -39.6093 H         1 UNK         0.3472 
    114 H114       21.1921  -31.2486  -41.3371 H         1 UNK         0.0970 
    115 H115       19.9294  -31.7621  -40.2458 H         1 UNK         0.0970 
    116 H116       20.8847  -33.5187  -44.3492 H         1 UNK         0.0612 
    117 H117       21.9262  -32.4979  -43.3913 H         1 UNK         0.0612 
@<TRIPOS>BOND
     1    1    2 1    
     2    1   62 1    
     3    1   63 1    
     4    1   64 1    
     5    2    3 2    
     6    2    4 am   BACKBONE|DICT|INTERRES
     7    4    5 1    
     8    4   65 1    
     9    5    6 1    
    10    5   25 1    
    11    5   66 1    
    12    6    7 1    
    13    6   67 1    
    14    6   68 1    
    15    7    8 1    
    16    8    9 1    
    17    8   69 1    
    18    8   70 1    
    19    9   10 ar   
    20    9   14 ar   
    21   10   11 ar   
    22   10   71 1    
    23   11   12 ar   
    24   11   61 1    
    25   12   13 ar   
    26   12   72 1    
    27   13   14 ar   
    28   13   15 1    
    29   14   73 1    
    30   15   16 1    
    31   15   74 1    
    32   15   75 1    
    33   16   17 1    
    34   17   18 1    
    35   17   76 1    
    36   17   77 1    
    37   18   19 1    
    38   18   27 1    
    39   18   78 1    
    40   19   20 am   BACKBONE|DICT|INTERRES
    41   19   79 1    
    42   20   21 2    
    43   20   22 1    
    44   22   23 1    
    45   22   24 1    
    46   22   80 1    
    47   23   81 1    
    48   23   82 1    
    49   23   83 1    
    50   24   25 am   BACKBONE|DICT|INTERRES
    51   24   84 1    
    52   25   26 2    
    53   27   28 2    
    54   27   29 am   BACKBONE|DICT|INTERRES
    55   29   30 1    
    56   29   85 1    
    57   30   31 1    
    58   30   32 1    
    59   30   86 1    
    60   31   87 1    
    61   31   88 1    
    62   31   89 1    
    63   32   33 2    
    64   32   34 am   BACKBONE|DICT|INTERRES
    65   34   35 1    
    66   34   90 1    
    67   35   36 1    
    68   35   37 1    
    69   35   91 1    
    70   36   92 1    
    71   36   93 1    
    72   36   94 1    
    73   37   38 2    
    74   37   39 am   BACKBONE|DICT|INTERRES
    75   39   40 1    
    76   39   95 1    
    77   40   41 1    
    78   40   42 1    
    79   40   96 1    
    80   41   97 1    
    81   41   98 1    
    82   41   99 1    
    83   42   43 2    
    84   42   44 am   BACKBONE|DICT|INTERRES
    85   44   45 1    
    86   44  100 1    
    87   45   46 1    
    88   45   47 1    
    89   45  101 1    
    90   46  102 1    
    91   46  103 1    
    92   46  104 1    
    93   47   48 2    
    94   47   49 am   BACKBONE|DICT|INTERRES
    95   49   50 1    
    96   49  105 1    
    97   50   51 1    
    98   50   52 1    
    99   50  106 1    
   100   51  107 1    
   101   51  108 1    
   102   51  109 1    
   103   52   53 2    
   104   52   54 am   BACKBONE|DICT|INTERRES
   105   54   55 1    
   106   54  110 1    
   107   55   56 1    
   108   55   59 1    
   109   55  111 1    
   110   56   57 am   BACKBONE|DICT|INTERRES
   111   56   58 2    
   112   57  112 1    
   113   57  113 1    
   114   59   60 1    
   115   59  114 1    
   116   59  115 1    
   117   60   61 1    
   118   61  116 1    
   119   61  117 1    
@<TRIPOS>SUBSTRUCTURE
     1 UNK         1 GROUP             0       ****    0 ROOT    
