@<TRIPOS>MOLECULE
3R8
117   119    1
SMALL
USER_CHARGES


@<TRIPOS>ATOM
      1 CA         16.7520  -22.9473  -45.9358 C.3       0 UNK        -0.2013 
      2 C          16.9634  -24.4309  -46.1984 C.2       0 UNK         0.4866 
      3 O          16.4711  -24.9535  -47.1989 O.2       0 UNK        -0.5176 
      4 N          17.6960  -25.1101  -45.3122 N.am      1 UNK        -0.4884 
      5 CA         18.0310  -26.5316  -45.3897 C.3       1 UNK         0.0853 
      6 C6         16.8422  -27.4672  -45.0400 C.3       10 UNK        -0.0849 
      7 S7         16.0584  -27.1308  -43.4259 S.3       10 UNK        -0.2776 
      8 C8         15.2394  -28.7243  -43.1068 C.3       10 UNK         0.0316 
      9 C9         16.2239  -29.7582  -42.5835 C.ar      10 UNK        -0.0863 
     10 C10        16.6808  -30.7967  -43.4022 C.ar      10 UNK        -0.1009 
     11 C11        17.5903  -31.7398  -42.9103 C.ar      10 UNK        -0.0712 
     12 C12        18.0319  -31.6419  -41.5870 C.ar      10 UNK        -0.0894 
     13 C13        17.5671  -30.6176  -40.7569 C.ar      10 UNK        -0.0745 
     14 C14        16.6664  -29.6780  -41.2613 C.ar      10 UNK        -0.0972 
     15 C15        18.0123  -30.5452  -39.3055 C.3       10 UNK         0.0209 
     16 S16        19.7298  -29.9783  -39.1457 S.3       10 UNK        -0.2568 
     17 C17        19.6044  -28.2018  -39.5401 C.3       10 UNK        -0.0983 
     18 CA         20.7844  -27.7577  -40.4388 C.3       3 UNK         0.0876 
     19 N          20.5878  -28.0953  -41.8541 N.am      3 UNK        -0.4424 
     20 C          21.5690  -28.0630  -42.7671 C.2       2 UNK         0.4918 
     21 O          22.7320  -27.7566  -42.4996 O.2       2 UNK        -0.4875 
     22 CA         21.2098  -28.3773  -44.2287 C.3       2 UNK         0.0481 
     23 CB         21.4266  -29.8684  -44.5064 C.3       2 UNK        -0.1831 
     24 N          19.8630  -27.9953  -44.6733 N.am      2 UNK        -0.4498 
     25 C          19.2989  -26.7843  -44.5523 C.2       1 UNK         0.5027 
     26 O          19.7586  -25.8777  -43.8507 O.2       1 UNK        -0.4969 
     27 C          21.1613  -26.2772  -40.2077 C.2       3 UNK         0.5005 
     28 O          21.7544  -25.9809  -39.1698 O.2       3 UNK        -0.5279 
     29 N          20.9159  -25.3856  -41.1831 N.am      4 UNK        -0.4463 
     30 CA         21.4377  -24.0120  -41.1861 C.3       4 UNK         0.0283 
     31 CB         20.7765  -23.2087  -42.3170 C.3       4 UNK        -0.1875 
     32 C          22.9747  -23.9477  -41.3099 C.2       4 UNK         0.4949 
     33 O          23.5736  -22.9737  -40.8548 O.2       4 UNK        -0.5039 
     34 N          23.5820  -24.9905  -41.8935 N.am      5 UNK        -0.4663 
     35 CA         25.0293  -25.1986  -41.9868 C.3       5 UNK         0.0242 
     36 CB         25.3719  -25.5717  -43.4407 C.3       5 UNK        -0.1982 
     37 C          25.5147  -26.2889  -41.0088 C.2       5 UNK         0.5017 
     38 O          26.6733  -26.6967  -41.0969 O.2       5 UNK        -0.5012 
     39 N          24.6280  -26.7507  -40.1112 N.am      6 UNK        -0.4439 
     40 CA         24.8140  -27.8254  -39.1279 C.3       6 UNK         0.0297 
     41 CB         25.8482  -27.4143  -38.0580 C.3       6 UNK        -0.2006 
     42 C          25.1113  -29.2098  -39.7464 C.2       6 UNK         0.4892 
     43 O          25.7605  -30.0337  -39.0989 O.2       6 UNK        -0.5089 
     44 N          24.6242  -29.4535  -40.9699 N.am      7 UNK        -0.4243 
     45 CA         24.7216  -30.7333  -41.6736 C.3       7 UNK         0.0196 
     46 CB         25.1411  -30.4609  -43.1281 C.3       7 UNK        -0.2007 
     47 C          23.3808  -31.4823  -41.6009 C.2       7 UNK         0.5020 
     48 O          22.3427  -30.8654  -41.3694 O.2       7 UNK        -0.5147 
     49 N          23.4185  -32.8031  -41.8122 N.am      8 UNK        -0.4734 
     50 CA         22.2638  -33.7025  -41.6705 C.3       8 UNK         0.0238 
     51 CB         22.6850  -34.9048  -40.8036 C.3       8 UNK        -0.1912 
     52 C          21.6768  -34.1533  -43.0233 C.2       8 UNK         0.5038 
     53 O          21.0493  -35.2116  -43.0827 O.2       8 UNK        -0.5046 
     54 N          21.9009  -33.3647  -44.0835 N.am      9 UNK        -0.4200 
     55 CA         21.5093  -33.6428  -45.4813 C.3       9 UNK         0.0839 
     56 C          22.2979  -34.8119  -46.1498 C.2       9 UNK         0.5513 
     57 N          23.4193  -35.2582  -45.5961 N.am      9 UNK        -0.7519 
     58 O          21.9100  -35.3035  -47.2068 O.2       9 UNK        -0.4960 
     59 C59        19.9690  -33.7671  -45.6989 C.3       10 UNK        -0.0876 
     60 S60        19.0531  -32.2699  -45.2021 S.3       10 UNK        -0.2414 
     61 C61        18.0782  -32.8799  -43.7939 C.3       10 UNK         0.0169 
     62 H62        17.2460  -22.6211  -45.0205 H         1 UNK         0.0903 
     63 H63        17.1480  -22.3591  -46.7632 H         1 UNK         0.0903 
     64 H64        15.6881  -22.7313  -45.8418 H         1 UNK         0.0903 
     65 H65        18.1299  -24.6424  -44.5252 H         1 UNK         0.3096 
     66 H66        18.3219  -26.7360  -46.4229 H         1 UNK         0.1121 
     67 H67        16.0699  -27.3674  -45.8042 H         1 UNK         0.0849 
     68 H68        17.1538  -28.5112  -45.0844 H         1 UNK         0.0849 
     69 H69        14.4496  -28.5736  -42.3693 H         1 UNK         0.0865 
     70 H70        14.7438  -29.0757  -44.0134 H         1 UNK         0.0865 
     71 H71        16.3350  -30.8727  -44.4241 H         1 UNK         0.1346 
     72 H72        18.7315  -32.3671  -41.1944 H         1 UNK         0.1412 
     73 H73        16.3043  -28.8816  -40.6250 H         1 UNK         0.1426 
     74 H74        17.9279  -31.5359  -38.8567 H         1 UNK         0.0716 
     75 H75        17.3593  -29.8917  -38.7246 H         1 UNK         0.0716 
     76 H76        18.6483  -27.9697  -40.0106 H         1 UNK         0.0695 
     77 H77        19.6075  -27.6737  -38.5843 H         1 UNK         0.0695 
     78 H78        21.6678  -28.3137  -40.1145 H         1 UNK         0.0983 
     79 H79        19.6595  -28.3720  -42.1380 H         1 UNK         0.3095 
     80 H80        21.9076  -27.8168  -44.8537 H         1 UNK         0.0454 
     81 H81        22.4635  -30.1514  -44.3415 H         1 UNK         0.0851 
     82 H82        20.8176  -30.4829  -43.8423 H         1 UNK         0.0851 
     83 H83        21.1871  -30.1281  -45.5373 H         1 UNK         0.0851 
     84 H84        19.3879  -28.6827  -45.2403 H         1 UNK         0.2976 
     85 H85        20.4437  -25.6921  -42.0307 H         1 UNK         0.3116 
     86 H86        21.1637  -23.5486  -40.2360 H         1 UNK         0.0646 
     87 H87        21.0851  -22.1630  -42.2827 H         1 UNK         0.0847 
     88 H88        19.6895  -23.2286  -42.2382 H         1 UNK         0.0847 
     89 H89        21.0500  -23.5945  -43.2998 H         1 UNK         0.0847 
     90 H90        23.0145  -25.7634  -42.2260 H         1 UNK         0.3040 
     91 H91        25.5630  -24.2804  -41.7322 H         1 UNK         0.1015 
     92 H92        24.9118  -26.5165  -43.7333 H         1 UNK         0.0786 
     93 H93        26.4490  -25.6773  -43.5771 H         1 UNK         0.0786 
     94 H94        25.0336  -24.8041  -44.1367 H         1 UNK         0.0786 
     95 H95        23.7130  -26.3172  -40.1012 H         1 UNK         0.3172 
     96 H96        23.8526  -27.9314  -38.6235 H         1 UNK         0.0595 
     97 H97        25.8768  -28.1369  -37.2415 H         1 UNK         0.0839 
     98 H98        26.8554  -27.3526  -38.4711 H         1 UNK         0.0839 
     99 H99        25.6040  -26.4461  -37.6210 H         1 UNK         0.0839 
    100 H100       24.0373  -28.7538  -41.4148 H         1 UNK         0.2998 
    101 H101       25.4821  -31.3662  -41.2111 H         1 UNK         0.0822 
    102 H102       25.0823  -31.3605  -43.7419 H         1 UNK         0.0787 
    103 H103       24.5218  -29.6954  -43.5941 H         1 UNK         0.0787 
    104 H104       26.1721  -30.1091  -43.1713 H         1 UNK         0.0787 
    105 H105       24.3054  -33.2394  -42.0245 H         1 UNK         0.3055 
    106 H106       21.4531  -33.1902  -41.1466 H         1 UNK         0.1106 
    107 H107       23.0798  -34.5797  -39.8408 H         1 UNK         0.0828 
    108 H108       21.8368  -35.5582  -40.5945 H         1 UNK         0.0828 
    109 H109       23.4494  -35.5087  -41.2938 H         1 UNK         0.0828 
    110 H110       22.4334  -32.5216  -43.9351 H         1 UNK         0.2931 
    111 H111       21.8305  -32.7605  -46.0361 H         1 UNK         0.0412 
    112 H112       23.9260  -36.0060  -46.0439 H         1 UNK         0.3472 
    113 H113       23.7608  -34.8616  -44.7362 H         1 UNK         0.3472 
    114 H114       19.5718  -34.6437  -45.1854 H         1 UNK         0.0970 
    115 H115       19.7485  -33.9249  -46.7561 H         1 UNK         0.0970 
    116 H116       17.2234  -33.4456  -44.1669 H         1 UNK         0.0612 
    117 H117       18.6816  -33.5769  -43.2111 H         1 UNK         0.0612 
@<TRIPOS>BOND
     1    1    2 1    
     2    1   62 1    
     3    1   63 1    
     4    1   64 1    
     5    2    3 2    
     6    2    4 am   BACKBONE|DICT|INTERRES
     7    4    5 1    
     8    4   65 1    
     9    5    6 1    
    10    5   25 1    
    11    5   66 1    
    12    6    7 1    
    13    6   67 1    
    14    6   68 1    
    15    7    8 1    
    16    8    9 1    
    17    8   69 1    
    18    8   70 1    
    19    9   10 ar   
    20    9   14 ar   
    21   10   11 ar   
    22   10   71 1    
    23   11   12 ar   
    24   11   61 1    
    25   12   13 ar   
    26   12   72 1    
    27   13   14 ar   
    28   13   15 1    
    29   14   73 1    
    30   15   16 1    
    31   15   74 1    
    32   15   75 1    
    33   16   17 1    
    34   17   18 1    
    35   17   76 1    
    36   17   77 1    
    37   18   19 1    
    38   18   27 1    
    39   18   78 1    
    40   19   20 am   BACKBONE|DICT|INTERRES
    41   19   79 1    
    42   20   21 2    
    43   20   22 1    
    44   22   23 1    
    45   22   24 1    
    46   22   80 1    
    47   23   81 1    
    48   23   82 1    
    49   23   83 1    
    50   24   25 am   BACKBONE|DICT|INTERRES
    51   24   84 1    
    52   25   26 2    
    53   27   28 2    
    54   27   29 am   BACKBONE|DICT|INTERRES
    55   29   30 1    
    56   29   85 1    
    57   30   31 1    
    58   30   32 1    
    59   30   86 1    
    60   31   87 1    
    61   31   88 1    
    62   31   89 1    
    63   32   33 2    
    64   32   34 am   BACKBONE|DICT|INTERRES
    65   34   35 1    
    66   34   90 1    
    67   35   36 1    
    68   35   37 1    
    69   35   91 1    
    70   36   92 1    
    71   36   93 1    
    72   36   94 1    
    73   37   38 2    
    74   37   39 am   BACKBONE|DICT|INTERRES
    75   39   40 1    
    76   39   95 1    
    77   40   41 1    
    78   40   42 1    
    79   40   96 1    
    80   41   97 1    
    81   41   98 1    
    82   41   99 1    
    83   42   43 2    
    84   42   44 am   BACKBONE|DICT|INTERRES
    85   44   45 1    
    86   44  100 1    
    87   45   46 1    
    88   45   47 1    
    89   45  101 1    
    90   46  102 1    
    91   46  103 1    
    92   46  104 1    
    93   47   48 2    
    94   47   49 am   BACKBONE|DICT|INTERRES
    95   49   50 1    
    96   49  105 1    
    97   50   51 1    
    98   50   52 1    
    99   50  106 1    
   100   51  107 1    
   101   51  108 1    
   102   51  109 1    
   103   52   53 2    
   104   52   54 am   BACKBONE|DICT|INTERRES
   105   54   55 1    
   106   54  110 1    
   107   55   56 1    
   108   55   59 1    
   109   55  111 1    
   110   56   57 am   BACKBONE|DICT|INTERRES
   111   56   58 2    
   112   57  112 1    
   113   57  113 1    
   114   59   60 1    
   115   59  114 1    
   116   59  115 1    
   117   60   61 1    
   118   61  116 1    
   119   61  117 1    
@<TRIPOS>SUBSTRUCTURE
     1 UNK         1 GROUP             0       ****    0 ROOT    
