@<TRIPOS>MOLECULE
3R8
117   119    1
SMALL
USER_CHARGES


@<TRIPOS>ATOM
      1 CA         15.7053  -24.4087  -40.8722 C.3       0 UNK        -0.2013 
      2 C          16.3250  -24.2376  -42.2511 C.2       0 UNK         0.4866 
      3 O          16.4313  -23.1121  -42.7401 O.2       0 UNK        -0.5176 
      4 N          16.7240  -25.3469  -42.8854 N.am      1 UNK        -0.4884 
      5 CA         17.3834  -25.3781  -44.1968 C.3       1 UNK         0.0853 
      6 C6         17.4373  -26.8139  -44.7883 C.3       10 UNK        -0.0849 
      7 S7         15.8395  -27.6931  -44.7417 S.3       10 UNK        -0.2776 
      8 C8         16.1410  -29.0817  -45.8851 C.3       10 UNK         0.0316 
      9 C9         17.3271  -29.9522  -45.4799 C.ar      10 UNK        -0.0863 
     10 C10        17.3182  -30.6549  -44.2703 C.ar      10 UNK        -0.1009 
     11 C11        18.3902  -31.4837  -43.9191 C.ar      10 UNK        -0.0712 
     12 C12        19.4799  -31.6034  -44.7881 C.ar      10 UNK        -0.0894 
     13 C13        19.5019  -30.9064  -45.9998 C.ar      10 UNK        -0.0745 
     14 C14        18.4203  -30.0876  -46.3405 C.ar      10 UNK        -0.0972 
     15 C15        20.6736  -31.0688  -46.9609 C.3       10 UNK         0.0209 
     16 S16        22.1405  -30.1086  -46.4627 S.3       10 UNK        -0.2568 
     17 C17        21.5528  -28.3873  -46.6410 C.3       10 UNK        -0.0983 
     18 CA         22.1088  -27.3590  -45.6193 C.3       3 UNK         0.0876 
     19 N          21.3742  -26.0971  -45.7347 N.am      3 UNK        -0.4424 
     20 C          21.7397  -24.9255  -45.1981 C.2       2 UNK         0.4918 
     21 O          22.7975  -24.7434  -44.5976 O.2       2 UNK        -0.4875 
     22 CA         20.7176  -23.7781  -45.3161 C.3       2 UNK         0.0481 
     23 CB         20.9086  -23.0170  -46.6373 C.3       2 UNK        -0.1831 
     24 N          19.3260  -24.2410  -45.2051 N.am      2 UNK        -0.4498 
     25 C          18.8142  -24.8053  -44.1007 C.2       1 UNK         0.5027 
     26 O          19.4581  -24.9511  -43.0587 O.2       1 UNK        -0.4969 
     27 C          22.1267  -27.8667  -44.1582 C.2       3 UNK         0.5005 
     28 O          23.1805  -28.2814  -43.6740 O.2       3 UNK        -0.5279 
     29 N          20.9858  -27.7688  -43.4584 N.am      4 UNK        -0.4463 
     30 CA         20.7950  -28.2235  -42.0740 C.3       4 UNK         0.0283 
     31 CB         19.3018  -28.1727  -41.7098 C.3       4 UNK        -0.1875 
     32 C          21.6359  -27.4768  -41.0224 C.2       4 UNK         0.4949 
     33 O          21.7610  -27.9633  -39.8991 O.2       4 UNK        -0.5039 
     34 N          22.2196  -26.3298  -41.3945 N.am      5 UNK        -0.4663 
     35 CA         23.2215  -25.6221  -40.5961 C.3       5 UNK         0.0242 
     36 CB         23.3860  -24.1959  -41.1448 C.3       5 UNK        -0.1982 
     37 C          24.5822  -26.3474  -40.5568 C.2       5 UNK         0.5017 
     38 O          25.3586  -26.0942  -39.6348 O.2       5 UNK        -0.5012 
     39 N          24.8523  -27.2148  -41.5441 N.am      6 UNK        -0.4439 
     40 CA         26.0862  -27.9919  -41.6708 C.3       6 UNK         0.0297 
     41 CB         26.7383  -27.6835  -43.0290 C.3       6 UNK        -0.2006 
     42 C          25.8318  -29.5010  -41.5305 C.2       6 UNK         0.4892 
     43 O          26.6346  -30.1828  -40.8916 O.2       6 UNK        -0.5089 
     44 N          24.7484  -30.0044  -42.1390 N.am      7 UNK        -0.4243 
     45 CA         24.3716  -31.4187  -42.1378 C.3       7 UNK         0.0196 
     46 CB         23.2754  -31.6524  -43.1897 C.3       7 UNK        -0.2007 
     47 C          23.8978  -31.9019  -40.7589 C.2       7 UNK         0.5020 
     48 O          23.2256  -31.1631  -40.0368 O.2       7 UNK        -0.5147 
     49 N          24.2125  -33.1623  -40.4395 N.am      8 UNK        -0.4734 
     50 CA         23.7956  -33.8464  -39.2139 C.3       8 UNK         0.0238 
     51 CB         24.8409  -34.9229  -38.8636 C.3       8 UNK        -0.1912 
     52 C          22.3764  -34.4241  -39.3678 C.2       8 UNK         0.5038 
     53 O          22.2068  -35.6451  -39.3877 O.2       8 UNK        -0.5046 
     54 N          21.3910  -33.5309  -39.5149 N.am      9 UNK        -0.4200 
     55 CA         19.9602  -33.8473  -39.6394 C.3       9 UNK         0.0839 
     56 C          19.3962  -34.5934  -38.3987 C.2       9 UNK         0.5513 
     57 N          18.4863  -35.5361  -38.6023 N.am      9 UNK        -0.7519 
     58 O          19.7404  -34.2922  -37.2573 O.2       9 UNK        -0.4960 
     59 C59        19.1209  -32.5759  -39.9225 C.3       10 UNK        -0.0876 
     60 S60        19.6259  -31.7122  -41.4473 S.3       10 UNK        -0.2414 
     61 C61        18.3541  -32.2753  -42.6187 C.3       10 UNK         0.0169 
     62 H62        16.2892  -23.8659  -40.1293 H         1 UNK         0.0903 
     63 H63        14.6903  -24.0122  -40.8647 H         1 UNK         0.0903 
     64 H64        15.6628  -25.4553  -40.5709 H         1 UNK         0.0903 
     65 H65        16.5987  -26.2463  -42.4442 H         1 UNK         0.3096 
     66 H66        16.8038  -24.7444  -44.8722 H         1 UNK         0.1121 
     67 H67        17.7794  -26.7804  -45.8245 H         1 UNK         0.0849 
     68 H68        18.1568  -27.4315  -44.2513 H         1 UNK         0.0849 
     69 H69        15.2456  -29.7036  -45.9243 H         1 UNK         0.0865 
     70 H70        16.2758  -28.6837  -46.8921 H         1 UNK         0.0865 
     71 H71        16.4687  -30.5606  -43.6075 H         1 UNK         0.1346 
     72 H72        20.3100  -32.2436  -44.5217 H         1 UNK         0.1412 
     73 H73        18.4268  -29.5615  -47.2855 H         1 UNK         0.1426 
     74 H74        20.3852  -30.7799  -47.9728 H         1 UNK         0.0716 
     75 H75        20.9496  -32.1228  -47.0154 H         1 UNK         0.0716 
     76 H76        21.7941  -28.0597  -47.6533 H         1 UNK         0.0695 
     77 H77        20.4658  -28.3850  -46.5877 H         1 UNK         0.0695 
     78 H78        23.1490  -27.1597  -45.8871 H         1 UNK         0.0983 
     79 H79        20.5022  -26.1309  -46.2401 H         1 UNK         0.3095 
     80 H80        20.9056  -23.0831  -44.4948 H         1 UNK         0.0454 
     81 H81        21.9312  -22.6481  -46.7293 H         1 UNK         0.0851 
     82 H82        20.7119  -23.6487  -47.5043 H         1 UNK         0.0851 
     83 H83        20.2491  -22.1510  -46.6956 H         1 UNK         0.0851 
     84 H84        18.7449  -24.1401  -46.0258 H         1 UNK         0.2976 
     85 H85        20.1851  -27.3545  -43.9067 H         1 UNK         0.3116 
     86 H86        21.1154  -29.2653  -42.0355 H         1 UNK         0.0646 
     87 H87        19.1364  -28.5595  -40.7033 H         1 UNK         0.0847 
     88 H88        18.7066  -28.7880  -42.3838 H         1 UNK         0.0847 
     89 H89        18.9103  -27.1564  -41.7320 H         1 UNK         0.0847 
     90 H90        22.0351  -25.9743  -42.3228 H         1 UNK         0.3040 
     91 H91        22.8565  -25.5540  -39.5688 H         1 UNK         0.1015 
     92 H92        23.7915  -24.1974  -42.1570 H         1 UNK         0.0786 
     93 H93        24.0691  -23.6161  -40.5225 H         1 UNK         0.0786 
     94 H94        22.4344  -23.6640  -41.1644 H         1 UNK         0.0786 
     95 H95        24.1397  -27.3882  -42.2477 H         1 UNK         0.3172 
     96 H96        26.7952  -27.7094  -40.8899 H         1 UNK         0.0595 
     97 H97        27.6607  -28.2516  -43.1578 H         1 UNK         0.0839 
     98 H98        26.9940  -26.6272  -43.1135 H         1 UNK         0.0839 
     99 H99        26.0798  -27.9354  -43.8617 H         1 UNK         0.0839 
    100 H100       24.1408  -29.3789  -42.6653 H         1 UNK         0.2998 
    101 H101       25.2526  -31.9965  -42.4258 H         1 UNK         0.0822 
    102 H102       22.3845  -31.0579  -42.9849 H         1 UNK         0.0787 
    103 H103       23.6276  -31.3921  -44.1875 H         1 UNK         0.0787 
    104 H104       22.9685  -32.6987  -43.2168 H         1 UNK         0.0787 
    105 H105       24.7279  -33.7183  -41.1075 H         1 UNK         0.3055 
    106 H106       23.7684  -33.1306  -38.3886 H         1 UNK         0.1106 
    107 H107       24.9323  -35.6730  -39.6502 H         1 UNK         0.0828 
    108 H108       25.8252  -34.4823  -38.7044 H         1 UNK         0.0828 
    109 H109       24.5696  -35.4451  -37.9451 H         1 UNK         0.0828 
    110 H110       21.6380  -32.5486  -39.5389 H         1 UNK         0.2931 
    111 H111       19.8628  -34.5115  -40.5008 H         1 UNK         0.0412 
    112 H112       18.1913  -35.7841  -39.5343 H         1 UNK         0.3472 
    113 H113       18.0955  -36.0204  -37.8088 H         1 UNK         0.3472 
    114 H114       18.0593  -32.8220  -39.9859 H         1 UNK         0.0970 
    115 H115       19.2119  -31.8713  -39.0934 H         1 UNK         0.0970 
    116 H116       18.5062  -33.3343  -42.8316 H         1 UNK         0.0612 
    117 H117       17.3714  -32.1882  -42.1529 H         1 UNK         0.0612 
@<TRIPOS>BOND
     1    1    2 1    
     2    1   62 1    
     3    1   63 1    
     4    1   64 1    
     5    2    3 2    
     6    2    4 am   BACKBONE|DICT|INTERRES
     7    4    5 1    
     8    4   65 1    
     9    5    6 1    
    10    5   25 1    
    11    5   66 1    
    12    6    7 1    
    13    6   67 1    
    14    6   68 1    
    15    7    8 1    
    16    8    9 1    
    17    8   69 1    
    18    8   70 1    
    19    9   10 ar   
    20    9   14 ar   
    21   10   11 ar   
    22   10   71 1    
    23   11   12 ar   
    24   11   61 1    
    25   12   13 ar   
    26   12   72 1    
    27   13   14 ar   
    28   13   15 1    
    29   14   73 1    
    30   15   16 1    
    31   15   74 1    
    32   15   75 1    
    33   16   17 1    
    34   17   18 1    
    35   17   76 1    
    36   17   77 1    
    37   18   19 1    
    38   18   27 1    
    39   18   78 1    
    40   19   20 am   BACKBONE|DICT|INTERRES
    41   19   79 1    
    42   20   21 2    
    43   20   22 1    
    44   22   23 1    
    45   22   24 1    
    46   22   80 1    
    47   23   81 1    
    48   23   82 1    
    49   23   83 1    
    50   24   25 am   BACKBONE|DICT|INTERRES
    51   24   84 1    
    52   25   26 2    
    53   27   28 2    
    54   27   29 am   BACKBONE|DICT|INTERRES
    55   29   30 1    
    56   29   85 1    
    57   30   31 1    
    58   30   32 1    
    59   30   86 1    
    60   31   87 1    
    61   31   88 1    
    62   31   89 1    
    63   32   33 2    
    64   32   34 am   BACKBONE|DICT|INTERRES
    65   34   35 1    
    66   34   90 1    
    67   35   36 1    
    68   35   37 1    
    69   35   91 1    
    70   36   92 1    
    71   36   93 1    
    72   36   94 1    
    73   37   38 2    
    74   37   39 am   BACKBONE|DICT|INTERRES
    75   39   40 1    
    76   39   95 1    
    77   40   41 1    
    78   40   42 1    
    79   40   96 1    
    80   41   97 1    
    81   41   98 1    
    82   41   99 1    
    83   42   43 2    
    84   42   44 am   BACKBONE|DICT|INTERRES
    85   44   45 1    
    86   44  100 1    
    87   45   46 1    
    88   45   47 1    
    89   45  101 1    
    90   46  102 1    
    91   46  103 1    
    92   46  104 1    
    93   47   48 2    
    94   47   49 am   BACKBONE|DICT|INTERRES
    95   49   50 1    
    96   49  105 1    
    97   50   51 1    
    98   50   52 1    
    99   50  106 1    
   100   51  107 1    
   101   51  108 1    
   102   51  109 1    
   103   52   53 2    
   104   52   54 am   BACKBONE|DICT|INTERRES
   105   54   55 1    
   106   54  110 1    
   107   55   56 1    
   108   55   59 1    
   109   55  111 1    
   110   56   57 am   BACKBONE|DICT|INTERRES
   111   56   58 2    
   112   57  112 1    
   113   57  113 1    
   114   59   60 1    
   115   59  114 1    
   116   59  115 1    
   117   60   61 1    
   118   61  116 1    
   119   61  117 1    
@<TRIPOS>SUBSTRUCTURE
     1 UNK         1 GROUP             0       ****    0 ROOT    
