@<TRIPOS>MOLECULE
3R8
117   119    1
SMALL
USER_CHARGES


@<TRIPOS>ATOM
      1 CA         18.0403  -26.6284  -38.2145 C.3       0 UNK        -0.2013 
      2 C          17.5868  -26.2342  -39.6126 C.2       0 UNK         0.4866 
      3 O          17.2407  -25.0753  -39.8412 O.2       0 UNK        -0.5176 
      4 N          17.5873  -27.1919  -40.5475 N.am      1 UNK        -0.4884 
      5 CA         17.2744  -26.9821  -41.9656 C.3       1 UNK         0.0853 
      6 C6         16.8014  -28.2991  -42.6261 C.3       10 UNK        -0.0849 
      7 S7         15.5416  -28.0160  -43.9125 S.3       10 UNK        -0.2776 
      8 C8         15.2412  -29.7221  -44.4793 C.3       10 UNK         0.0316 
      9 C9         16.5056  -30.3374  -45.0574 C.ar      10 UNK        -0.0863 
     10 C10        17.1828  -31.3507  -44.3723 C.ar      10 UNK        -0.1009 
     11 C11        18.3841  -31.8623  -44.8726 C.ar      10 UNK        -0.0712 
     12 C12        18.9034  -31.3593  -46.0693 C.ar      10 UNK        -0.0894 
     13 C13        18.2361  -30.3396  -46.7551 C.ar      10 UNK        -0.0745 
     14 C14        17.0288  -29.8480  -46.2555 C.ar      10 UNK        -0.0972 
     15 C15        18.8304  -29.7251  -48.0106 C.3       10 UNK         0.0209 
     16 S16        19.5775  -28.1052  -47.6452 S.3       10 UNK        -0.2568 
     17 C17        21.1269  -28.6191  -46.8416 C.3       10 UNK        -0.0983 
     18 CA         21.7955  -27.4604  -46.0671 C.3       3 UNK         0.0876 
     19 N          21.1218  -27.1497  -44.7962 N.am      3 UNK        -0.4424 
     20 C          21.4628  -26.1074  -44.0237 C.2       2 UNK         0.4918 
     21 O          22.2224  -25.2125  -44.4023 O.2       2 UNK        -0.4875 
     22 CA         20.9789  -26.1043  -42.5618 C.3       2 UNK         0.0481 
     23 CB         21.0219  -24.7018  -41.9182 C.3       2 UNK        -0.1831 
     24 N          19.6912  -26.7538  -42.3014 N.am      2 UNK        -0.4498 
     25 C          18.4761  -26.3474  -42.7034 C.2       1 UNK         0.5027 
     26 O          18.2858  -25.4704  -43.5468 O.2       1 UNK        -0.4969 
     27 C          23.2700  -27.8031  -45.7790 C.2       3 UNK         0.5005 
     28 O          23.5321  -28.6382  -44.9107 O.2       3 UNK        -0.5279 
     29 N          24.1992  -27.1083  -46.4538 N.am      4 UNK        -0.4463 
     30 CA         25.6583  -27.1874  -46.2696 C.3       4 UNK         0.0283 
     31 CB         26.1914  -28.5358  -46.7992 C.3       4 UNK        -0.1875 
     32 C          26.1250  -26.9036  -44.8224 C.2       4 UNK         0.4949 
     33 O          27.1855  -27.3834  -44.4202 O.2       4 UNK        -0.5039 
     34 N          25.3098  -26.1522  -44.0632 N.am      5 UNK        -0.4663 
     35 CA         25.4365  -25.8628  -42.6295 C.3       5 UNK         0.0242 
     36 CB         26.6823  -24.9948  -42.3501 C.3       5 UNK        -0.1982 
     37 C          25.3671  -27.1159  -41.7271 C.2       5 UNK         0.5017 
     38 O          25.8793  -27.0803  -40.6077 O.2       5 UNK        -0.5012 
     39 N          24.7154  -28.1925  -42.1983 N.am      6 UNK        -0.4439 
     40 CA         24.5731  -29.4667  -41.4790 C.3       6 UNK         0.0297 
     41 CB         24.2660  -30.5824  -42.4918 C.3       6 UNK        -0.2006 
     42 C          23.5154  -29.4535  -40.3560 C.2       6 UNK         0.4892 
     43 O          23.3405  -30.4771  -39.6929 O.2       6 UNK        -0.5089 
     44 N          22.8204  -28.3211  -40.1692 N.am      7 UNK        -0.4243 
     45 CA         21.7369  -28.0840  -39.2102 C.3       7 UNK         0.0196 
     46 CB         22.2813  -28.0577  -37.7639 C.3       7 UNK        -0.2007 
     47 C          20.5747  -29.0679  -39.4318 C.2       7 UNK         0.5020 
     48 O          19.8891  -28.9588  -40.4485 O.2       7 UNK        -0.5147 
     49 N          20.3693  -29.9987  -38.4934 N.am      8 UNK        -0.4734 
     50 CA         19.3566  -31.0561  -38.5659 C.3       8 UNK         0.0238 
     51 CB         18.9992  -31.4913  -37.1341 C.3       8 UNK        -0.1912 
     52 C          19.7840  -32.2695  -39.4177 C.2       8 UNK         0.5038 
     53 O          18.9810  -33.1905  -39.5725 O.2       8 UNK        -0.5046 
     54 N          21.0224  -32.2661  -39.9327 N.am      9 UNK        -0.4200 
     55 CA         21.6426  -33.3289  -40.7446 C.3       9 UNK         0.0839 
     56 C          22.0448  -34.5998  -39.9373 C.2       9 UNK         0.5513 
     57 N          22.0874  -34.5566  -38.6109 N.am      9 UNK        -0.7519 
     58 O          22.3524  -35.6369  -40.5196 O.2       9 UNK        -0.4960 
     59 C59        20.8614  -33.6766  -42.0467 C.3       10 UNK        -0.0876 
     60 S60        20.4331  -32.2206  -43.0603 S.3       10 UNK        -0.2414 
     61 C61        19.1303  -32.9409  -44.1057 C.3       10 UNK         0.0169 
     62 H62        18.1181  -27.7094  -38.1011 H         1 UNK         0.0903 
     63 H63        19.0134  -26.1893  -37.9975 H         1 UNK         0.0903 
     64 H64        17.3296  -26.2651  -37.4727 H         1 UNK         0.0903 
     65 H65        17.9636  -28.1044  -40.3176 H         1 UNK         0.3096 
     66 H66        16.4562  -26.2590  -42.0102 H         1 UNK         0.1121 
     67 H67        16.3420  -28.9533  -41.8829 H         1 UNK         0.0849 
     68 H68        17.6433  -28.8625  -43.0335 H         1 UNK         0.0849 
     69 H69        14.8580  -30.3187  -43.6498 H         1 UNK         0.0865 
     70 H70        14.4596  -29.7152  -45.2404 H         1 UNK         0.0865 
     71 H71        16.7910  -31.7236  -43.4357 H         1 UNK         0.1346 
     72 H72        19.8425  -31.7405  -46.4470 H         1 UNK         0.1412 
     73 H73        16.5204  -29.0463  -46.7744 H         1 UNK         0.1426 
     74 H74        18.0463  -29.5944  -48.7579 H         1 UNK         0.0716 
     75 H75        19.5754  -30.3853  -48.4578 H         1 UNK         0.0716 
     76 H76        20.9448  -29.4625  -46.1743 H         1 UNK         0.0695 
     77 H77        21.7814  -28.9913  -47.6329 H         1 UNK         0.0695 
     78 H78        21.7656  -26.5636  -46.6903 H         1 UNK         0.0983 
     79 H79        20.5155  -27.8622  -44.4185 H         1 UNK         0.3095 
     80 H80        21.7112  -26.7123  -42.0348 H         1 UNK         0.0454 
     81 H81        22.0265  -24.2788  -41.9540 H         1 UNK         0.0851 
     82 H82        20.7258  -24.7356  -40.8698 H         1 UNK         0.0851 
     83 H83        20.3590  -24.0038  -42.4302 H         1 UNK         0.0851 
     84 H84        19.7223  -27.5280  -41.6407 H         1 UNK         0.2976 
     85 H85        23.8866  -26.4205  -47.1265 H         1 UNK         0.3116 
     86 H86        26.0888  -26.3961  -46.8848 H         1 UNK         0.0646 
     87 H87        25.8526  -29.3722  -46.1868 H         1 UNK         0.0847 
     88 H88        27.2819  -28.5551  -46.7997 H         1 UNK         0.0847 
     89 H89        25.8669  -28.7172  -47.8236 H         1 UNK         0.0847 
     90 H90        24.4618  -25.8052  -44.4963 H         1 UNK         0.3040 
     91 H91        24.5614  -25.2654  -42.3686 H         1 UNK         0.1015 
     92 H92        27.6076  -25.5490  -42.5097 H         1 UNK         0.0786 
     93 H93        26.6912  -24.6416  -41.3182 H         1 UNK         0.0786 
     94 H94        26.7040  -24.1135  -42.9910 H         1 UNK         0.0786 
     95 H95        24.3416  -28.1724  -43.1443 H         1 UNK         0.3172 
     96 H96        25.5317  -29.6986  -41.0105 H         1 UNK         0.0595 
     97 H97        23.2690  -30.4743  -42.9217 H         1 UNK         0.0839 
     98 H98        24.3122  -31.5634  -42.0187 H         1 UNK         0.0839 
     99 H99        24.9851  -30.5880  -43.3112 H         1 UNK         0.0839 
    100 H100       23.0489  -27.5479  -40.7742 H         1 UNK         0.2998 
    101 H101       21.3380  -27.0918  -39.4266 H         1 UNK         0.0822 
    102 H102       21.4868  -27.8478  -37.0462 H         1 UNK         0.0787 
    103 H103       22.7521  -28.9984  -37.4764 H         1 UNK         0.0787 
    104 H104       23.0290  -27.2730  -37.6469 H         1 UNK         0.0787 
    105 H105       20.9977  -30.0239  -37.7028 H         1 UNK         0.3055 
    106 H106       18.4561  -30.6497  -39.0318 H         1 UNK         0.1106 
    107 H107       18.6365  -30.6504  -36.5426 H         1 UNK         0.0828 
    108 H108       18.2093  -32.2439  -37.1377 H         1 UNK         0.0828 
    109 H109       19.8565  -31.9226  -36.6162 H         1 UNK         0.0828 
    110 H110       21.6320  -31.4795  -39.7330 H         1 UNK         0.2931 
    111 H111       22.5946  -32.9043  -41.0612 H         1 UNK         0.0412 
    112 H112       22.3587  -35.3805  -38.0972 H         1 UNK         0.3472 
    113 H113       21.8578  -33.7071  -38.1212 H         1 UNK         0.3472 
    114 H114       19.9492  -34.2215  -41.7995 H         1 UNK         0.0970 
    115 H115       21.4508  -34.3488  -42.6727 H         1 UNK         0.0970 
    116 H116       18.4314  -33.5040  -43.4851 H         1 UNK         0.0612 
    117 H117       19.5762  -33.6557  -44.7988 H         1 UNK         0.0612 
@<TRIPOS>BOND
     1    1    2 1    
     2    1   62 1    
     3    1   63 1    
     4    1   64 1    
     5    2    3 2    
     6    2    4 am   BACKBONE|DICT|INTERRES
     7    4    5 1    
     8    4   65 1    
     9    5    6 1    
    10    5   25 1    
    11    5   66 1    
    12    6    7 1    
    13    6   67 1    
    14    6   68 1    
    15    7    8 1    
    16    8    9 1    
    17    8   69 1    
    18    8   70 1    
    19    9   10 ar   
    20    9   14 ar   
    21   10   11 ar   
    22   10   71 1    
    23   11   12 ar   
    24   11   61 1    
    25   12   13 ar   
    26   12   72 1    
    27   13   14 ar   
    28   13   15 1    
    29   14   73 1    
    30   15   16 1    
    31   15   74 1    
    32   15   75 1    
    33   16   17 1    
    34   17   18 1    
    35   17   76 1    
    36   17   77 1    
    37   18   19 1    
    38   18   27 1    
    39   18   78 1    
    40   19   20 am   BACKBONE|DICT|INTERRES
    41   19   79 1    
    42   20   21 2    
    43   20   22 1    
    44   22   23 1    
    45   22   24 1    
    46   22   80 1    
    47   23   81 1    
    48   23   82 1    
    49   23   83 1    
    50   24   25 am   BACKBONE|DICT|INTERRES
    51   24   84 1    
    52   25   26 2    
    53   27   28 2    
    54   27   29 am   BACKBONE|DICT|INTERRES
    55   29   30 1    
    56   29   85 1    
    57   30   31 1    
    58   30   32 1    
    59   30   86 1    
    60   31   87 1    
    61   31   88 1    
    62   31   89 1    
    63   32   33 2    
    64   32   34 am   BACKBONE|DICT|INTERRES
    65   34   35 1    
    66   34   90 1    
    67   35   36 1    
    68   35   37 1    
    69   35   91 1    
    70   36   92 1    
    71   36   93 1    
    72   36   94 1    
    73   37   38 2    
    74   37   39 am   BACKBONE|DICT|INTERRES
    75   39   40 1    
    76   39   95 1    
    77   40   41 1    
    78   40   42 1    
    79   40   96 1    
    80   41   97 1    
    81   41   98 1    
    82   41   99 1    
    83   42   43 2    
    84   42   44 am   BACKBONE|DICT|INTERRES
    85   44   45 1    
    86   44  100 1    
    87   45   46 1    
    88   45   47 1    
    89   45  101 1    
    90   46  102 1    
    91   46  103 1    
    92   46  104 1    
    93   47   48 2    
    94   47   49 am   BACKBONE|DICT|INTERRES
    95   49   50 1    
    96   49  105 1    
    97   50   51 1    
    98   50   52 1    
    99   50  106 1    
   100   51  107 1    
   101   51  108 1    
   102   51  109 1    
   103   52   53 2    
   104   52   54 am   BACKBONE|DICT|INTERRES
   105   54   55 1    
   106   54  110 1    
   107   55   56 1    
   108   55   59 1    
   109   55  111 1    
   110   56   57 am   BACKBONE|DICT|INTERRES
   111   56   58 2    
   112   57  112 1    
   113   57  113 1    
   114   59   60 1    
   115   59  114 1    
   116   59  115 1    
   117   60   61 1    
   118   61  116 1    
   119   61  117 1    
@<TRIPOS>SUBSTRUCTURE
     1 UNK         1 GROUP             0       ****    0 ROOT    
