@<TRIPOS>MOLECULE
3R8
117   119    1
SMALL
USER_CHARGES


@<TRIPOS>ATOM
      1 CA         20.8500  -29.8415  -43.4607 C.3       0 UNK        -0.2013 
      2 C          20.6451  -28.4484  -42.8923 C.2       0 UNK         0.4866 
      3 O          21.6036  -27.8579  -42.3984 O.2       0 UNK        -0.5176 
      4 N          19.4102  -27.9288  -42.9602 N.am      1 UNK        -0.4884 
      5 CA         18.9837  -26.6405  -42.3928 C.3       1 UNK         0.0853 
      6 C6         17.4511  -26.4297  -42.5019 C.3       10 UNK        -0.0849 
      7 S7         16.4832  -27.7872  -41.7642 S.3       10 UNK        -0.2776 
      8 C8         15.6240  -28.4733  -43.2206 C.3       10 UNK         0.0316 
      9 C9         16.4816  -29.4617  -44.0026 C.ar      10 UNK        -0.0863 
     10 C10        16.7900  -30.7010  -43.4355 C.ar      10 UNK        -0.1009 
     11 C11        17.4928  -31.6633  -44.1638 C.ar      10 UNK        -0.0712 
     12 C12        17.9048  -31.3749  -45.4677 C.ar      10 UNK        -0.0894 
     13 C13        17.6055  -30.1396  -46.0522 C.ar      10 UNK        -0.0745 
     14 C14        16.8957  -29.1840  -45.3116 C.ar      10 UNK        -0.0972 
     15 C15        17.9618  -29.8952  -47.5166 C.3       10 UNK         0.0209 
     16 S16        18.8814  -28.3519  -47.8110 S.3       10 UNK        -0.2568 
     17 C17        20.5609  -28.7846  -47.2397 C.3       10 UNK        -0.0983 
     18 CA         21.4619  -27.5291  -47.1073 C.3       3 UNK         0.0876 
     19 N          20.8319  -26.5265  -46.2440 N.am      3 UNK        -0.4424 
     20 C          21.0844  -25.2105  -46.2237 C.2       2 UNK         0.4918 
     21 O          21.9000  -24.6584  -46.9617 O.2       2 UNK        -0.4875 
     22 CA         20.2864  -24.3748  -45.2048 C.3       2 UNK         0.0481 
     23 CB         19.3352  -23.4058  -45.9265 C.3       2 UNK        -0.1831 
     24 N          19.5032  -25.2453  -44.3218 N.am      2 UNK        -0.4498 
     25 C          19.7448  -25.4561  -43.0217 C.2       1 UNK         0.5027 
     26 O          20.5328  -24.7966  -42.3439 O.2       1 UNK        -0.4969 
     27 C          22.8805  -27.8989  -46.6163 C.2       3 UNK         0.5005 
     28 O          23.6512  -28.5008  -47.3653 O.2       3 UNK        -0.5279 
     29 N          23.1975  -27.5159  -45.3757 N.am      4 UNK        -0.4463 
     30 CA         24.4903  -27.5774  -44.7122 C.3       4 UNK         0.0283 
     31 CB         24.6664  -28.9523  -44.0425 C.3       4 UNK        -0.1875 
     32 C          24.5168  -26.4199  -43.6994 C.2       4 UNK         0.4949 
     33 O          23.5814  -25.6145  -43.6608 O.2       4 UNK        -0.5039 
     34 N          25.5714  -26.3450  -42.8811 N.am      5 UNK        -0.4663 
     35 CA         25.7425  -25.3300  -41.8357 C.3       5 UNK         0.0242 
     36 CB         27.2463  -25.1853  -41.5320 C.3       5 UNK        -0.1982 
     37 C          24.9064  -25.6412  -40.5748 C.2       5 UNK         0.5017 
     38 O          25.4758  -25.7985  -39.4931 O.2       5 UNK        -0.5012 
     39 N          23.5775  -25.7371  -40.7423 N.am      6 UNK        -0.4439 
     40 CA         22.5681  -26.0746  -39.7279 C.3       6 UNK         0.0297 
     41 CB         22.4261  -24.9354  -38.6965 C.3       6 UNK        -0.2006 
     42 C          22.8314  -27.4490  -39.0823 C.2       6 UNK         0.4892 
     43 O          22.9119  -27.5589  -37.8566 O.2       6 UNK        -0.5089 
     44 N          23.0028  -28.4655  -39.9346 N.am      7 UNK        -0.4243 
     45 CA         23.3209  -29.8346  -39.5358 C.3       7 UNK         0.0196 
     46 CB         24.0353  -30.5431  -40.6976 C.3       7 UNK        -0.2007 
     47 C          22.0570  -30.6100  -39.1418 C.2       7 UNK         0.5020 
     48 O          20.9878  -30.3825  -39.7116 O.2       7 UNK        -0.5147 
     49 N          22.2196  -31.5577  -38.2122 N.am      8 UNK        -0.4734 
     50 CA         21.2059  -32.5541  -37.8735 C.3       8 UNK         0.0238 
     51 CB         21.4030  -33.0118  -36.4176 C.3       8 UNK        -0.1912 
     52 C          21.3368  -33.7282  -38.8539 C.2       8 UNK         0.5038 
     53 O          22.3451  -34.4374  -38.8108 O.2       8 UNK        -0.5046 
     54 N          20.3474  -33.8814  -39.7396 N.am      9 UNK        -0.4200 
     55 CA         20.2949  -34.9302  -40.7688 C.3       9 UNK         0.0839 
     56 C          20.1694  -36.3571  -40.1681 C.2       9 UNK         0.5513 
     57 N          20.7734  -37.3521  -40.8029 N.am      9 UNK        -0.7519 
     58 O          19.4948  -36.5741  -39.1632 O.2       9 UNK        -0.4960 
     59 C59        19.1563  -34.6687  -41.7868 C.3       10 UNK        -0.0876 
     60 S60        19.3029  -33.0438  -42.6011 S.3       10 UNK        -0.2414 
     61 C61        17.7588  -33.0300  -43.5540 C.3       10 UNK         0.0169 
     62 H62        19.9613  -30.2053  -43.9716 H         1 UNK         0.0903 
     63 H63        21.6777  -29.8481  -44.1683 H         1 UNK         0.0903 
     64 H64        21.0853  -30.5360  -42.6548 H         1 UNK         0.0903 
     65 H65        18.6615  -28.4969  -43.3351 H         1 UNK         0.3096 
     66 H66        19.2452  -26.6599  -41.3323 H         1 UNK         0.1121 
     67 H67        17.1640  -25.5083  -41.9910 H         1 UNK         0.0849 
     68 H68        17.1428  -26.3013  -43.5404 H         1 UNK         0.0849 
     69 H69        14.7285  -28.9923  -42.8753 H         1 UNK         0.0865 
     70 H70        15.2657  -27.6661  -43.8613 H         1 UNK         0.0865 
     71 H71        16.4580  -30.9270  -42.4309 H         1 UNK         0.1346 
     72 H72        18.4328  -32.1280  -46.0368 H         1 UNK         0.1412 
     73 H73        16.6327  -28.2415  -45.7727 H         1 UNK         0.1426 
     74 H74        17.0345  -29.8555  -48.0896 H         1 UNK         0.0716 
     75 H75        18.5354  -30.7281  -47.9265 H         1 UNK         0.0716 
     76 H76        20.9925  -29.4937  -47.9487 H         1 UNK         0.0695 
     77 H77        20.4806  -29.3085  -46.2867 H         1 UNK         0.0695 
     78 H78        21.5801  -27.0901  -48.1006 H         1 UNK         0.0983 
     79 H79        20.1421  -26.8862  -45.6048 H         1 UNK         0.3095 
     80 H80        21.0070  -23.7910  -44.6285 H         1 UNK         0.0454 
     81 H81        19.8887  -22.7257  -46.5754 H         1 UNK         0.0851 
     82 H82        18.7811  -22.7930  -45.2154 H         1 UNK         0.0851 
     83 H83        18.6125  -23.9345  -46.5491 H         1 UNK         0.0851 
     84 H84        18.7850  -25.7968  -44.7682 H         1 UNK         0.2976 
     85 H85        22.5295  -26.9546  -44.8592 H         1 UNK         0.3116 
     86 H86        25.2840  -27.4124  -45.4434 H         1 UNK         0.0646 
     87 H87        25.6555  -29.0583  -43.5967 H         1 UNK         0.0847 
     88 H88        24.5518  -29.7629  -44.7621 H         1 UNK         0.0847 
     89 H89        23.9311  -29.1012  -43.2530 H         1 UNK         0.0847 
     90 H90        26.2928  -27.0488  -42.9471 H         1 UNK         0.3040 
     91 H91        25.3924  -24.3675  -42.2165 H         1 UNK         0.1015 
     92 H92        27.4217  -24.4093  -40.7856 H         1 UNK         0.0786 
     93 H93        27.8060  -24.9039  -42.4243 H         1 UNK         0.0786 
     94 H94        27.6726  -26.1122  -41.1461 H         1 UNK         0.0786 
     95 H95        23.2247  -25.6391  -41.6920 H         1 UNK         0.3172 
     96 H96        21.6166  -26.1606  -40.2531 H         1 UNK         0.0595 
     97 H97        23.3361  -24.8002  -38.1112 H         1 UNK         0.0839 
     98 H98        21.6170  -25.1439  -37.9955 H         1 UNK         0.0839 
     99 H99        22.1955  -23.9882  -39.1840 H         1 UNK         0.0839 
    100 H100       22.7774  -28.3050  -40.9129 H         1 UNK         0.2998 
    101 H101       24.0007  -29.8017  -38.6812 H         1 UNK         0.0822 
    102 H102       24.9249  -29.9965  -41.0110 H         1 UNK         0.0787 
    103 H103       24.3562  -31.5440  -40.4058 H         1 UNK         0.0787 
    104 H104       23.3812  -30.6541  -41.5630 H         1 UNK         0.0787 
    105 H105       23.1421  -31.7136  -37.8305 H         1 UNK         0.3055 
    106 H106       20.2088  -32.1151  -37.9582 H         1 UNK         0.1106 
    107 H107       22.3883  -33.4510  -36.2561 H         1 UNK         0.0828 
    108 H108       21.2901  -32.1795  -35.7226 H         1 UNK         0.0828 
    109 H109       20.6626  -33.7648  -36.1442 H         1 UNK         0.0828 
    110 H110       19.5712  -33.2368  -39.7294 H         1 UNK         0.2931 
    111 H111       21.2414  -34.8825  -41.3119 H         1 UNK         0.0412 
    112 H112       21.3213  -37.1849  -41.6330 H         1 UNK         0.3472 
    113 H113       20.6908  -38.2888  -40.4385 H         1 UNK         0.3472 
    114 H114       19.1557  -35.4361  -42.5635 H         1 UNK         0.0970 
    115 H115       18.1843  -34.7302  -41.2931 H         1 UNK         0.0970 
    116 H116       17.8101  -33.7914  -44.3339 H         1 UNK         0.0612 
    117 H117       16.9274  -33.3091  -42.9047 H         1 UNK         0.0612 
@<TRIPOS>BOND
     1    1    2 1    
     2    1   62 1    
     3    1   63 1    
     4    1   64 1    
     5    2    3 2    
     6    2    4 am   BACKBONE|DICT|INTERRES
     7    4    5 1    
     8    4   65 1    
     9    5    6 1    
    10    5   25 1    
    11    5   66 1    
    12    6    7 1    
    13    6   67 1    
    14    6   68 1    
    15    7    8 1    
    16    8    9 1    
    17    8   69 1    
    18    8   70 1    
    19    9   10 ar   
    20    9   14 ar   
    21   10   11 ar   
    22   10   71 1    
    23   11   12 ar   
    24   11   61 1    
    25   12   13 ar   
    26   12   72 1    
    27   13   14 ar   
    28   13   15 1    
    29   14   73 1    
    30   15   16 1    
    31   15   74 1    
    32   15   75 1    
    33   16   17 1    
    34   17   18 1    
    35   17   76 1    
    36   17   77 1    
    37   18   19 1    
    38   18   27 1    
    39   18   78 1    
    40   19   20 am   BACKBONE|DICT|INTERRES
    41   19   79 1    
    42   20   21 2    
    43   20   22 1    
    44   22   23 1    
    45   22   24 1    
    46   22   80 1    
    47   23   81 1    
    48   23   82 1    
    49   23   83 1    
    50   24   25 am   BACKBONE|DICT|INTERRES
    51   24   84 1    
    52   25   26 2    
    53   27   28 2    
    54   27   29 am   BACKBONE|DICT|INTERRES
    55   29   30 1    
    56   29   85 1    
    57   30   31 1    
    58   30   32 1    
    59   30   86 1    
    60   31   87 1    
    61   31   88 1    
    62   31   89 1    
    63   32   33 2    
    64   32   34 am   BACKBONE|DICT|INTERRES
    65   34   35 1    
    66   34   90 1    
    67   35   36 1    
    68   35   37 1    
    69   35   91 1    
    70   36   92 1    
    71   36   93 1    
    72   36   94 1    
    73   37   38 2    
    74   37   39 am   BACKBONE|DICT|INTERRES
    75   39   40 1    
    76   39   95 1    
    77   40   41 1    
    78   40   42 1    
    79   40   96 1    
    80   41   97 1    
    81   41   98 1    
    82   41   99 1    
    83   42   43 2    
    84   42   44 am   BACKBONE|DICT|INTERRES
    85   44   45 1    
    86   44  100 1    
    87   45   46 1    
    88   45   47 1    
    89   45  101 1    
    90   46  102 1    
    91   46  103 1    
    92   46  104 1    
    93   47   48 2    
    94   47   49 am   BACKBONE|DICT|INTERRES
    95   49   50 1    
    96   49  105 1    
    97   50   51 1    
    98   50   52 1    
    99   50  106 1    
   100   51  107 1    
   101   51  108 1    
   102   51  109 1    
   103   52   53 2    
   104   52   54 am   BACKBONE|DICT|INTERRES
   105   54   55 1    
   106   54  110 1    
   107   55   56 1    
   108   55   59 1    
   109   55  111 1    
   110   56   57 am   BACKBONE|DICT|INTERRES
   111   56   58 2    
   112   57  112 1    
   113   57  113 1    
   114   59   60 1    
   115   59  114 1    
   116   59  115 1    
   117   60   61 1    
   118   61  116 1    
   119   61  117 1    
@<TRIPOS>SUBSTRUCTURE
     1 UNK         1 GROUP             0       ****    0 ROOT    
