@<TRIPOS>MOLECULE
3R8
117   119    1
SMALL
USER_CHARGES


@<TRIPOS>ATOM
      1 CA         14.1439  -25.9331  -47.9510 C.3       0 UNK        -0.2013 
      2 C          14.7060  -26.0765  -46.5440 C.2       0 UNK         0.4866 
      3 O          14.2599  -25.3702  -45.6390 O.2       0 UNK        -0.5176 
      4 N          15.6733  -26.9878  -46.3656 N.am      1 UNK        -0.4884 
      5 CA         16.3943  -27.2911  -45.1186 C.3       1 UNK         0.0853 
      6 C6         15.4662  -27.8239  -43.9839 C.3       10 UNK        -0.0849 
      7 S7         14.9443  -29.5374  -44.3315 S.3       10 UNK        -0.2776 
      8 C8         15.9558  -30.4943  -43.1476 C.3       10 UNK         0.0316 
      9 C9         17.4394  -30.1458  -43.2129 C.ar      10 UNK        -0.0863 
     10 C10        18.0846  -29.6034  -42.0979 C.ar      10 UNK        -0.1009 
     11 C11        19.4435  -29.2780  -42.1489 C.ar      10 UNK        -0.0712 
     12 C12        20.1542  -29.4813  -43.3353 C.ar      10 UNK        -0.0894 
     13 C13        19.5153  -30.0041  -44.4650 C.ar      10 UNK        -0.0745 
     14 C14        18.1642  -30.3543  -44.3888 C.ar      10 UNK        -0.0972 
     15 C15        20.2666  -30.1946  -45.7745 C.3       10 UNK         0.0209 
     16 S16        20.3724  -28.6408  -46.7233 S.3       10 UNK        -0.2568 
     17 C17        21.9356  -27.9287  -46.1031 C.3       10 UNK        -0.0983 
     18 CA         21.7948  -26.5124  -45.4870 C.3       3 UNK         0.0876 
     19 N          20.7131  -26.4405  -44.4969 N.am      3 UNK        -0.4424 
     20 C          20.2848  -25.3309  -43.8774 C.2       2 UNK         0.4918 
     21 O          20.7936  -24.2190  -44.0258 O.2       2 UNK        -0.4875 
     22 CA         19.0649  -25.5100  -42.9509 C.3       2 UNK         0.0481 
     23 CB         18.4639  -24.1723  -42.4698 C.3       2 UNK        -0.1831 
     24 N          18.0343  -26.3745  -43.5428 N.am      2 UNK        -0.4498 
     25 C          17.3345  -26.1486  -44.6677 C.2       1 UNK         0.5027 
     26 O          17.4590  -25.1313  -45.3548 O.2       1 UNK        -0.4969 
     27 C          23.1635  -26.0704  -44.9269 C.2       3 UNK         0.5005 
     28 O          23.9481  -25.4498  -45.6463 O.2       3 UNK        -0.5279 
     29 N          23.4243  -26.4210  -43.6630 N.am      4 UNK        -0.4463 
     30 CA         24.6522  -26.1849  -42.9127 C.3       4 UNK         0.0283 
     31 CB         25.7870  -27.0865  -43.4442 C.3       4 UNK        -0.1875 
     32 C          24.3574  -26.4899  -41.4383 C.2       4 UNK         0.4949 
     33 O          23.2623  -26.9607  -41.1212 O.2       4 UNK        -0.5039 
     34 N          25.3476  -26.2499  -40.5747 N.am      5 UNK        -0.4663 
     35 CA         25.3458  -26.6286  -39.1627 C.3       5 UNK         0.0242 
     36 CB         25.5639  -25.3627  -38.3114 C.3       5 UNK        -0.1982 
     37 C          26.4731  -27.6607  -38.9655 C.2       5 UNK         0.5017 
     38 O          27.6037  -27.2530  -38.7000 O.2       5 UNK        -0.5012 
     39 N          26.2386  -28.9679  -39.1425 N.am      6 UNK        -0.4439 
     40 CA         25.0021  -29.6462  -39.5339 C.3       6 UNK         0.0297 
     41 CB         24.4823  -30.4615  -38.3381 C.3       6 UNK        -0.2006 
     42 C          25.2893  -30.5638  -40.7294 C.2       6 UNK         0.4892 
     43 O          26.4268  -31.0126  -40.8943 O.2       6 UNK        -0.5089 
     44 N          24.2464  -30.8318  -41.5222 N.am      7 UNK        -0.4243 
     45 CA         24.2646  -31.7495  -42.6612 C.3       7 UNK         0.0196 
     46 CB         23.9660  -30.9683  -43.9567 C.3       7 UNK        -0.2007 
     47 C          23.2799  -32.8897  -42.3643 C.2       7 UNK         0.5020 
     48 O          23.5331  -33.6640  -41.4414 O.2       7 UNK        -0.5147 
     49 N          22.1638  -32.9691  -43.1057 N.am      8 UNK        -0.4734 
     50 CA         21.1003  -33.9717  -42.9264 C.3       8 UNK         0.0238 
     51 CB         20.0573  -33.8140  -44.0442 C.3       8 UNK        -0.1912 
     52 C          20.4183  -33.9204  -41.5449 C.2       8 UNK         0.5038 
     53 O          19.9363  -34.9469  -41.0650 O.2       8 UNK        -0.5046 
     54 N          20.4265  -32.7338  -40.9290 N.am      9 UNK        -0.4200 
     55 CA         20.0719  -32.4745  -39.5285 C.3       9 UNK         0.0839 
     56 C          21.0443  -33.0797  -38.4712 C.2       9 UNK         0.5513 
     57 N          22.2161  -33.5876  -38.8348 N.am      9 UNK        -0.7519 
     58 O          20.7172  -33.0989  -37.2874 O.2       9 UNK        -0.4960 
     59 C59        19.8309  -30.9595  -39.2829 C.3       10 UNK        -0.0876 
     60 S60        21.1237  -29.8804  -40.0057 S.3       10 UNK        -0.2414 
     61 C61        20.1325  -28.6691  -40.9346 C.3       10 UNK         0.0169 
     62 H62        14.6144  -26.6220  -48.6524 H         1 UNK         0.0903 
     63 H63        13.0725  -26.1318  -47.9489 H         1 UNK         0.0903 
     64 H64        14.3016  -24.9183  -48.3157 H         1 UNK         0.0903 
     65 H65        15.9932  -27.5099  -47.1695 H         1 UNK         0.3096 
     66 H66        17.0843  -28.0890  -45.3926 H         1 UNK         0.1121 
     67 H67        15.9417  -27.8051  -43.0034 H         1 UNK         0.0849 
     68 H68        14.5770  -27.2037  -43.8714 H         1 UNK         0.0849 
     69 H69        15.5640  -30.3322  -42.1421 H         1 UNK         0.0865 
     70 H70        15.8309  -31.5581  -43.3538 H         1 UNK         0.0865 
     71 H71        17.5266  -29.4324  -41.1873 H         1 UNK         0.1346 
     72 H72        21.1994  -29.2142  -43.3761 H         1 UNK         0.1412 
     73 H73        17.6638  -30.7660  -45.2552 H         1 UNK         0.1426 
     74 H74        19.7531  -30.9342  -46.3910 H         1 UNK         0.0716 
     75 H75        21.2597  -30.6058  -45.5938 H         1 UNK         0.0716 
     76 H76        22.3818  -28.6140  -45.3820 H         1 UNK         0.0695 
     77 H77        22.6314  -27.8979  -46.9439 H         1 UNK         0.0695 
     78 H78        21.5350  -25.8172  -46.2883 H         1 UNK         0.0983 
     79 H79        20.1967  -27.2961  -44.3547 H         1 UNK         0.3095 
     80 H80        19.4302  -26.0322  -42.0668 H         1 UNK         0.0454 
     81 H81        19.2015  -23.5914  -41.9149 H         1 UNK         0.0851 
     82 H82        17.6151  -24.3344  -41.8057 H         1 UNK         0.0851 
     83 H83        18.1259  -23.5538  -43.3016 H         1 UNK         0.0851 
     84 H84        17.8919  -27.2567  -43.0693 H         1 UNK         0.2976 
     85 H85        22.7044  -26.8682  -43.1078 H         1 UNK         0.3116 
     86 H86        24.9303  -25.1333  -43.0055 H         1 UNK         0.0646 
     87 H87        25.5546  -28.1432  -43.3096 H         1 UNK         0.0847 
     88 H88        25.9747  -26.9187  -44.5045 H         1 UNK         0.0847 
     89 H89        26.7258  -26.8928  -42.9247 H         1 UNK         0.0847 
     90 H90        26.2245  -25.8910  -40.9275 H         1 UNK         0.3040 
     91 H91        24.3918  -27.0560  -38.8509 H         1 UNK         0.1015 
     92 H92        24.7388  -24.6609  -38.4341 H         1 UNK         0.0786 
     93 H93        25.6220  -25.6122  -37.2511 H         1 UNK         0.0786 
     94 H94        26.4846  -24.8413  -38.5765 H         1 UNK         0.0786 
     95 H95        27.0364  -29.5886  -39.1123 H         1 UNK         0.3172 
     96 H96        24.2278  -28.9479  -39.8391 H         1 UNK         0.0595 
     97 H97        25.2152  -31.1943  -37.9986 H         1 UNK         0.0839 
     98 H98        23.5753  -31.0083  -38.5975 H         1 UNK         0.0839 
     99 H99        24.2381  -29.8157  -37.4947 H         1 UNK         0.0839 
    100 H100       23.3443  -30.4523  -41.2671 H         1 UNK         0.2998 
    101 H101       25.2473  -32.2138  -42.7687 H         1 UNK         0.0822 
    102 H102       23.9190  -31.6320  -44.8213 H         1 UNK         0.0787 
    103 H103       24.7536  -30.2437  -44.1612 H         1 UNK         0.0787 
    104 H104       23.0282  -30.4212  -43.8966 H         1 UNK         0.0787 
    105 H105       22.0342  -32.3016  -43.8511 H         1 UNK         0.3055 
    106 H106       21.5596  -34.9583  -43.0201 H         1 UNK         0.1106 
    107 H107       19.5487  -32.8521  -43.9867 H         1 UNK         0.0828 
    108 H108       20.5111  -33.8993  -45.0317 H         1 UNK         0.0828 
    109 H109       19.2919  -34.5881  -43.9735 H         1 UNK         0.0828 
    110 H110       20.8285  -31.9484  -41.4176 H         1 UNK         0.2931 
    111 H111       19.1190  -32.9781  -39.3552 H         1 UNK         0.0412 
    112 H112       22.8160  -33.9802  -38.1274 H         1 UNK         0.3472 
    113 H113       22.5192  -33.5913  -39.8036 H         1 UNK         0.3472 
    114 H114       18.8615  -30.6915  -39.6991 H         1 UNK         0.0970 
    115 H115       19.7446  -30.7360  -38.2178 H         1 UNK         0.0970 
    116 H116       20.7899  -27.8635  -41.2607 H         1 UNK         0.0612 
    117 H117       19.4037  -28.2107  -40.2643 H         1 UNK         0.0612 
@<TRIPOS>BOND
     1    1    2 1    
     2    1   62 1    
     3    1   63 1    
     4    1   64 1    
     5    2    3 2    
     6    2    4 am   BACKBONE|DICT|INTERRES
     7    4    5 1    
     8    4   65 1    
     9    5    6 1    
    10    5   25 1    
    11    5   66 1    
    12    6    7 1    
    13    6   67 1    
    14    6   68 1    
    15    7    8 1    
    16    8    9 1    
    17    8   69 1    
    18    8   70 1    
    19    9   10 ar   
    20    9   14 ar   
    21   10   11 ar   
    22   10   71 1    
    23   11   12 ar   
    24   11   61 1    
    25   12   13 ar   
    26   12   72 1    
    27   13   14 ar   
    28   13   15 1    
    29   14   73 1    
    30   15   16 1    
    31   15   74 1    
    32   15   75 1    
    33   16   17 1    
    34   17   18 1    
    35   17   76 1    
    36   17   77 1    
    37   18   19 1    
    38   18   27 1    
    39   18   78 1    
    40   19   20 am   BACKBONE|DICT|INTERRES
    41   19   79 1    
    42   20   21 2    
    43   20   22 1    
    44   22   23 1    
    45   22   24 1    
    46   22   80 1    
    47   23   81 1    
    48   23   82 1    
    49   23   83 1    
    50   24   25 am   BACKBONE|DICT|INTERRES
    51   24   84 1    
    52   25   26 2    
    53   27   28 2    
    54   27   29 am   BACKBONE|DICT|INTERRES
    55   29   30 1    
    56   29   85 1    
    57   30   31 1    
    58   30   32 1    
    59   30   86 1    
    60   31   87 1    
    61   31   88 1    
    62   31   89 1    
    63   32   33 2    
    64   32   34 am   BACKBONE|DICT|INTERRES
    65   34   35 1    
    66   34   90 1    
    67   35   36 1    
    68   35   37 1    
    69   35   91 1    
    70   36   92 1    
    71   36   93 1    
    72   36   94 1    
    73   37   38 2    
    74   37   39 am   BACKBONE|DICT|INTERRES
    75   39   40 1    
    76   39   95 1    
    77   40   41 1    
    78   40   42 1    
    79   40   96 1    
    80   41   97 1    
    81   41   98 1    
    82   41   99 1    
    83   42   43 2    
    84   42   44 am   BACKBONE|DICT|INTERRES
    85   44   45 1    
    86   44  100 1    
    87   45   46 1    
    88   45   47 1    
    89   45  101 1    
    90   46  102 1    
    91   46  103 1    
    92   46  104 1    
    93   47   48 2    
    94   47   49 am   BACKBONE|DICT|INTERRES
    95   49   50 1    
    96   49  105 1    
    97   50   51 1    
    98   50   52 1    
    99   50  106 1    
   100   51  107 1    
   101   51  108 1    
   102   51  109 1    
   103   52   53 2    
   104   52   54 am   BACKBONE|DICT|INTERRES
   105   54   55 1    
   106   54  110 1    
   107   55   56 1    
   108   55   59 1    
   109   55  111 1    
   110   56   57 am   BACKBONE|DICT|INTERRES
   111   56   58 2    
   112   57  112 1    
   113   57  113 1    
   114   59   60 1    
   115   59  114 1    
   116   59  115 1    
   117   60   61 1    
   118   61  116 1    
   119   61  117 1    
@<TRIPOS>SUBSTRUCTURE
     1 UNK         1 GROUP             0       ****    0 ROOT    
