@<TRIPOS>MOLECULE
3R8
117   119    1
SMALL
USER_CHARGES


@<TRIPOS>ATOM
      1 CA         19.0192  -24.5416  -39.1233 C.3       0 UNK        -0.2013 
      2 C          18.2748  -25.1079  -40.3235 C.2       0 UNK         0.4866 
      3 O          17.0886  -25.4181  -40.2164 O.2       0 UNK        -0.5176 
      4 N          18.9657  -25.2343  -41.4599 N.am      1 UNK        -0.4884 
      5 CA         18.4669  -25.7708  -42.7265 C.3       1 UNK         0.0853 
      6 C6         18.7660  -27.2874  -42.8684 C.3       10 UNK        -0.0849 
      7 S7         17.5855  -28.3456  -41.9643 S.3       10 UNK        -0.2776 
      8 C8         16.6862  -29.1995  -43.3022 C.3       10 UNK         0.0316 
      9 C9         17.6227  -30.0214  -44.1762 C.ar      10 UNK        -0.0863 
     10 C10        18.1918  -31.2006  -43.6878 C.ar      10 UNK        -0.1009 
     11 C11        19.1052  -31.9190  -44.4644 C.ar      10 UNK        -0.0712 
     12 C12        19.4372  -31.4591  -45.7428 C.ar      10 UNK        -0.0894 
     13 C13        18.8835  -30.2721  -46.2362 C.ar      10 UNK        -0.0745 
     14 C14        17.9565  -29.5750  -45.4578 C.ar      10 UNK        -0.0972 
     15 C15        19.3021  -29.7047  -47.5885 C.3       10 UNK         0.0209 
     16 S16        21.1109  -29.6158  -47.8360 S.3       10 UNK        -0.2568 
     17 C17        21.7541  -28.8781  -46.2930 C.3       10 UNK        -0.0983 
     18 CA         21.9837  -27.3511  -46.4006 C.3       3 UNK         0.0876 
     19 N          20.7268  -26.6061  -46.3189 N.am      3 UNK        -0.4424 
     20 C          20.5735  -25.3252  -46.6822 C.2       2 UNK         0.4918 
     21 O          21.4401  -24.6678  -47.2596 O.2       2 UNK        -0.4875 
     22 CA         19.2287  -24.6578  -46.3323 C.3       2 UNK         0.0481 
     23 CB         18.2312  -24.8280  -47.4893 C.3       2 UNK        -0.1831 
     24 N          18.6336  -25.1754  -45.0950 N.am      2 UNK        -0.4498 
     25 C          19.1414  -24.9863  -43.8672 C.2       1 UNK         0.5027 
     26 O          20.1140  -24.2637  -43.6292 O.2       1 UNK        -0.4969 
     27 C          22.9365  -26.8820  -45.2835 C.2       3 UNK         0.5005 
     28 O          22.4959  -26.6697  -44.1495 O.2       3 UNK        -0.5279 
     29 N          24.2357  -26.8011  -45.6083 N.am      4 UNK        -0.4463 
     30 CA         25.3240  -26.3557  -44.7250 C.3       4 UNK         0.0283 
     31 CB         26.6299  -26.2887  -45.5340 C.3       4 UNK        -0.1875 
     32 C          25.5262  -27.2003  -43.4511 C.2       4 UNK         0.4949 
     33 O          26.1802  -26.7327  -42.5190 O.2       4 UNK        -0.5039 
     34 N          24.9479  -28.4090  -43.4190 N.am      5 UNK        -0.4663 
     35 CA         24.8608  -29.2759  -42.2423 C.3       5 UNK         0.0242 
     36 CB         24.3237  -30.6487  -42.6749 C.3       5 UNK        -0.1982 
     37 C          23.9956  -28.6964  -41.1063 C.2       5 UNK         0.5017 
     38 O          24.1620  -29.1284  -39.9669 O.2       5 UNK        -0.5012 
     39 N          23.0965  -27.7470  -41.4212 N.am      6 UNK        -0.4439 
     40 CA         22.2698  -26.9747  -40.4833 C.3       6 UNK         0.0297 
     41 CB         23.1400  -25.9414  -39.7383 C.3       6 UNK        -0.2006 
     42 C          21.4351  -27.8521  -39.5276 C.2       6 UNK         0.4892 
     43 O          21.4394  -27.6266  -38.3167 O.2       6 UNK        -0.5089 
     44 N          20.7538  -28.8482  -40.1101 N.am      7 UNK        -0.4243 
     45 CA         19.8717  -29.8362  -39.4756 C.3       7 UNK         0.0196 
     46 CB         18.7928  -29.1708  -38.5918 C.3       7 UNK        -0.2007 
     47 C          20.5953  -30.9713  -38.7286 C.2       7 UNK         0.5020 
     48 O          19.9107  -31.8471  -38.1982 O.2       7 UNK        -0.5147 
     49 N          21.9387  -31.0060  -38.7283 N.am      8 UNK        -0.4734 
     50 CA         22.7264  -32.0952  -38.1243 C.3       8 UNK         0.0238 
     51 CB         24.2160  -31.7196  -38.1106 C.3       8 UNK        -0.1912 
     52 C          22.5252  -33.4573  -38.8173 C.2       8 UNK         0.5038 
     53 O          22.6797  -34.4960  -38.1743 O.2       8 UNK        -0.5046 
     54 N          22.1610  -33.4169  -40.1035 N.am      9 UNK        -0.4200 
     55 CA         21.7125  -34.5549  -40.9159 C.3       9 UNK         0.0839 
     56 C          20.2660  -35.0467  -40.6093 C.2       9 UNK         0.5513 
     57 N          19.4927  -34.3909  -39.7509 N.am      9 UNK        -0.7519 
     58 O          19.8389  -36.0593  -41.1576 O.2       9 UNK        -0.4960 
     59 C59        21.9305  -34.2814  -42.4294 C.3       10 UNK        -0.0876 
     60 S60        21.2766  -32.6683  -42.9859 S.3       10 UNK        -0.2414 
     61 C61        19.7817  -33.1543  -43.8952 C.3       10 UNK         0.0169 
     62 H62        18.4874  -23.6794  -38.7218 H         1 UNK         0.0903 
     63 H63        19.0900  -25.2958  -38.3395 H         1 UNK         0.0903 
     64 H64        20.0302  -24.2265  -39.3810 H         1 UNK         0.0903 
     65 H65        19.9000  -24.8509  -41.5343 H         1 UNK         0.3096 
     66 H66        17.3918  -25.5917  -42.8039 H         1 UNK         0.1121 
     67 H67        18.7647  -27.5901  -43.9124 H         1 UNK         0.0849 
     68 H68        19.7738  -27.5115  -42.5171 H         1 UNK         0.0849 
     69 H69        15.9339  -29.8553  -42.8615 H         1 UNK         0.0865 
     70 H70        16.1398  -28.4646  -43.8954 H         1 UNK         0.0865 
     71 H71        17.9529  -31.5378  -42.6882 H         1 UNK         0.1346 
     72 H72        20.1627  -31.9994  -46.3356 H         1 UNK         0.1412 
     73 H73        17.5208  -28.6600  -45.8348 H         1 UNK         0.1426 
     74 H74        18.8948  -28.7023  -47.7286 H         1 UNK         0.0716 
     75 H75        18.8708  -30.3223  -48.3771 H         1 UNK         0.0716 
     76 H76        21.1162  -29.1168  -45.4412 H         1 UNK         0.0695 
     77 H77        22.6967  -29.3937  -46.0978 H         1 UNK         0.0695 
     78 H78        22.4502  -27.1310  -47.3637 H         1 UNK         0.0983 
     79 H79        19.9754  -27.0602  -45.8269 H         1 UNK         0.3095 
     80 H80        19.4135  -23.5899  -46.1974 H         1 UNK         0.0454 
     81 H81        18.6398  -24.4254  -48.4173 H         1 UNK         0.0851 
     82 H82        17.9908  -25.8767  -47.6689 H         1 UNK         0.0851 
     83 H83        17.2995  -24.2975  -47.2926 H         1 UNK         0.0851 
     84 H84        17.8067  -25.7460  -45.1996 H         1 UNK         0.2976 
     85 H85        24.5056  -27.0242  -46.5564 H         1 UNK         0.3116 
     86 H86        25.0763  -25.3447  -44.3947 H         1 UNK         0.0646 
     87 H87        27.4541  -25.9260  -44.9179 H         1 UNK         0.0847 
     88 H88        26.5408  -25.6075  -46.3804 H         1 UNK         0.0847 
     89 H89        26.9183  -27.2683  -45.9173 H         1 UNK         0.0847 
     90 H90        24.4487  -28.7108  -44.2420 H         1 UNK         0.3040 
     91 H91        25.8689  -29.4072  -41.8428 H         1 UNK         0.1015 
     92 H92        24.9893  -31.1281  -43.3928 H         1 UNK         0.0786 
     93 H93        23.3394  -30.5633  -43.1357 H         1 UNK         0.0786 
     94 H94        24.2299  -31.3236  -41.8227 H         1 UNK         0.0786 
     95 H95        23.0172  -27.4697  -42.3971 H         1 UNK         0.3172 
     96 H96        21.5570  -26.4208  -41.0944 H         1 UNK         0.0595 
     97 H97        23.6824  -25.3036  -40.4364 H         1 UNK         0.0839 
     98 H98        23.8714  -26.4244  -39.0892 H         1 UNK         0.0839 
     99 H99        22.5285  -25.2904  -39.1124 H         1 UNK         0.0839 
    100 H100       20.8567  -28.9530  -41.1096 H         1 UNK         0.2998 
    101 H101       19.3513  -30.3206  -40.3035 H         1 UNK         0.0822 
    102 H102       18.0048  -29.8819  -38.3415 H         1 UNK         0.0787 
    103 H103       19.2052  -28.8062  -37.6508 H         1 UNK         0.0787 
    104 H104       18.3197  -28.3290  -39.0968 H         1 UNK         0.0787 
    105 H105       22.4574  -30.2469  -39.1565 H         1 UNK         0.3055 
    106 H106       22.3943  -32.2087  -37.0899 H         1 UNK         0.1106 
    107 H107       24.6204  -31.6343  -39.1198 H         1 UNK         0.0828 
    108 H108       24.3835  -30.7710  -37.6000 H         1 UNK         0.0828 
    109 H109       24.8037  -32.4763  -37.5892 H         1 UNK         0.0828 
    110 H110       22.0518  -32.5128  -40.5379 H         1 UNK         0.2931 
    111 H111       22.3551  -35.3988  -40.6577 H         1 UNK         0.0412 
    112 H112       18.5646  -34.7383  -39.5690 H         1 UNK         0.3472 
    113 H113       19.8168  -33.5601  -39.2695 H         1 UNK         0.3472 
    114 H114       21.5241  -35.0871  -43.0439 H         1 UNK         0.0970 
    115 H115       23.0017  -34.2792  -42.6363 H         1 UNK         0.0970 
    116 H116       19.1020  -33.6866  -43.2279 H         1 UNK         0.0612 
    117 H117       20.0465  -33.8462  -44.6963 H         1 UNK         0.0612 
@<TRIPOS>BOND
     1    1    2 1    
     2    1   62 1    
     3    1   63 1    
     4    1   64 1    
     5    2    3 2    
     6    2    4 am   BACKBONE|DICT|INTERRES
     7    4    5 1    
     8    4   65 1    
     9    5    6 1    
    10    5   25 1    
    11    5   66 1    
    12    6    7 1    
    13    6   67 1    
    14    6   68 1    
    15    7    8 1    
    16    8    9 1    
    17    8   69 1    
    18    8   70 1    
    19    9   10 ar   
    20    9   14 ar   
    21   10   11 ar   
    22   10   71 1    
    23   11   12 ar   
    24   11   61 1    
    25   12   13 ar   
    26   12   72 1    
    27   13   14 ar   
    28   13   15 1    
    29   14   73 1    
    30   15   16 1    
    31   15   74 1    
    32   15   75 1    
    33   16   17 1    
    34   17   18 1    
    35   17   76 1    
    36   17   77 1    
    37   18   19 1    
    38   18   27 1    
    39   18   78 1    
    40   19   20 am   BACKBONE|DICT|INTERRES
    41   19   79 1    
    42   20   21 2    
    43   20   22 1    
    44   22   23 1    
    45   22   24 1    
    46   22   80 1    
    47   23   81 1    
    48   23   82 1    
    49   23   83 1    
    50   24   25 am   BACKBONE|DICT|INTERRES
    51   24   84 1    
    52   25   26 2    
    53   27   28 2    
    54   27   29 am   BACKBONE|DICT|INTERRES
    55   29   30 1    
    56   29   85 1    
    57   30   31 1    
    58   30   32 1    
    59   30   86 1    
    60   31   87 1    
    61   31   88 1    
    62   31   89 1    
    63   32   33 2    
    64   32   34 am   BACKBONE|DICT|INTERRES
    65   34   35 1    
    66   34   90 1    
    67   35   36 1    
    68   35   37 1    
    69   35   91 1    
    70   36   92 1    
    71   36   93 1    
    72   36   94 1    
    73   37   38 2    
    74   37   39 am   BACKBONE|DICT|INTERRES
    75   39   40 1    
    76   39   95 1    
    77   40   41 1    
    78   40   42 1    
    79   40   96 1    
    80   41   97 1    
    81   41   98 1    
    82   41   99 1    
    83   42   43 2    
    84   42   44 am   BACKBONE|DICT|INTERRES
    85   44   45 1    
    86   44  100 1    
    87   45   46 1    
    88   45   47 1    
    89   45  101 1    
    90   46  102 1    
    91   46  103 1    
    92   46  104 1    
    93   47   48 2    
    94   47   49 am   BACKBONE|DICT|INTERRES
    95   49   50 1    
    96   49  105 1    
    97   50   51 1    
    98   50   52 1    
    99   50  106 1    
   100   51  107 1    
   101   51  108 1    
   102   51  109 1    
   103   52   53 2    
   104   52   54 am   BACKBONE|DICT|INTERRES
   105   54   55 1    
   106   54  110 1    
   107   55   56 1    
   108   55   59 1    
   109   55  111 1    
   110   56   57 am   BACKBONE|DICT|INTERRES
   111   56   58 2    
   112   57  112 1    
   113   57  113 1    
   114   59   60 1    
   115   59  114 1    
   116   59  115 1    
   117   60   61 1    
   118   61  116 1    
   119   61  117 1    
@<TRIPOS>SUBSTRUCTURE
     1 UNK         1 GROUP             0       ****    0 ROOT    
