@<TRIPOS>MOLECULE
3R8
117   119    1
SMALL
USER_CHARGES


@<TRIPOS>ATOM
      1 CA         16.6778  -28.4591  -41.1624 C.3       0 UNK        -0.2013 
      2 C          17.3110  -27.7547  -42.3517 C.2       0 UNK         0.4866 
      3 O          18.2837  -28.2556  -42.9149 O.2       0 UNK        -0.5176 
      4 N          16.7583  -26.5945  -42.7312 N.am      1 UNK        -0.4884 
      5 CA         17.1413  -25.7905  -43.9021 C.3       1 UNK         0.0853 
      6 C6         16.8481  -26.5127  -45.2532 C.3       10 UNK        -0.0849 
      7 S7         15.1477  -27.1837  -45.3414 S.3       10 UNK        -0.2776 
      8 C8         15.3164  -28.5791  -46.5050 C.3       10 UNK         0.0316 
      9 C9         16.3301  -29.6262  -46.0562 C.ar      10 UNK        -0.0863 
     10 C10        16.0737  -30.4479  -44.9516 C.ar      10 UNK        -0.1009 
     11 C11        16.9985  -31.4220  -44.5533 C.ar      10 UNK        -0.0712 
     12 C12        18.1792  -31.5749  -45.2888 C.ar      10 UNK        -0.0894 
     13 C13        18.4572  -30.7465  -46.3771 C.ar      10 UNK        -0.0745 
     14 C14        17.5256  -29.7816  -46.7643 C.ar      10 UNK        -0.0972 
     15 C15        19.7841  -30.8767  -47.1081 C.3       10 UNK         0.0209 
     16 S16        20.9232  -29.5211  -46.6827 S.3       10 UNK        -0.2568 
     17 C17        21.0252  -29.6590  -44.8622 C.3       10 UNK        -0.0983 
     18 CA         21.7445  -28.4487  -44.2292 C.3       3 UNK         0.0876 
     19 N          21.0897  -27.1911  -44.5996 N.am      3 UNK        -0.4424 
     20 C          21.6108  -25.9648  -44.4722 C.2       2 UNK         0.4918 
     21 O          22.7173  -25.7462  -43.9814 O.2       2 UNK        -0.4875 
     22 CA         20.7348  -24.7866  -44.9403 C.3       2 UNK         0.0481 
     23 CB         21.1300  -24.3626  -46.3631 C.3       2 UNK        -0.1831 
     24 N          19.2997  -25.0959  -44.9041 N.am      2 UNK        -0.4498 
     25 C          18.5974  -25.2745  -43.7745 C.2       1 UNK         0.5027 
     26 O          19.0738  -25.0632  -42.6558 O.2       1 UNK        -0.4969 
     27 C          21.9020  -28.6213  -42.7014 C.2       3 UNK         0.5005 
     28 O          22.6926  -29.4624  -42.2675 O.2       3 UNK        -0.5279 
     29 N          21.1973  -27.8034  -41.9051 N.am      4 UNK        -0.4463 
     30 CA         21.4043  -27.6627  -40.4641 C.3       4 UNK         0.0283 
     31 CB         20.2609  -26.8442  -39.8483 C.3       4 UNK        -0.1875 
     32 C          22.7642  -27.0340  -40.1179 C.2       4 UNK         0.4949 
     33 O          23.3684  -27.4328  -39.1239 O.2       4 UNK        -0.5039 
     34 N          23.2534  -26.1061  -40.9565 N.am      5 UNK        -0.4663 
     35 CA         24.5824  -25.4967  -40.8148 C.3       5 UNK         0.0242 
     36 CB         24.6615  -24.2131  -41.6563 C.3       5 UNK        -0.1982 
     37 C          25.7142  -26.4686  -41.1921 C.2       5 UNK         0.5017 
     38 O          26.8112  -26.3638  -40.6440 O.2       5 UNK        -0.5012 
     39 N          25.4113  -27.4205  -42.0863 N.am      6 UNK        -0.4439 
     40 CA         26.2691  -28.5571  -42.4337 C.3       6 UNK         0.0297 
     41 CB         25.8753  -29.0719  -43.8292 C.3       6 UNK        -0.2006 
     42 C          26.2045  -29.6990  -41.3973 C.2       6 UNK         0.4892 
     43 O          26.9745  -30.6522  -41.5176 O.2       6 UNK        -0.5089 
     44 N          25.2882  -29.5930  -40.4208 N.am      7 UNK        -0.4243 
     45 CA         24.9864  -30.5497  -39.3503 C.3       7 UNK         0.0196 
     46 CB         26.2004  -30.7411  -38.4161 C.3       7 UNK        -0.2007 
     47 C          24.3999  -31.8846  -39.8512 C.2       7 UNK         0.5020 
     48 O          24.4757  -32.8841  -39.1353 O.2       7 UNK        -0.5147 
     49 N          23.7994  -31.8855  -41.0493 N.am      8 UNK        -0.4734 
     50 CA         23.1349  -33.0552  -41.6313 C.3       8 UNK         0.0238 
     51 CB         23.2056  -32.9755  -43.1630 C.3       8 UNK        -0.1912 
     52 C          21.6816  -33.1855  -41.1476 C.2       8 UNK         0.5038 
     53 O          21.2175  -34.3071  -40.9401 O.2       8 UNK        -0.5046 
     54 N          21.0157  -32.0418  -40.9465 N.am      9 UNK        -0.4200 
     55 CA         19.6723  -31.9163  -40.3555 C.3       9 UNK         0.0839 
     56 C          19.6751  -30.9784  -39.1127 C.2       9 UNK         0.5513 
     57 N          20.8067  -30.7758  -38.4474 N.am      9 UNK        -0.7519 
     58 O          18.6411  -30.4431  -38.7240 O.2       9 UNK        -0.4960 
     59 C59        18.6016  -31.5370  -41.4193 C.3       10 UNK        -0.0876 
     60 S60        18.1483  -32.9592  -42.4649 S.3       10 UNK        -0.2414 
     61 C61        16.6828  -32.3216  -43.3575 C.3       10 UNK         0.0169 
     62 H62        16.1590  -29.3562  -41.4980 H         1 UNK         0.0903 
     63 H63        17.4422  -28.7522  -40.4452 H         1 UNK         0.0903 
     64 H64        15.9588  -27.8231  -40.6467 H         1 UNK         0.0903 
     65 H65        15.9817  -26.2265  -42.2005 H         1 UNK         0.3096 
     66 H66        16.5163  -24.8968  -43.8671 H         1 UNK         0.1121 
     67 H67        17.5621  -27.3235  -45.4007 H         1 UNK         0.0849 
     68 H68        16.9710  -25.8307  -46.0960 H         1 UNK         0.0849 
     69 H69        14.3425  -29.0567  -46.6217 H         1 UNK         0.0865 
     70 H70        15.5770  -28.1853  -47.4887 H         1 UNK         0.0865 
     71 H71        15.1502  -30.3258  -44.4022 H         1 UNK         0.1346 
     72 H72        18.9028  -32.3257  -45.0056 H         1 UNK         0.1412 
     73 H73        17.7429  -29.1426  -47.6095 H         1 UNK         0.1426 
     74 H74        19.6103  -30.8718  -48.1850 H         1 UNK         0.0716 
     75 H75        20.2631  -31.8299  -46.8785 H         1 UNK         0.0716 
     76 H76        21.5384  -30.5895  -44.6271 H         1 UNK         0.0695 
     77 H77        20.0224  -29.7418  -44.4420 H         1 UNK         0.0695 
     78 H78        22.7573  -28.4153  -44.6360 H         1 UNK         0.0983 
     79 H79        20.1667  -27.2865  -44.9957 H         1 UNK         0.3095 
     80 H80        20.9235  -23.9460  -44.2692 H         1 UNK         0.0454 
     81 H81        20.5676  -23.4872  -46.6881 H         1 UNK         0.0851 
     82 H82        20.9600  -25.1608  -47.0868 H         1 UNK         0.0851 
     83 H83        22.1880  -24.1007  -46.4110 H         1 UNK         0.0851 
     84 H84        18.8479  -25.2526  -45.7935 H         1 UNK         0.2976 
     85 H85        20.5092  -27.1958  -42.3320 H         1 UNK         0.3116 
     86 H86        21.3851  -28.6604  -40.0265 H         1 UNK         0.0646 
     87 H87        19.2975  -27.3227  -40.0150 H         1 UNK         0.0847 
     88 H88        20.2126  -25.8371  -40.2641 H         1 UNK         0.0847 
     89 H89        20.3885  -26.7470  -38.7693 H         1 UNK         0.0847 
     90 H90        22.7225  -25.8520  -41.7811 H         1 UNK         0.3040 
     91 H91        24.7222  -25.2227  -39.7664 H         1 UNK         0.1015 
     92 H92        25.6089  -23.6988  -41.4887 H         1 UNK         0.0786 
     93 H93        23.8647  -23.5161  -41.3961 H         1 UNK         0.0786 
     94 H94        24.5926  -24.4203  -42.7243 H         1 UNK         0.0786 
     95 H95        24.4847  -27.4095  -42.4878 H         1 UNK         0.3172 
     96 H96        27.3044  -28.2129  -42.4783 H         1 UNK         0.0595 
     97 H97        24.8744  -29.5031  -43.8365 H         1 UNK         0.0839 
     98 H98        26.5620  -29.8512  -44.1626 H         1 UNK         0.0839 
     99 H99        25.9069  -28.2757  -44.5732 H         1 UNK         0.0839 
    100 H100       24.7044  -28.7670  -40.4213 H         1 UNK         0.2998 
    101 H101       24.1946  -30.0870  -38.7593 H         1 UNK         0.0822 
    102 H102       26.5884  -29.7832  -38.0696 H         1 UNK         0.0787 
    103 H103       25.9269  -31.3167  -37.5310 H         1 UNK         0.0787 
    104 H104       27.0128  -31.2745  -38.9103 H         1 UNK         0.0787 
    105 H105       23.7210  -31.0086  -41.5577 H         1 UNK         0.3055 
    106 H106       23.6629  -33.9605  -41.3219 H         1 UNK         0.1106 
    107 H107       22.7561  -32.0585  -43.5361 H         1 UNK         0.0828 
    108 H108       22.6813  -33.8128  -43.6257 H         1 UNK         0.0828 
    109 H109       24.2381  -33.0052  -43.5115 H         1 UNK         0.0828 
    110 H110       21.4910  -31.1712  -41.1440 H         1 UNK         0.2931 
    111 H111       19.3804  -32.8791  -39.9323 H         1 UNK         0.0412 
    112 H112       20.7958  -30.1811  -37.6338 H         1 UNK         0.3472 
    113 H113       21.6474  -31.2650  -38.7054 H         1 UNK         0.3472 
    114 H114       17.6814  -31.2001  -40.9417 H         1 UNK         0.0970 
    115 H115       18.9451  -30.7131  -42.0470 H         1 UNK         0.0970 
    116 H116       16.1115  -33.1757  -43.7227 H         1 UNK         0.0612 
    117 H117       16.0365  -31.7995  -42.6505 H         1 UNK         0.0612 
@<TRIPOS>BOND
     1    1    2 1    
     2    1   62 1    
     3    1   63 1    
     4    1   64 1    
     5    2    3 2    
     6    2    4 am   BACKBONE|DICT|INTERRES
     7    4    5 1    
     8    4   65 1    
     9    5    6 1    
    10    5   25 1    
    11    5   66 1    
    12    6    7 1    
    13    6   67 1    
    14    6   68 1    
    15    7    8 1    
    16    8    9 1    
    17    8   69 1    
    18    8   70 1    
    19    9   10 ar   
    20    9   14 ar   
    21   10   11 ar   
    22   10   71 1    
    23   11   12 ar   
    24   11   61 1    
    25   12   13 ar   
    26   12   72 1    
    27   13   14 ar   
    28   13   15 1    
    29   14   73 1    
    30   15   16 1    
    31   15   74 1    
    32   15   75 1    
    33   16   17 1    
    34   17   18 1    
    35   17   76 1    
    36   17   77 1    
    37   18   19 1    
    38   18   27 1    
    39   18   78 1    
    40   19   20 am   BACKBONE|DICT|INTERRES
    41   19   79 1    
    42   20   21 2    
    43   20   22 1    
    44   22   23 1    
    45   22   24 1    
    46   22   80 1    
    47   23   81 1    
    48   23   82 1    
    49   23   83 1    
    50   24   25 am   BACKBONE|DICT|INTERRES
    51   24   84 1    
    52   25   26 2    
    53   27   28 2    
    54   27   29 am   BACKBONE|DICT|INTERRES
    55   29   30 1    
    56   29   85 1    
    57   30   31 1    
    58   30   32 1    
    59   30   86 1    
    60   31   87 1    
    61   31   88 1    
    62   31   89 1    
    63   32   33 2    
    64   32   34 am   BACKBONE|DICT|INTERRES
    65   34   35 1    
    66   34   90 1    
    67   35   36 1    
    68   35   37 1    
    69   35   91 1    
    70   36   92 1    
    71   36   93 1    
    72   36   94 1    
    73   37   38 2    
    74   37   39 am   BACKBONE|DICT|INTERRES
    75   39   40 1    
    76   39   95 1    
    77   40   41 1    
    78   40   42 1    
    79   40   96 1    
    80   41   97 1    
    81   41   98 1    
    82   41   99 1    
    83   42   43 2    
    84   42   44 am   BACKBONE|DICT|INTERRES
    85   44   45 1    
    86   44  100 1    
    87   45   46 1    
    88   45   47 1    
    89   45  101 1    
    90   46  102 1    
    91   46  103 1    
    92   46  104 1    
    93   47   48 2    
    94   47   49 am   BACKBONE|DICT|INTERRES
    95   49   50 1    
    96   49  105 1    
    97   50   51 1    
    98   50   52 1    
    99   50  106 1    
   100   51  107 1    
   101   51  108 1    
   102   51  109 1    
   103   52   53 2    
   104   52   54 am   BACKBONE|DICT|INTERRES
   105   54   55 1    
   106   54  110 1    
   107   55   56 1    
   108   55   59 1    
   109   55  111 1    
   110   56   57 am   BACKBONE|DICT|INTERRES
   111   56   58 2    
   112   57  112 1    
   113   57  113 1    
   114   59   60 1    
   115   59  114 1    
   116   59  115 1    
   117   60   61 1    
   118   61  116 1    
   119   61  117 1    
@<TRIPOS>SUBSTRUCTURE
     1 UNK         1 GROUP             0       ****    0 ROOT    
