@<TRIPOS>MOLECULE
3R8
117   119    1
SMALL
USER_CHARGES


@<TRIPOS>ATOM
      1 CA         19.5418  -24.8479  -49.6335 C.3       0 UNK        -0.2013 
      2 C          19.9434  -25.3403  -48.2510 C.2       0 UNK         0.4866 
      3 O          20.9408  -24.8723  -47.7009 O.2       0 UNK        -0.5176 
      4 N          19.1799  -26.2863  -47.6913 N.am      1 UNK        -0.4884 
      5 CA         19.3891  -26.8491  -46.3535 C.3       1 UNK         0.0853 
      6 C6         18.4956  -28.0899  -46.1047 C.3       10 UNK        -0.0849 
      7 S7         18.8047  -29.4808  -47.2372 S.3       10 UNK        -0.2776 
      8 C8         17.3982  -30.5709  -46.8254 C.3       10 UNK         0.0316 
      9 C9         17.3021  -30.8521  -45.3298 C.ar      10 UNK        -0.0863 
     10 C10        18.2696  -31.6401  -44.7006 C.ar      10 UNK        -0.1009 
     11 C11        18.2171  -31.8604  -43.3211 C.ar      10 UNK        -0.0712 
     12 C12        17.1691  -31.3157  -42.5749 C.ar      10 UNK        -0.0894 
     13 C13        16.1897  -30.5353  -43.1927 C.ar      10 UNK        -0.0745 
     14 C14        16.2618  -30.3044  -44.5705 C.ar      10 UNK        -0.0972 
     15 C15        15.0508  -29.9476  -42.3735 C.3       10 UNK         0.0209 
     16 S16        15.4498  -28.2816  -41.7596 S.3       10 UNK        -0.2568 
     17 C17        16.4778  -28.6245  -40.2841 C.3       10 UNK        -0.0983 
     18 CA         17.9985  -28.3843  -40.4985 C.3       3 UNK         0.0876 
     19 N          18.2446  -27.0897  -41.1511 N.am      3 UNK        -0.4424 
     20 C          19.3169  -26.8142  -41.8960 C.2       2 UNK         0.4918 
     21 O          20.3223  -27.5209  -41.9233 O.2       2 UNK        -0.4875 
     22 CA         19.2413  -25.5739  -42.7925 C.3       2 UNK         0.0481 
     23 CB         20.0754  -24.4020  -42.2546 C.3       2 UNK        -0.1831 
     24 N          19.7341  -25.9998  -44.0969 N.am      2 UNK        -0.4498 
     25 C          19.0770  -25.8239  -45.2458 C.2       1 UNK         0.5027 
     26 O          18.1796  -24.9917  -45.4074 O.2       1 UNK        -0.4969 
     27 C          18.7822  -28.5871  -39.1763 C.2       3 UNK         0.5005 
     28 O          18.5345  -29.5714  -38.4775 O.2       3 UNK        -0.5279 
     29 N          19.6667  -27.6430  -38.8223 N.am      4 UNK        -0.4463 
     30 CA         20.3562  -27.5525  -37.5321 C.3       4 UNK         0.0283 
     31 CB         21.0876  -26.2024  -37.4484 C.3       4 UNK        -0.1875 
     32 C          21.3322  -28.7022  -37.2243 C.2       4 UNK         0.4949 
     33 O          21.4280  -29.1065  -36.0649 O.2       4 UNK        -0.5039 
     34 N          22.0517  -29.1908  -38.2403 N.am      5 UNK        -0.4663 
     35 CA         23.0868  -30.2199  -38.1272 C.3       5 UNK         0.0242 
     36 CB         24.3486  -29.6360  -37.4584 C.3       5 UNK        -0.1982 
     37 C          23.4261  -30.7357  -39.5274 C.2       5 UNK         0.5017 
     38 O          23.1496  -30.0406  -40.5052 O.2       5 UNK        -0.5012 
     39 N          24.0716  -31.9080  -39.6065 N.am      6 UNK        -0.4439 
     40 CA         24.4660  -32.5764  -40.8561 C.3       6 UNK         0.0297 
     41 CB         25.1649  -33.9053  -40.5287 C.3       6 UNK        -0.2006 
     42 C          25.3461  -31.7258  -41.7934 C.2       6 UNK         0.4892 
     43 O          25.2102  -31.8302  -43.0129 O.2       6 UNK        -0.5089 
     44 N          26.1976  -30.8704  -41.2108 N.am      7 UNK        -0.4243 
     45 CA         27.0237  -29.8981  -41.9321 C.3       7 UNK         0.0196 
     46 CB         28.0747  -29.3210  -40.9700 C.3       7 UNK        -0.2007 
     47 C          26.2098  -28.7621  -42.5818 C.2       7 UNK         0.5020 
     48 O          26.6709  -28.1821  -43.5648 O.2       7 UNK        -0.5147 
     49 N          25.0284  -28.4614  -42.0272 N.am      8 UNK        -0.4734 
     50 CA         24.0864  -27.4705  -42.5476 C.3       8 UNK         0.0238 
     51 CB         23.4015  -26.7727  -41.3632 C.3       8 UNK        -0.1912 
     52 C          23.0615  -28.1068  -43.5060 C.2       8 UNK         0.5038 
     53 O          22.5847  -27.4204  -44.4123 O.2       8 UNK        -0.5046 
     54 N          22.7624  -29.4006  -43.3159 N.am      9 UNK        -0.4200 
     55 CA         22.0309  -30.2475  -44.2703 C.3       9 UNK         0.0839 
     56 C          22.8035  -30.4040  -45.6092 C.2       9 UNK         0.5513 
     57 N          24.0870  -30.7446  -45.5668 N.am      9 UNK        -0.7519 
     58 O          22.2416  -30.2216  -46.6842 O.2       9 UNK        -0.4960 
     59 C59        21.7102  -31.6509  -43.6910 C.3       10 UNK        -0.0876 
     60 S60        20.7092  -31.6235  -42.1650 S.3       10 UNK        -0.2414 
     61 C61        19.2955  -32.6721  -42.6248 C.3       10 UNK         0.0169 
     62 H62        19.3351  -23.7783  -49.6050 H         1 UNK         0.0903 
     63 H63        20.3508  -25.0201  -50.3429 H         1 UNK         0.0903 
     64 H64        18.6517  -25.3553  -50.0052 H         1 UNK         0.0903 
     65 H65        18.3704  -26.6328  -48.1859 H         1 UNK         0.3096 
     66 H66        20.4386  -27.1441  -46.2702 H         1 UNK         0.1121 
     67 H67        17.4389  -27.8206  -46.1697 H         1 UNK         0.0849 
     68 H68        18.6520  -28.4654  -45.0904 H         1 UNK         0.0849 
     69 H69        16.4769  -30.1161  -47.1927 H         1 UNK         0.0865 
     70 H70        17.5083  -31.5128  -47.3646 H         1 UNK         0.0865 
     71 H71        19.0761  -32.0572  -45.2865 H         1 UNK         0.1346 
     72 H72        17.1237  -31.4889  -41.5084 H         1 UNK         0.1412 
     73 H73        15.5108  -29.6898  -45.0482 H         1 UNK         0.1426 
     74 H74        14.7942  -30.6038  -41.5405 H         1 UNK         0.0716 
     75 H75        14.1535  -29.8835  -42.9909 H         1 UNK         0.0716 
     76 H76        16.2954  -29.6479  -39.9520 H         1 UNK         0.0695 
     77 H77        16.1082  -27.9828  -39.4819 H         1 UNK         0.0695 
     78 H78        18.3604  -29.1622  -41.1748 H         1 UNK         0.0983 
     79 H79        17.4551  -26.4602  -41.1757 H         1 UNK         0.3095 
     80 H80        18.1969  -25.2604  -42.8575 H         1 UNK         0.0454 
     81 H81        21.1420  -24.6114  -42.2830 H         1 UNK         0.0851 
     82 H82        19.8089  -24.1674  -41.2234 H         1 UNK         0.0851 
     83 H83        19.9049  -23.5024  -42.8461 H         1 UNK         0.0851 
     84 H84        20.4702  -26.6987  -44.0502 H         1 UNK         0.2976 
     85 H85        19.8246  -26.8913  -39.4771 H         1 UNK         0.3116 
     86 H86        19.5884  -27.5666  -36.7555 H         1 UNK         0.0646 
     87 H87        20.3946  -25.3664  -37.5445 H         1 UNK         0.0847 
     88 H88        21.5931  -26.0912  -36.4879 H         1 UNK         0.0847 
     89 H89        21.8452  -26.1041  -38.2271 H         1 UNK         0.0847 
     90 H90        21.8880  -28.8622  -39.1848 H         1 UNK         0.3040 
     91 H91        22.6977  -31.0509  -37.5348 H         1 UNK         0.1015 
     92 H92        24.7443  -28.7888  -38.0205 H         1 UNK         0.0786 
     93 H93        25.1420  -30.3811  -37.3878 H         1 UNK         0.0786 
     94 H94        24.1450  -29.2949  -36.4435 H         1 UNK         0.0786 
     95 H95        24.2777  -32.4026  -38.7499 H         1 UNK         0.3172 
     96 H96        23.5462  -32.8071  -41.3951 H         1 UNK         0.0595 
     97 H97        26.0749  -33.7524  -39.9472 H         1 UNK         0.0839 
     98 H98        25.4468  -34.4326  -41.4414 H         1 UNK         0.0839 
     99 H99        24.5114  -34.5705  -39.9639 H         1 UNK         0.0839 
    100 H100       26.2453  -30.8544  -40.2026 H         1 UNK         0.2998 
    101 H101       27.5447  -30.4261  -42.7339 H         1 UNK         0.0822 
    102 H102       28.7261  -28.6124  -41.4837 H         1 UNK         0.0787 
    103 H103       27.6116  -28.7920  -40.1359 H         1 UNK         0.0787 
    104 H104       28.7117  -30.1051  -40.5603 H         1 UNK         0.0787 
    105 H105       24.6877  -29.0296  -41.2595 H         1 UNK         0.3055 
    106 H106       24.6322  -26.7116  -43.1129 H         1 UNK         0.1106 
    107 H107       24.1303  -26.3303  -40.6842 H         1 UNK         0.0828 
    108 H108       22.7598  -25.9690  -41.7145 H         1 UNK         0.0828 
    109 H109       22.7787  -27.4575  -40.7886 H         1 UNK         0.0828 
    110 H110       23.0955  -29.8540  -42.4733 H         1 UNK         0.2931 
    111 H111       21.0834  -29.7498  -44.4881 H         1 UNK         0.0412 
    112 H112       24.6004  -30.8474  -46.4274 H         1 UNK         0.3472 
    113 H113       24.5338  -30.9593  -44.6810 H         1 UNK         0.3472 
    114 H114       21.2012  -32.2534  -44.4436 H         1 UNK         0.0970 
    115 H115       22.6312  -32.1909  -43.4729 H         1 UNK         0.0970 
    116 H116       18.8920  -33.1239  -41.7173 H         1 UNK         0.0612 
    117 H117       19.6220  -33.5018  -43.2534 H         1 UNK         0.0612 
@<TRIPOS>BOND
     1    1    2 1    
     2    1   62 1    
     3    1   63 1    
     4    1   64 1    
     5    2    3 2    
     6    2    4 am   BACKBONE|DICT|INTERRES
     7    4    5 1    
     8    4   65 1    
     9    5    6 1    
    10    5   25 1    
    11    5   66 1    
    12    6    7 1    
    13    6   67 1    
    14    6   68 1    
    15    7    8 1    
    16    8    9 1    
    17    8   69 1    
    18    8   70 1    
    19    9   10 ar   
    20    9   14 ar   
    21   10   11 ar   
    22   10   71 1    
    23   11   12 ar   
    24   11   61 1    
    25   12   13 ar   
    26   12   72 1    
    27   13   14 ar   
    28   13   15 1    
    29   14   73 1    
    30   15   16 1    
    31   15   74 1    
    32   15   75 1    
    33   16   17 1    
    34   17   18 1    
    35   17   76 1    
    36   17   77 1    
    37   18   19 1    
    38   18   27 1    
    39   18   78 1    
    40   19   20 am   BACKBONE|DICT|INTERRES
    41   19   79 1    
    42   20   21 2    
    43   20   22 1    
    44   22   23 1    
    45   22   24 1    
    46   22   80 1    
    47   23   81 1    
    48   23   82 1    
    49   23   83 1    
    50   24   25 am   BACKBONE|DICT|INTERRES
    51   24   84 1    
    52   25   26 2    
    53   27   28 2    
    54   27   29 am   BACKBONE|DICT|INTERRES
    55   29   30 1    
    56   29   85 1    
    57   30   31 1    
    58   30   32 1    
    59   30   86 1    
    60   31   87 1    
    61   31   88 1    
    62   31   89 1    
    63   32   33 2    
    64   32   34 am   BACKBONE|DICT|INTERRES
    65   34   35 1    
    66   34   90 1    
    67   35   36 1    
    68   35   37 1    
    69   35   91 1    
    70   36   92 1    
    71   36   93 1    
    72   36   94 1    
    73   37   38 2    
    74   37   39 am   BACKBONE|DICT|INTERRES
    75   39   40 1    
    76   39   95 1    
    77   40   41 1    
    78   40   42 1    
    79   40   96 1    
    80   41   97 1    
    81   41   98 1    
    82   41   99 1    
    83   42   43 2    
    84   42   44 am   BACKBONE|DICT|INTERRES
    85   44   45 1    
    86   44  100 1    
    87   45   46 1    
    88   45   47 1    
    89   45  101 1    
    90   46  102 1    
    91   46  103 1    
    92   46  104 1    
    93   47   48 2    
    94   47   49 am   BACKBONE|DICT|INTERRES
    95   49   50 1    
    96   49  105 1    
    97   50   51 1    
    98   50   52 1    
    99   50  106 1    
   100   51  107 1    
   101   51  108 1    
   102   51  109 1    
   103   52   53 2    
   104   52   54 am   BACKBONE|DICT|INTERRES
   105   54   55 1    
   106   54  110 1    
   107   55   56 1    
   108   55   59 1    
   109   55  111 1    
   110   56   57 am   BACKBONE|DICT|INTERRES
   111   56   58 2    
   112   57  112 1    
   113   57  113 1    
   114   59   60 1    
   115   59  114 1    
   116   59  115 1    
   117   60   61 1    
   118   61  116 1    
   119   61  117 1    
@<TRIPOS>SUBSTRUCTURE
     1 UNK         1 GROUP             0       ****    0 ROOT    
