@<TRIPOS>MOLECULE
3R8
117   119    1
SMALL
USER_CHARGES


@<TRIPOS>ATOM
      1 CA         14.7622  -31.6042  -42.4327 C.3       0 UNK        -0.2013 
      2 C          15.2368  -30.2051  -42.7946 C.2       0 UNK         0.4866 
      3 O          15.1091  -29.2870  -41.9849 O.2       0 UNK        -0.5176 
      4 N          15.7795  -30.0366  -44.0044 N.am      1 UNK        -0.4884 
      5 CA         16.3620  -28.7974  -44.5118 C.3       1 UNK         0.0853 
      6 C6         15.2803  -27.7447  -44.8693 C.3       10 UNK        -0.0849 
      7 S7         15.9415  -26.0892  -45.2581 S.3       10 UNK        -0.2776 
      8 C8         16.0974  -25.3349  -43.6054 C.3       10 UNK         0.0316 
      9 C9         17.4764  -25.5908  -43.0172 C.ar      10 UNK        -0.0863 
     10 C10        17.6640  -26.5421  -42.0109 C.ar      10 UNK        -0.1009 
     11 C11        18.9444  -26.8073  -41.5131 C.ar      10 UNK        -0.0712 
     12 C12        20.0350  -26.0799  -42.0009 C.ar      10 UNK        -0.0894 
     13 C13        19.8563  -25.1086  -42.9902 C.ar      10 UNK        -0.0745 
     14 C14        18.5740  -24.8692  -43.4912 C.ar      10 UNK        -0.0972 
     15 C15        21.0332  -24.2962  -43.5120 C.3       10 UNK         0.0209 
     16 S16        21.3173  -24.5955  -45.2857 S.3       10 UNK        -0.2568 
     17 C17        22.6734  -25.8140  -45.2694 C.3       10 UNK        -0.0983 
     18 CA         22.3037  -27.2191  -44.7131 C.3       3 UNK         0.0876 
     19 N          21.0585  -27.8009  -45.2472 N.am      3 UNK        -0.4424 
     20 C          20.7580  -28.0262  -46.5359 C.2       2 UNK         0.4918 
     21 O          21.4748  -27.6997  -47.4809 O.2       2 UNK        -0.4875 
     22 CA         19.4709  -28.8158  -46.8196 C.3       2 UNK         0.0481 
     23 CB         19.8432  -30.3133  -46.9381 C.3       2 UNK        -0.1831 
     24 N          18.4453  -28.5762  -45.7925 N.am      2 UNK        -0.4498 
     25 C          17.2529  -29.1836  -45.7029 C.2       1 UNK         0.5027 
     26 O          16.8417  -30.0342  -46.4965 O.2       1 UNK        -0.4969 
     27 C          23.5123  -28.1841  -44.7904 C.2       3 UNK         0.5005 
     28 O          24.6274  -27.7865  -44.4435 O.2       3 UNK        -0.5279 
     29 N          23.2889  -29.4379  -45.2142 N.am      4 UNK        -0.4463 
     30 CA         24.2777  -30.5159  -45.2140 C.3       4 UNK         0.0283 
     31 CB         23.7039  -31.7367  -45.9521 C.3       4 UNK        -0.1875 
     32 C          24.6536  -30.8690  -43.7685 C.2       4 UNK         0.4949 
     33 O          23.7621  -31.1894  -42.9846 O.2       4 UNK        -0.5039 
     34 N          25.9469  -30.7475  -43.4396 N.am      5 UNK        -0.4663 
     35 CA         26.5087  -30.8293  -42.0828 C.3       5 UNK         0.0242 
     36 CB         26.3590  -32.2515  -41.5000 C.3       5 UNK        -0.1982 
     37 C          25.9742  -29.7270  -41.1403 C.2       5 UNK         0.5017 
     38 O          25.8687  -29.9489  -39.9318 O.2       5 UNK        -0.5012 
     39 N          25.6620  -28.5522  -41.7130 N.am      6 UNK        -0.4439 
     40 CA         25.1435  -27.3511  -41.0550 C.3       6 UNK         0.0297 
     41 CB         26.2284  -26.7062  -40.1612 C.3       6 UNK        -0.2006 
     42 C          23.8120  -27.6384  -40.3391 C.2       6 UNK         0.4892 
     43 O          22.8228  -27.9265  -41.0129 O.2       6 UNK        -0.5089 
     44 N          23.8107  -27.5601  -39.0017 N.am      7 UNK        -0.4243 
     45 CA         22.6555  -27.8107  -38.1386 C.3       7 UNK         0.0196 
     46 CB         22.9913  -27.3585  -36.7085 C.3       7 UNK        -0.2007 
     47 C          22.1758  -29.2733  -38.1386 C.2       7 UNK         0.5020 
     48 O          21.0113  -29.5151  -37.8241 O.2       7 UNK        -0.5147 
     49 N          23.0473  -30.2240  -38.5041 N.am      8 UNK        -0.4734 
     50 CA         22.7373  -31.6562  -38.5842 C.3       8 UNK         0.0238 
     51 CB         24.0052  -32.4614  -38.2432 C.3       8 UNK        -0.1912 
     52 C          22.1233  -32.0498  -39.9451 C.2       8 UNK         0.5038 
     53 O          22.4675  -33.1006  -40.4896 O.2       8 UNK        -0.5046 
     54 N          21.2289  -31.1995  -40.4640 N.am      9 UNK        -0.4200 
     55 CA         20.4943  -31.3735  -41.7228 C.3       9 UNK         0.0839 
     56 C          19.5395  -32.6023  -41.7331 C.2       9 UNK         0.5513 
     57 N          19.2124  -33.1178  -42.9111 N.am      9 UNK        -0.7519 
     58 O          19.0697  -33.0728  -40.6985 O.2       9 UNK        -0.4960 
     59 C59        19.7755  -30.0593  -42.1329 C.3       10 UNK        -0.0876 
     60 S60        18.5244  -29.4993  -40.9232 S.3       10 UNK        -0.2414 
     61 C61        19.1457  -27.8596  -40.4302 C.3       10 UNK         0.0169 
     62 H62        14.8981  -32.3069  -43.2547 H         1 UNK         0.0903 
     63 H63        15.3202  -31.9757  -41.5734 H         1 UNK         0.0903 
     64 H64        13.7043  -31.5869  -42.1720 H         1 UNK         0.0903 
     65 H65        15.8624  -30.8147  -44.6484 H         1 UNK         0.3096 
     66 H66        17.0061  -28.4069  -43.7259 H         1 UNK         0.1121 
     67 H67        14.6899  -28.0862  -45.7217 H         1 UNK         0.0849 
     68 H68        14.5675  -27.6386  -44.0507 H         1 UNK         0.0849 
     69 H69        15.9408  -24.2588  -43.6947 H         1 UNK         0.0865 
     70 H70        15.3123  -25.6989  -42.9408 H         1 UNK         0.0865 
     71 H71        16.8176  -27.0991  -41.6305 H         1 UNK         0.1346 
     72 H72        21.0223  -26.2618  -41.6020 H         1 UNK         0.1412 
     73 H73        18.4327  -24.1257  -44.2643 H         1 UNK         0.1426 
     74 H74        21.9421  -24.5026  -42.9446 H         1 UNK         0.0716 
     75 H75        20.8177  -23.2366  -43.3677 H         1 UNK         0.0716 
     76 H76        23.4964  -25.3841  -44.6952 H         1 UNK         0.0695 
     77 H77        23.0433  -25.8987  -46.2925 H         1 UNK         0.0695 
     78 H78        22.1274  -27.1008  -43.6441 H         1 UNK         0.0983 
     79 H79        20.4159  -28.1303  -44.5441 H         1 UNK         0.3095 
     80 H80        19.0758  -28.4698  -47.7765 H         1 UNK         0.0454 
     81 H81        20.0680  -30.7546  -45.9670 H         1 UNK         0.0851 
     82 H82        20.7200  -30.4555  -47.5723 H         1 UNK         0.0851 
     83 H83        19.0452  -30.8976  -47.3943 H         1 UNK         0.0851 
     84 H84        18.6279  -27.8025  -45.1673 H         1 UNK         0.2976 
     85 H85        22.3458  -29.6926  -45.4593 H         1 UNK         0.3116 
     86 H86        25.1638  -30.1703  -45.7507 H         1 UNK         0.0646 
     87 H87        23.4499  -31.4952  -46.9843 H         1 UNK         0.0847 
     88 H88        24.4306  -32.5497  -45.9796 H         1 UNK         0.0847 
     89 H89        22.8064  -32.1208  -45.4652 H         1 UNK         0.0847 
     90 H90        26.5973  -30.4713  -44.1635 H         1 UNK         0.3040 
     91 H91        27.5773  -30.6324  -42.1828 H         1 UNK         0.1015 
     92 H92        25.3151  -32.5094  -41.3189 H         1 UNK         0.0786 
     93 H93        26.8857  -32.3432  -40.5494 H         1 UNK         0.0786 
     94 H94        26.7760  -33.0008  -42.1726 H         1 UNK         0.0786 
     95 H95        25.6845  -28.4988  -42.7260 H         1 UNK         0.3172 
     96 H96        24.9108  -26.6413  -41.8503 H         1 UNK         0.0595 
     97 H97        26.5605  -27.3685  -39.3610 H         1 UNK         0.0839 
     98 H98        25.8669  -25.7838  -39.7043 H         1 UNK         0.0839 
     99 H99        27.1075  -26.4425  -40.7494 H         1 UNK         0.0839 
    100 H100       24.6814  -27.3410  -38.5398 H         1 UNK         0.2998 
    101 H101       21.8293  -27.1975  -38.5041 H         1 UNK         0.0822 
    102 H102       22.1381  -27.5015  -36.0435 H         1 UNK         0.0787 
    103 H103       23.8267  -27.9231  -36.2922 H         1 UNK         0.0787 
    104 H104       23.2499  -26.2999  -36.6761 H         1 UNK         0.0787 
    105 H105       23.9708  -29.9462  -38.8193 H         1 UNK         0.3055 
    106 H106       21.9870  -31.9014  -37.8289 H         1 UNK         0.1106 
    107 H107       23.8021  -33.5330  -38.2344 H         1 UNK         0.0828 
    108 H108       24.8004  -32.2848  -38.9663 H         1 UNK         0.0828 
    109 H109       24.3873  -32.1992  -37.2566 H         1 UNK         0.0828 
    110 H110       20.9700  -30.3929  -39.9131 H         1 UNK         0.2931 
    111 H111       21.2486  -31.5728  -42.4846 H         1 UNK         0.0412 
    112 H112       18.5882  -33.9089  -42.9398 H         1 UNK         0.3472 
    113 H113       19.5965  -32.7538  -43.7681 H         1 UNK         0.3472 
    114 H114       20.5194  -29.2733  -42.2732 H         1 UNK         0.0970 
    115 H115       19.2854  -30.1783  -43.1004 H         1 UNK         0.0970 
    116 H116       20.1972  -27.9469  -40.1572 H         1 UNK         0.0612 
    117 H117       18.6180  -27.5423  -39.5301 H         1 UNK         0.0612 
@<TRIPOS>BOND
     1    1    2 1    
     2    1   62 1    
     3    1   63 1    
     4    1   64 1    
     5    2    3 2    
     6    2    4 am   BACKBONE|DICT|INTERRES
     7    4    5 1    
     8    4   65 1    
     9    5    6 1    
    10    5   25 1    
    11    5   66 1    
    12    6    7 1    
    13    6   67 1    
    14    6   68 1    
    15    7    8 1    
    16    8    9 1    
    17    8   69 1    
    18    8   70 1    
    19    9   10 ar   
    20    9   14 ar   
    21   10   11 ar   
    22   10   71 1    
    23   11   12 ar   
    24   11   61 1    
    25   12   13 ar   
    26   12   72 1    
    27   13   14 ar   
    28   13   15 1    
    29   14   73 1    
    30   15   16 1    
    31   15   74 1    
    32   15   75 1    
    33   16   17 1    
    34   17   18 1    
    35   17   76 1    
    36   17   77 1    
    37   18   19 1    
    38   18   27 1    
    39   18   78 1    
    40   19   20 am   BACKBONE|DICT|INTERRES
    41   19   79 1    
    42   20   21 2    
    43   20   22 1    
    44   22   23 1    
    45   22   24 1    
    46   22   80 1    
    47   23   81 1    
    48   23   82 1    
    49   23   83 1    
    50   24   25 am   BACKBONE|DICT|INTERRES
    51   24   84 1    
    52   25   26 2    
    53   27   28 2    
    54   27   29 am   BACKBONE|DICT|INTERRES
    55   29   30 1    
    56   29   85 1    
    57   30   31 1    
    58   30   32 1    
    59   30   86 1    
    60   31   87 1    
    61   31   88 1    
    62   31   89 1    
    63   32   33 2    
    64   32   34 am   BACKBONE|DICT|INTERRES
    65   34   35 1    
    66   34   90 1    
    67   35   36 1    
    68   35   37 1    
    69   35   91 1    
    70   36   92 1    
    71   36   93 1    
    72   36   94 1    
    73   37   38 2    
    74   37   39 am   BACKBONE|DICT|INTERRES
    75   39   40 1    
    76   39   95 1    
    77   40   41 1    
    78   40   42 1    
    79   40   96 1    
    80   41   97 1    
    81   41   98 1    
    82   41   99 1    
    83   42   43 2    
    84   42   44 am   BACKBONE|DICT|INTERRES
    85   44   45 1    
    86   44  100 1    
    87   45   46 1    
    88   45   47 1    
    89   45  101 1    
    90   46  102 1    
    91   46  103 1    
    92   46  104 1    
    93   47   48 2    
    94   47   49 am   BACKBONE|DICT|INTERRES
    95   49   50 1    
    96   49  105 1    
    97   50   51 1    
    98   50   52 1    
    99   50  106 1    
   100   51  107 1    
   101   51  108 1    
   102   51  109 1    
   103   52   53 2    
   104   52   54 am   BACKBONE|DICT|INTERRES
   105   54   55 1    
   106   54  110 1    
   107   55   56 1    
   108   55   59 1    
   109   55  111 1    
   110   56   57 am   BACKBONE|DICT|INTERRES
   111   56   58 2    
   112   57  112 1    
   113   57  113 1    
   114   59   60 1    
   115   59  114 1    
   116   59  115 1    
   117   60   61 1    
   118   61  116 1    
   119   61  117 1    
@<TRIPOS>SUBSTRUCTURE
     1 UNK         1 GROUP             0       ****    0 ROOT    
