@<TRIPOS>MOLECULE
3R8
117   119    1
SMALL
USER_CHARGES


@<TRIPOS>ATOM
      1 CA         18.9838  -25.4880  -49.4144 C.3       0 UNK        -0.2013 
      2 C          19.7095  -26.5252  -48.5707 C.2       0 UNK         0.4866 
      3 O          20.8241  -26.9210  -48.9118 O.2       0 UNK        -0.5176 
      4 N          19.0854  -26.9701  -47.4722 N.am      1 UNK        -0.4884 
      5 CA         19.6260  -27.9824  -46.5546 C.3       1 UNK         0.0853 
      6 C6         18.5592  -28.4818  -45.5533 C.3       10 UNK        -0.0849 
      7 S7         17.0464  -29.1715  -46.3060 S.3       10 UNK        -0.2776 
      8 C8         16.6866  -30.6210  -45.2468 C.3       10 UNK         0.0316 
      9 C9         17.0182  -30.3918  -43.7746 C.ar      10 UNK        -0.0863 
     10 C10        18.0517  -31.1176  -43.1757 C.ar      10 UNK        -0.1009 
     11 C11        18.4140  -30.8811  -41.8475 C.ar      10 UNK        -0.0712 
     12 C12        17.7214  -29.9166  -41.1095 C.ar      10 UNK        -0.0894 
     13 C13        16.6895  -29.1746  -41.6969 C.ar      10 UNK        -0.0745 
     14 C14        16.3359  -29.4263  -43.0275 C.ar      10 UNK        -0.0972 
     15 C15        15.9357  -28.1154  -40.8983 C.3       10 UNK         0.0209 
     16 S16        17.0243  -26.9552  -40.0014 S.3       10 UNK        -0.2568 
     17 C17        17.8260  -26.0105  -41.3451 C.3       10 UNK        -0.0983 
     18 CA         19.3705  -26.1575  -41.3436 C.3       3 UNK         0.0876 
     19 N          19.9364  -25.8191  -42.6550 N.am      3 UNK        -0.4424 
     20 C          21.2079  -26.0334  -43.0238 C.2       2 UNK         0.4918 
     21 O          22.0228  -26.6581  -42.3431 O.2       2 UNK        -0.4875 
     22 CA         21.6030  -25.4840  -44.4074 C.3       2 UNK         0.0481 
     23 CB         23.1202  -25.5388  -44.6741 C.3       2 UNK        -0.1831 
     24 N          20.8403  -26.1611  -45.4597 N.am      2 UNK        -0.4498 
     25 C          20.8223  -27.4784  -45.7220 C.2       1 UNK         0.5027 
     26 O          21.6271  -28.2947  -45.2676 O.2       1 UNK        -0.4969 
     27 C          20.0481  -25.3309  -40.2211 C.2       3 UNK         0.5005 
     28 O          20.6697  -24.3013  -40.4988 O.2       3 UNK        -0.5279 
     29 N          19.9681  -25.8273  -38.9790 N.am      4 UNK        -0.4463 
     30 CA         20.6699  -25.3779  -37.7642 C.3       4 UNK         0.0283 
     31 CB         20.4335  -23.8874  -37.4491 C.3       4 UNK        -0.1875 
     32 C          22.1683  -25.7324  -37.7731 C.2       4 UNK         0.4949 
     33 O          22.6634  -26.2541  -36.7742 O.2       4 UNK        -0.5039 
     34 N          22.8483  -25.5151  -38.9084 N.am      5 UNK        -0.4663 
     35 CA         24.1585  -26.1046  -39.2110 C.3       5 UNK         0.0242 
     36 CB         24.7806  -25.3954  -40.4248 C.3       5 UNK        -0.1982 
     37 C          24.0489  -27.6229  -39.4529 C.2       5 UNK         0.5017 
     38 O          24.9474  -28.3668  -39.0600 O.2       5 UNK        -0.5012 
     39 N          22.9233  -28.0369  -40.0556 N.am      6 UNK        -0.4439 
     40 CA         22.4632  -29.4060  -40.2979 C.3       6 UNK         0.0297 
     41 CB         22.2548  -30.1550  -38.9631 C.3       6 UNK        -0.2006 
     42 C          23.3457  -30.1764  -41.2955 C.2       6 UNK         0.4892 
     43 O          23.5358  -31.3820  -41.1312 O.2       6 UNK        -0.5089 
     44 N          23.8554  -29.4757  -42.3207 N.am      7 UNK        -0.4243 
     45 CA         24.8000  -30.0122  -43.3088 C.3       7 UNK         0.0196 
     46 CB         25.2620  -28.8952  -44.2565 C.3       7 UNK        -0.2007 
     47 C          24.2447  -31.2017  -44.1087 C.2       7 UNK         0.5020 
     48 O          24.9387  -32.2075  -44.2601 O.2       7 UNK        -0.5147 
     49 N          22.9890  -31.0903  -44.5645 N.am      8 UNK        -0.4734 
     50 CA         22.2792  -32.1466  -45.2972 C.3       8 UNK         0.0238 
     51 CB         20.9965  -31.5636  -45.9078 C.3       8 UNK        -0.1912 
     52 C          21.9617  -33.4041  -44.4637 C.2       8 UNK         0.5038 
     53 O          21.6797  -34.4481  -45.0533 O.2       8 UNK        -0.5046 
     54 N          22.0177  -33.2923  -43.1306 N.am      9 UNK        -0.4200 
     55 CA         21.8632  -34.4081  -42.1849 C.3       9 UNK         0.0839 
     56 C          23.2127  -35.1012  -41.8335 C.2       9 UNK         0.5513 
     57 N          24.3545  -34.6626  -42.3536 N.am      9 UNK        -0.7519 
     58 O          23.2227  -36.0755  -41.0855 O.2       9 UNK        -0.4960 
     59 C59        21.0877  -33.9792  -40.9096 C.3       10 UNK        -0.0876 
     60 S60        19.3851  -33.4293  -41.2775 S.3       10 UNK        -0.2414 
     61 C61        19.5934  -31.6227  -41.2360 C.3       10 UNK         0.0169 
     62 H62        19.5753  -24.5749  -49.4775 H         1 UNK         0.0903 
     63 H63        18.8324  -25.8663  -50.4250 H         1 UNK         0.0903 
     64 H64        18.0090  -25.2328  -48.9990 H         1 UNK         0.0903 
     65 H65        18.1529  -26.6429  -47.2598 H         1 UNK         0.3096 
     66 H66        19.9723  -28.8278  -47.1522 H         1 UNK         0.1121 
     67 H67        19.0152  -29.2390  -44.9169 H         1 UNK         0.0849 
     68 H68        18.2482  -27.6789  -44.8810 H         1 UNK         0.0849 
     69 H69        15.6309  -30.8782  -45.3426 H         1 UNK         0.0865 
     70 H70        17.2421  -31.4763  -45.6348 H         1 UNK         0.0865 
     71 H71        18.5931  -31.8588  -43.7471 H         1 UNK         0.1346 
     72 H72        17.9964  -29.7275  -40.0810 H         1 UNK         0.1412 
     73 H73        15.5429  -28.8576  -43.4942 H         1 UNK         0.1426 
     74 H74        15.2972  -28.6218  -40.1733 H         1 UNK         0.0716 
     75 H75        15.2695  -27.5404  -41.5435 H         1 UNK         0.0716 
     76 H76        17.4214  -26.3666  -42.2942 H         1 UNK         0.0695 
     77 H77        17.5295  -24.9625  -41.2704 H         1 UNK         0.0695 
     78 H78        19.6129  -27.2090  -41.1716 H         1 UNK         0.0983 
     79 H79        19.3443  -25.2781  -43.2665 H         1 UNK         0.3095 
     80 H80        21.3055  -24.4346  -44.4296 H         1 UNK         0.0454 
     81 H81        23.6640  -24.9485  -43.9359 H         1 UNK         0.0851 
     82 H82        23.5060  -26.5538  -44.6190 H         1 UNK         0.0851 
     83 H83        23.3658  -25.1392  -45.6576 H         1 UNK         0.0851 
     84 H84        20.1331  -25.6015  -45.9154 H         1 UNK         0.2976 
     85 H85        19.4072  -26.6604  -38.8544 H         1 UNK         0.3116 
     86 H86        20.2210  -25.9493  -36.9499 H         1 UNK         0.0646 
     87 H87        20.8305  -23.6354  -36.4651 H         1 UNK         0.0847 
     88 H88        19.3706  -23.6467  -37.4411 H         1 UNK         0.0847 
     89 H89        20.9224  -23.2288  -38.1670 H         1 UNK         0.0847 
     90 H90        22.3583  -25.0436  -39.6627 H         1 UNK         0.3040 
     91 H91        24.8140  -25.9524  -38.3504 H         1 UNK         0.1015 
     92 H92        24.9256  -24.3328  -40.2296 H         1 UNK         0.0786 
     93 H93        24.1602  -25.4892  -41.3160 H         1 UNK         0.0786 
     94 H94        25.7581  -25.8172  -40.6629 H         1 UNK         0.0786 
     95 H95        22.3515  -27.3162  -40.4817 H         1 UNK         0.3172 
     96 H96        21.4881  -29.3084  -40.7763 H         1 UNK         0.0595 
     97 H97        21.5844  -29.6067  -38.3014 H         1 UNK         0.0839 
     98 H98        23.1958  -30.3081  -38.4344 H         1 UNK         0.0839 
     99 H99        21.8183  -31.1402  -39.1212 H         1 UNK         0.0839 
    100 H100       23.6028  -28.4992  -42.4037 H         1 UNK         0.2998 
    101 H101       25.6716  -30.3669  -42.7544 H         1 UNK         0.0822 
    102 H102       26.0768  -29.2429  -44.8930 H         1 UNK         0.0787 
    103 H103       24.4571  -28.5720  -44.9165 H         1 UNK         0.0787 
    104 H104       25.6264  -28.0258  -43.7089 H         1 UNK         0.0787 
    105 H105       22.5046  -30.2078  -44.4426 H         1 UNK         0.3055 
    106 H106       22.9241  -32.4734  -46.1161 H         1 UNK         0.1106 
    107 H107       21.2302  -30.7851  -46.6330 H         1 UNK         0.0828 
    108 H108       20.4215  -32.3286  -46.4318 H         1 UNK         0.0828 
    109 H109       20.3517  -31.1335  -45.1435 H         1 UNK         0.0828 
    110 H110       22.3322  -32.4197  -42.7281 H         1 UNK         0.2931 
    111 H111       21.2648  -35.1846  -42.6652 H         1 UNK         0.0412 
    112 H112       25.2139  -35.1317  -42.1155 H         1 UNK         0.3472 
    113 H113       24.3754  -33.8577  -42.9668 H         1 UNK         0.3472 
    114 H114       21.6289  -33.1993  -40.3726 H         1 UNK         0.0970 
    115 H115       21.0071  -34.8171  -40.2147 H         1 UNK         0.0970 
    116 H116       19.7467  -31.3145  -40.2016 H         1 UNK         0.0612 
    117 H117       20.4924  -31.3480  -41.7873 H         1 UNK         0.0612 
@<TRIPOS>BOND
     1    1    2 1    
     2    1   62 1    
     3    1   63 1    
     4    1   64 1    
     5    2    3 2    
     6    2    4 am   BACKBONE|DICT|INTERRES
     7    4    5 1    
     8    4   65 1    
     9    5    6 1    
    10    5   25 1    
    11    5   66 1    
    12    6    7 1    
    13    6   67 1    
    14    6   68 1    
    15    7    8 1    
    16    8    9 1    
    17    8   69 1    
    18    8   70 1    
    19    9   10 ar   
    20    9   14 ar   
    21   10   11 ar   
    22   10   71 1    
    23   11   12 ar   
    24   11   61 1    
    25   12   13 ar   
    26   12   72 1    
    27   13   14 ar   
    28   13   15 1    
    29   14   73 1    
    30   15   16 1    
    31   15   74 1    
    32   15   75 1    
    33   16   17 1    
    34   17   18 1    
    35   17   76 1    
    36   17   77 1    
    37   18   19 1    
    38   18   27 1    
    39   18   78 1    
    40   19   20 am   BACKBONE|DICT|INTERRES
    41   19   79 1    
    42   20   21 2    
    43   20   22 1    
    44   22   23 1    
    45   22   24 1    
    46   22   80 1    
    47   23   81 1    
    48   23   82 1    
    49   23   83 1    
    50   24   25 am   BACKBONE|DICT|INTERRES
    51   24   84 1    
    52   25   26 2    
    53   27   28 2    
    54   27   29 am   BACKBONE|DICT|INTERRES
    55   29   30 1    
    56   29   85 1    
    57   30   31 1    
    58   30   32 1    
    59   30   86 1    
    60   31   87 1    
    61   31   88 1    
    62   31   89 1    
    63   32   33 2    
    64   32   34 am   BACKBONE|DICT|INTERRES
    65   34   35 1    
    66   34   90 1    
    67   35   36 1    
    68   35   37 1    
    69   35   91 1    
    70   36   92 1    
    71   36   93 1    
    72   36   94 1    
    73   37   38 2    
    74   37   39 am   BACKBONE|DICT|INTERRES
    75   39   40 1    
    76   39   95 1    
    77   40   41 1    
    78   40   42 1    
    79   40   96 1    
    80   41   97 1    
    81   41   98 1    
    82   41   99 1    
    83   42   43 2    
    84   42   44 am   BACKBONE|DICT|INTERRES
    85   44   45 1    
    86   44  100 1    
    87   45   46 1    
    88   45   47 1    
    89   45  101 1    
    90   46  102 1    
    91   46  103 1    
    92   46  104 1    
    93   47   48 2    
    94   47   49 am   BACKBONE|DICT|INTERRES
    95   49   50 1    
    96   49  105 1    
    97   50   51 1    
    98   50   52 1    
    99   50  106 1    
   100   51  107 1    
   101   51  108 1    
   102   51  109 1    
   103   52   53 2    
   104   52   54 am   BACKBONE|DICT|INTERRES
   105   54   55 1    
   106   54  110 1    
   107   55   56 1    
   108   55   59 1    
   109   55  111 1    
   110   56   57 am   BACKBONE|DICT|INTERRES
   111   56   58 2    
   112   57  112 1    
   113   57  113 1    
   114   59   60 1    
   115   59  114 1    
   116   59  115 1    
   117   60   61 1    
   118   61  116 1    
   119   61  117 1    
@<TRIPOS>SUBSTRUCTURE
     1 UNK         1 GROUP             0       ****    0 ROOT    
