@<TRIPOS>MOLECULE
3R8
117   119    1
SMALL
USER_CHARGES


@<TRIPOS>ATOM
      1 CA         13.5589  -23.3920  -44.0244 C.3       0 UNK        -0.2013 
      2 C          14.6485  -24.0701  -44.8416 C.2       0 UNK         0.4866 
      3 O          14.9709  -23.6069  -45.9364 O.2       0 UNK        -0.5176 
      4 N          15.2110  -25.1688  -44.3239 N.am      1 UNK        -0.4884 
      5 CA         16.3039  -25.9238  -44.9470 C.3       1 UNK         0.0853 
      6 C6         16.4965  -27.3105  -44.2854 C.3       10 UNK        -0.0849 
      7 S7         15.0198  -28.3698  -44.4488 S.3       10 UNK        -0.2776 
      8 C8         15.5391  -29.5452  -45.7430 C.3       10 UNK         0.0316 
      9 C9         16.6655  -30.4601  -45.2779 C.ar      10 UNK        -0.0863 
     10 C10        16.4587  -31.3420  -44.2133 C.ar      10 UNK        -0.1009 
     11 C11        17.4796  -32.1906  -43.7759 C.ar      10 UNK        -0.0712 
     12 C12        18.7196  -32.1546  -44.4268 C.ar      10 UNK        -0.0894 
     13 C13        18.9427  -31.2768  -45.4938 C.ar      10 UNK        -0.0745 
     14 C14        17.9076  -30.4380  -45.9195 C.ar      10 UNK        -0.0972 
     15 C15        20.3018  -31.2453  -46.1877 C.3       10 UNK         0.0209 
     16 S16        21.0699  -29.5883  -46.2106 S.3       10 UNK        -0.2568 
     17 C17        21.0934  -29.1649  -44.4364 C.3       10 UNK        -0.0983 
     18 CA         21.3919  -27.6697  -44.1501 C.3       3 UNK         0.0876 
     19 N          20.5668  -26.7713  -44.9579 N.am      3 UNK        -0.4424 
     20 C          20.8099  -25.4691  -45.1535 C.2       2 UNK         0.4918 
     21 O          21.7915  -24.8788  -44.7014 O.2       2 UNK        -0.4875 
     22 CA         19.7932  -24.6945  -46.0127 C.3       2 UNK         0.0481 
     23 CB         20.2550  -24.6533  -47.4783 C.3       2 UNK        -0.1831 
     24 N          18.4433  -25.2635  -45.9448 N.am      2 UNK        -0.4498 
     25 C          17.6249  -25.1309  -44.8914 C.2       1 UNK         0.5027 
     26 O          17.8934  -24.4563  -43.8936 O.2       1 UNK        -0.4969 
     27 C          21.1718  -27.3816  -42.6527 C.2       3 UNK         0.5005 
     28 O          20.0246  -27.2023  -42.2332 O.2       3 UNK        -0.5279 
     29 N          22.2561  -27.3948  -41.8722 N.am      4 UNK        -0.4463 
     30 CA         22.2292  -27.3938  -40.4151 C.3       4 UNK         0.0283 
     31 CB         22.0324  -25.9634  -39.8804 C.3       4 UNK        -0.1875 
     32 C          23.5454  -27.9854  -39.9054 C.2       4 UNK         0.4949 
     33 O          24.5839  -27.7803  -40.5409 O.2       4 UNK        -0.5039 
     34 N          23.4742  -28.6642  -38.7532 N.am      5 UNK        -0.4663 
     35 CA         24.5768  -29.1304  -37.9061 C.3       5 UNK         0.0242 
     36 CB         25.1681  -27.9370  -37.1219 C.3       5 UNK        -0.1982 
     37 C          25.6361  -29.9489  -38.6668 C.2       5 UNK         0.5017 
     38 O          25.4208  -31.1371  -38.9072 O.2       5 UNK        -0.5012 
     39 N          26.7537  -29.2978  -39.0210 N.am      6 UNK        -0.4439 
     40 CA         27.8996  -29.8709  -39.7297 C.3       6 UNK         0.0297 
     41 CB         29.0405  -28.8410  -39.7582 C.3       6 UNK        -0.2006 
     42 C          27.5842  -30.3629  -41.1534 C.2       6 UNK         0.4892 
     43 O          28.2885  -31.2499  -41.6378 O.2       6 UNK        -0.5089 
     44 N          26.5482  -29.7990  -41.7938 N.am      7 UNK        -0.4243 
     45 CA         26.0082  -30.3002  -43.0586 C.3       7 UNK         0.0196 
     46 CB         25.1976  -29.1968  -43.7643 C.3       7 UNK        -0.2007 
     47 C          25.1732  -31.5629  -42.7960 C.2       7 UNK         0.5020 
     48 O          25.6086  -32.6646  -43.1304 O.2       7 UNK        -0.5147 
     49 N          24.0116  -31.3677  -42.1653 N.am      8 UNK        -0.4734 
     50 CA         23.0553  -32.3730  -41.7092 C.3       8 UNK         0.0238 
     51 CB         22.5172  -33.2156  -42.8859 C.3       8 UNK        -0.1912 
     52 C          21.8925  -31.6268  -41.0480 C.2       8 UNK         0.5038 
     53 O          21.6439  -30.4743  -41.4052 O.2       8 UNK        -0.5046 
     54 N          21.1693  -32.3115  -40.1553 N.am      9 UNK        -0.4200 
     55 CA         19.8824  -31.8726  -39.5856 C.3       9 UNK         0.0839 
     56 C          19.9727  -30.5628  -38.7393 C.2       9 UNK         0.5513 
     57 N          18.8595  -29.8916  -38.4740 N.am      9 UNK        -0.7519 
     58 O          21.0373  -30.1721  -38.2632 O.2       9 UNK        -0.4960 
     59 C59        18.7510  -31.8589  -40.6615 C.3       10 UNK        -0.0876 
     60 S60        18.5956  -33.4686  -41.5119 S.3       10 UNK        -0.2414 
     61 C61        17.1924  -33.1679  -42.6365 C.3       10 UNK         0.0169 
     62 H62        13.3670  -23.9142  -43.0872 H         1 UNK         0.0903 
     63 H63        13.8491  -22.3684  -43.7888 H         1 UNK         0.0903 
     64 H64        12.6288  -23.3610  -44.5913 H         1 UNK         0.0903 
     65 H65        14.9138  -25.5031  -43.4184 H         1 UNK         0.3096 
     66 H66        16.0428  -26.0761  -45.9970 H         1 UNK         0.1121 
     67 H67        17.3578  -27.8273  -44.7116 H         1 UNK         0.0849 
     68 H68        16.7194  -27.2000  -43.2220 H         1 UNK         0.0849 
     69 H69        14.6820  -30.1575  -46.0270 H         1 UNK         0.0865 
     70 H70        15.8263  -28.9902  -46.6375 H         1 UNK         0.0865 
     71 H71        15.4933  -31.3660  -43.7259 H         1 UNK         0.1346 
     72 H72        19.5124  -32.8151  -44.1051 H         1 UNK         0.1412 
     73 H73        18.0769  -29.7640  -46.7482 H         1 UNK         0.1426 
     74 H74        20.1794  -31.5884  -47.2157 H         1 UNK         0.0716 
     75 H75        20.9953  -31.9413  -45.7147 H         1 UNK         0.0716 
     76 H76        20.1330  -29.4436  -43.9986 H         1 UNK         0.0695 
     77 H77        21.8406  -29.7974  -43.9547 H         1 UNK         0.0695 
     78 H78        22.4371  -27.4753  -44.4010 H         1 UNK         0.0983 
     79 H79        19.7379  -27.1786  -45.3597 H         1 UNK         0.3095 
     80 H80        19.7568  -23.6681  -45.6414 H         1 UNK         0.0454 
     81 H81        21.2469  -24.2066  -47.5611 H         1 UNK         0.0851 
     82 H82        20.3112  -25.6513  -47.9150 H         1 UNK         0.0851 
     83 H83        19.5810  -24.0545  -48.0910 H         1 UNK         0.0851 
     84 H84        18.1443  -25.8140  -46.7375 H         1 UNK         0.2976 
     85 H85        23.1778  -27.5290  -42.2658 H         1 UNK         0.3116 
     86 H86        21.4059  -28.0257  -40.0745 H         1 UNK         0.0646 
     87 H87        22.0327  -25.9510  -38.7898 H         1 UNK         0.0847 
     88 H88        21.0818  -25.5420  -40.2075 H         1 UNK         0.0847 
     89 H89        22.8278  -25.2968  -40.2158 H         1 UNK         0.0847 
     90 H90        22.5476  -28.9089  -38.4124 H         1 UNK         0.3040 
     91 H91        24.1363  -29.8146  -37.1785 H         1 UNK         0.1015 
     92 H92        24.4183  -27.4964  -36.4644 H         1 UNK         0.0786 
     93 H93        25.5286  -27.1446  -37.7789 H         1 UNK         0.0786 
     94 H94        25.9991  -28.2514  -36.4887 H         1 UNK         0.0786 
     95 H95        26.8031  -28.3121  -38.8071 H         1 UNK         0.3172 
     96 H96        28.2368  -30.7369  -39.1562 H         1 UNK         0.0595 
     97 H97        29.3428  -28.5526  -38.7513 H         1 UNK         0.0839 
     98 H98        28.7549  -27.9367  -40.2973 H         1 UNK         0.0839 
     99 H99        29.9227  -29.2495  -40.2535 H         1 UNK         0.0839 
    100 H100       26.0140  -29.0829  -41.3118 H         1 UNK         0.2998 
    101 H101       26.8356  -30.5764  -43.7162 H         1 UNK         0.0822 
    102 H102       25.8349  -28.3541  -44.0330 H         1 UNK         0.0787 
    103 H103       24.7497  -29.5710  -44.6862 H         1 UNK         0.0787 
    104 H104       24.3917  -28.8155  -43.1406 H         1 UNK         0.0787 
    105 H105       23.7281  -30.4250  -41.9305 H         1 UNK         0.3055 
    106 H106       23.5432  -33.0133  -40.9715 H         1 UNK         0.1106 
    107 H107       22.1057  -32.5819  -43.6714 H         1 UNK         0.0828 
    108 H108       23.2918  -33.8399  -43.3295 H         1 UNK         0.0828 
    109 H109       21.7215  -33.8867  -42.5595 H         1 UNK         0.0828 
    110 H110       21.4582  -33.2447  -39.9027 H         1 UNK         0.2931 
    111 H111       19.6247  -32.6432  -38.8583 H         1 UNK         0.0412 
    112 H112       18.9174  -29.0606  -37.9067 H         1 UNK         0.3472 
    113 H113       17.9643  -30.1974  -38.8195 H         1 UNK         0.3472 
    114 H114       18.9348  -31.0791  -41.4035 H         1 UNK         0.0970 
    115 H115       17.7840  -31.6352  -40.2097 H         1 UNK         0.0970 
    116 H116       16.3445  -32.8241  -42.0419 H         1 UNK         0.0612 
    117 H117       16.8946  -34.1214  -43.0741 H         1 UNK         0.0612 
@<TRIPOS>BOND
     1    1    2 1    
     2    1   62 1    
     3    1   63 1    
     4    1   64 1    
     5    2    3 2    
     6    2    4 am   BACKBONE|DICT|INTERRES
     7    4    5 1    
     8    4   65 1    
     9    5    6 1    
    10    5   25 1    
    11    5   66 1    
    12    6    7 1    
    13    6   67 1    
    14    6   68 1    
    15    7    8 1    
    16    8    9 1    
    17    8   69 1    
    18    8   70 1    
    19    9   10 ar   
    20    9   14 ar   
    21   10   11 ar   
    22   10   71 1    
    23   11   12 ar   
    24   11   61 1    
    25   12   13 ar   
    26   12   72 1    
    27   13   14 ar   
    28   13   15 1    
    29   14   73 1    
    30   15   16 1    
    31   15   74 1    
    32   15   75 1    
    33   16   17 1    
    34   17   18 1    
    35   17   76 1    
    36   17   77 1    
    37   18   19 1    
    38   18   27 1    
    39   18   78 1    
    40   19   20 am   BACKBONE|DICT|INTERRES
    41   19   79 1    
    42   20   21 2    
    43   20   22 1    
    44   22   23 1    
    45   22   24 1    
    46   22   80 1    
    47   23   81 1    
    48   23   82 1    
    49   23   83 1    
    50   24   25 am   BACKBONE|DICT|INTERRES
    51   24   84 1    
    52   25   26 2    
    53   27   28 2    
    54   27   29 am   BACKBONE|DICT|INTERRES
    55   29   30 1    
    56   29   85 1    
    57   30   31 1    
    58   30   32 1    
    59   30   86 1    
    60   31   87 1    
    61   31   88 1    
    62   31   89 1    
    63   32   33 2    
    64   32   34 am   BACKBONE|DICT|INTERRES
    65   34   35 1    
    66   34   90 1    
    67   35   36 1    
    68   35   37 1    
    69   35   91 1    
    70   36   92 1    
    71   36   93 1    
    72   36   94 1    
    73   37   38 2    
    74   37   39 am   BACKBONE|DICT|INTERRES
    75   39   40 1    
    76   39   95 1    
    77   40   41 1    
    78   40   42 1    
    79   40   96 1    
    80   41   97 1    
    81   41   98 1    
    82   41   99 1    
    83   42   43 2    
    84   42   44 am   BACKBONE|DICT|INTERRES
    85   44   45 1    
    86   44  100 1    
    87   45   46 1    
    88   45   47 1    
    89   45  101 1    
    90   46  102 1    
    91   46  103 1    
    92   46  104 1    
    93   47   48 2    
    94   47   49 am   BACKBONE|DICT|INTERRES
    95   49   50 1    
    96   49  105 1    
    97   50   51 1    
    98   50   52 1    
    99   50  106 1    
   100   51  107 1    
   101   51  108 1    
   102   51  109 1    
   103   52   53 2    
   104   52   54 am   BACKBONE|DICT|INTERRES
   105   54   55 1    
   106   54  110 1    
   107   55   56 1    
   108   55   59 1    
   109   55  111 1    
   110   56   57 am   BACKBONE|DICT|INTERRES
   111   56   58 2    
   112   57  112 1    
   113   57  113 1    
   114   59   60 1    
   115   59  114 1    
   116   59  115 1    
   117   60   61 1    
   118   61  116 1    
   119   61  117 1    
@<TRIPOS>SUBSTRUCTURE
     1 UNK         1 GROUP             0       ****    0 ROOT    
