@<TRIPOS>MOLECULE
3R8
117   119    1
SMALL
USER_CHARGES


@<TRIPOS>ATOM
      1 CA         14.3925  -23.9509  -44.0741 C.3       0 UNK        -0.2013 
      2 C          15.5462  -24.7496  -43.4862 C.2       0 UNK         0.4866 
      3 O          15.8561  -24.5905  -42.3056 O.2       0 UNK        -0.5176 
      4 N          16.1828  -25.5990  -44.3064 N.am      1 UNK        -0.4884 
      5 CA         17.3071  -26.4831  -43.9547 C.3       1 UNK         0.0853 
      6 C6         16.9161  -27.6049  -42.9483 C.3       10 UNK        -0.0849 
      7 S7         15.7497  -28.8047  -43.6833 S.3       10 UNK        -0.2776 
      8 C8         16.4215  -30.4115  -43.1081 C.3       10 UNK         0.0316 
      9 C9         17.7030  -30.9112  -43.7873 C.ar      10 UNK        -0.0863 
     10 C10        18.1248  -32.2217  -43.5330 C.ar      10 UNK        -0.1009 
     11 C11        19.2965  -32.7274  -44.1080 C.ar      10 UNK        -0.0712 
     12 C12        20.0689  -31.9017  -44.9316 C.ar      10 UNK        -0.0894 
     13 C13        19.6743  -30.5853  -45.1801 C.ar      10 UNK        -0.0745 
     14 C14        18.4842  -30.1092  -44.6279 C.ar      10 UNK        -0.0972 
     15 C15        20.5324  -29.6566  -46.0238 C.3       10 UNK         0.0209 
     16 S16        21.4583  -28.5031  -44.9634 S.3       10 UNK        -0.2568 
     17 C17        22.1431  -27.3563  -46.2102 C.3       10 UNK        -0.0983 
     18 CA         22.5202  -25.9525  -45.6580 C.3       3 UNK         0.0876 
     19 N          21.4173  -25.3522  -44.8992 N.am      3 UNK        -0.4424 
     20 C          21.1828  -24.0443  -44.7394 C.2       2 UNK         0.4918 
     21 O          21.9184  -23.1739  -45.2088 O.2       2 UNK        -0.4875 
     22 CA         19.9367  -23.6400  -43.9204 C.3       2 UNK         0.0481 
     23 CB         19.5036  -22.1882  -44.1963 C.3       2 UNK        -0.1831 
     24 N          18.7880  -24.5249  -44.1447 N.am      2 UNK        -0.4498 
     25 C          18.5824  -25.7068  -43.5460 C.2       1 UNK         0.5027 
     26 O          19.3809  -26.1937  -42.7450 O.2       1 UNK        -0.4969 
     27 C          23.8401  -25.9322  -44.8536 C.2       3 UNK         0.5005 
     28 O          24.4173  -26.9845  -44.5806 O.2       3 UNK        -0.5279 
     29 N          24.2822  -24.7308  -44.4491 N.am      4 UNK        -0.4463 
     30 CA         25.5130  -24.4466  -43.6920 C.3       4 UNK         0.0283 
     31 CB         26.7507  -24.6546  -44.5903 C.3       4 UNK        -0.1875 
     32 C          25.6169  -25.2202  -42.3587 C.2       4 UNK         0.4949 
     33 O          26.7155  -25.5961  -41.9475 O.2       4 UNK        -0.5039 
     34 N          24.4578  -25.4571  -41.7257 N.am      5 UNK        -0.4663 
     35 CA         24.2470  -26.2370  -40.4996 C.3       5 UNK         0.0242 
     36 CB         24.9602  -25.5847  -39.2950 C.3       5 UNK        -0.1982 
     37 C          24.5659  -27.7424  -40.6347 C.2       5 UNK         0.5017 
     38 O          24.7476  -28.4077  -39.6139 O.2       5 UNK        -0.5012 
     39 N          24.5837  -28.2791  -41.8666 N.am      6 UNK        -0.4439 
     40 CA         24.7676  -29.7118  -42.1397 C.3       6 UNK         0.0297 
     41 CB         25.1681  -29.9083  -43.6105 C.3       6 UNK        -0.2006 
     42 C          23.5312  -30.5710  -41.8083 C.2       6 UNK         0.4892 
     43 O          23.6490  -31.7952  -41.7742 O.2       6 UNK        -0.5089 
     44 N          22.3834  -29.9270  -41.5544 N.am      7 UNK        -0.4243 
     45 CA         21.0575  -30.5039  -41.3032 C.3       7 UNK         0.0196 
     46 CB         20.0269  -29.3640  -41.3394 C.3       7 UNK        -0.2007 
     47 C          20.8972  -31.3557  -40.0238 C.2       7 UNK         0.5020 
     48 O          19.7646  -31.6507  -39.6399 O.2       7 UNK        -0.5147 
     49 N          22.0007  -31.7803  -39.3925 N.am      8 UNK        -0.4734 
     50 CA         22.0270  -32.7144  -38.2570 C.3       8 UNK         0.0238 
     51 CB         23.4667  -32.8233  -37.7301 C.3       8 UNK        -0.1912 
     52 C          21.4664  -34.1103  -38.5996 C.2       8 UNK         0.5038 
     53 O          21.0278  -34.8290  -37.7011 O.2       8 UNK        -0.5046 
     54 N          21.4643  -34.4417  -39.8955 N.am      9 UNK        -0.4200 
     55 CA         20.7390  -35.5544  -40.5210 C.3       9 UNK         0.0839 
     56 C          19.1858  -35.4720  -40.4213 C.2       9 UNK         0.5513 
     57 N          18.5859  -34.3334  -40.0916 N.am      9 UNK        -0.7519 
     58 O          18.5105  -36.4728  -40.6462 O.2       9 UNK        -0.4960 
     59 C59        21.2030  -35.7624  -41.9913 C.3       10 UNK        -0.0876 
     60 S60        21.3196  -34.2054  -42.9466 S.3       10 UNK        -0.2414 
     61 C61        19.7314  -34.1605  -43.8310 C.3       10 UNK         0.0169 
     62 H62        14.5962  -22.8834  -43.9946 H         1 UNK         0.0903 
     63 H63        14.2245  -24.1869  -45.1248 H         1 UNK         0.0903 
     64 H64        13.4736  -24.1639  -43.5285 H         1 UNK         0.0903 
     65 H65        15.8621  -25.6802  -45.2620 H         1 UNK         0.3096 
     66 H66        17.5895  -26.9645  -44.8910 H         1 UNK         0.1121 
     67 H67        16.4753  -27.1856  -42.0431 H         1 UNK         0.0849 
     68 H68        17.7959  -28.1546  -42.6174 H         1 UNK         0.0849 
     69 H69        16.5908  -30.3572  -42.0317 H         1 UNK         0.0865 
     70 H70        15.6418  -31.1607  -43.2538 H         1 UNK         0.0865 
     71 H71        17.5371  -32.8529  -42.8799 H         1 UNK         0.1346 
     72 H72        20.9877  -32.2798  -45.3586 H         1 UNK         0.1412 
     73 H73        18.1962  -29.0958  -44.8463 H         1 UNK         0.1426 
     74 H74        19.8947  -29.0977  -46.7103 H         1 UNK         0.0716 
     75 H75        21.2326  -30.2246  -46.6381 H         1 UNK         0.0716 
     76 H76        21.3979  -27.2289  -46.9966 H         1 UNK         0.0695 
     77 H77        22.9989  -27.8310  -46.6941 H         1 UNK         0.0695 
     78 H78        22.7061  -25.3218  -46.5305 H         1 UNK         0.0983 
     79 H79        20.8156  -26.0066  -44.4148 H         1 UNK         0.3095 
     80 H80        20.2218  -23.7001  -42.8681 H         1 UNK         0.0454 
     81 H81        20.3027  -21.4859  -43.9551 H         1 UNK         0.0851 
     82 H82        18.6410  -21.9093  -43.5907 H         1 UNK         0.0851 
     83 H83        19.2420  -22.0372  -45.2443 H         1 UNK         0.0851 
     84 H84        18.0989  -24.2085  -44.8121 H         1 UNK         0.2976 
     85 H85        23.7097  -23.9269  -44.6925 H         1 UNK         0.3116 
     86 H86        25.4718  -23.3896  -43.4251 H         1 UNK         0.0646 
     87 H87        26.8850  -25.7043  -44.8540 H         1 UNK         0.0847 
     88 H88        26.6714  -24.0837  -45.5153 H         1 UNK         0.0847 
     89 H89        27.6614  -24.3267  -44.0875 H         1 UNK         0.0847 
     90 H90        23.6187  -25.1044  -42.1645 H         1 UNK         0.3040 
     91 H91        23.1751  -26.1886  -40.3006 H         1 UNK         0.1015 
     92 H92        24.6631  -26.0596  -38.3590 H         1 UNK         0.0786 
     93 H93        24.7114  -24.5269  -39.2107 H         1 UNK         0.0786 
     94 H94        26.0446  -25.6702  -39.3693 H         1 UNK         0.0786 
     95 H95        24.4624  -27.6787  -42.6786 H         1 UNK         0.3172 
     96 H96        25.5899  -30.0726  -41.5185 H         1 UNK         0.0595 
     97 H97        24.3595  -29.6303  -44.2878 H         1 UNK         0.0839 
     98 H98        25.4137  -30.9517  -43.8122 H         1 UNK         0.0839 
     99 H99        26.0433  -29.3122  -43.8698 H         1 UNK         0.0839 
    100 H100       22.4142  -28.9204  -41.6069 H         1 UNK         0.2998 
    101 H101       20.8415  -31.1725  -42.1381 H         1 UNK         0.0822 
    102 H102       19.0107  -29.7473  -41.2435 H         1 UNK         0.0787 
    103 H103       20.1856  -28.6477  -40.5327 H         1 UNK         0.0787 
    104 H104       20.0742  -28.8236  -42.2842 H         1 UNK         0.0787 
    105 H105       22.8901  -31.5573  -39.8222 H         1 UNK         0.3055 
    106 H106       21.3967  -32.2993  -37.4675 H         1 UNK         0.1106 
    107 H107       23.8468  -31.8530  -37.4096 H         1 UNK         0.0828 
    108 H108       23.5180  -33.4905  -36.8684 H         1 UNK         0.0828 
    109 H109       24.1451  -33.2166  -38.4884 H         1 UNK         0.0828 
    110 H110       21.8567  -33.7767  -40.5477 H         1 UNK         0.2931 
    111 H111       21.0170  -36.4521  -39.9657 H         1 UNK         0.0412 
    112 H112       17.5812  -34.3132  -40.0249 H         1 UNK         0.3472 
    113 H113       19.1158  -33.4861  -39.9146 H         1 UNK         0.3472 
    114 H114       22.1998  -36.2056  -41.9849 H         1 UNK         0.0970 
    115 H115       20.5746  -36.4835  -42.5182 H         1 UNK         0.0970 
    116 H116       18.9700  -34.6815  -43.2497 H         1 UNK         0.0612 
    117 H117       19.8288  -34.7032  -44.7721 H         1 UNK         0.0612 
@<TRIPOS>BOND
     1    1    2 1    
     2    1   62 1    
     3    1   63 1    
     4    1   64 1    
     5    2    3 2    
     6    2    4 am   BACKBONE|DICT|INTERRES
     7    4    5 1    
     8    4   65 1    
     9    5    6 1    
    10    5   25 1    
    11    5   66 1    
    12    6    7 1    
    13    6   67 1    
    14    6   68 1    
    15    7    8 1    
    16    8    9 1    
    17    8   69 1    
    18    8   70 1    
    19    9   10 ar   
    20    9   14 ar   
    21   10   11 ar   
    22   10   71 1    
    23   11   12 ar   
    24   11   61 1    
    25   12   13 ar   
    26   12   72 1    
    27   13   14 ar   
    28   13   15 1    
    29   14   73 1    
    30   15   16 1    
    31   15   74 1    
    32   15   75 1    
    33   16   17 1    
    34   17   18 1    
    35   17   76 1    
    36   17   77 1    
    37   18   19 1    
    38   18   27 1    
    39   18   78 1    
    40   19   20 am   BACKBONE|DICT|INTERRES
    41   19   79 1    
    42   20   21 2    
    43   20   22 1    
    44   22   23 1    
    45   22   24 1    
    46   22   80 1    
    47   23   81 1    
    48   23   82 1    
    49   23   83 1    
    50   24   25 am   BACKBONE|DICT|INTERRES
    51   24   84 1    
    52   25   26 2    
    53   27   28 2    
    54   27   29 am   BACKBONE|DICT|INTERRES
    55   29   30 1    
    56   29   85 1    
    57   30   31 1    
    58   30   32 1    
    59   30   86 1    
    60   31   87 1    
    61   31   88 1    
    62   31   89 1    
    63   32   33 2    
    64   32   34 am   BACKBONE|DICT|INTERRES
    65   34   35 1    
    66   34   90 1    
    67   35   36 1    
    68   35   37 1    
    69   35   91 1    
    70   36   92 1    
    71   36   93 1    
    72   36   94 1    
    73   37   38 2    
    74   37   39 am   BACKBONE|DICT|INTERRES
    75   39   40 1    
    76   39   95 1    
    77   40   41 1    
    78   40   42 1    
    79   40   96 1    
    80   41   97 1    
    81   41   98 1    
    82   41   99 1    
    83   42   43 2    
    84   42   44 am   BACKBONE|DICT|INTERRES
    85   44   45 1    
    86   44  100 1    
    87   45   46 1    
    88   45   47 1    
    89   45  101 1    
    90   46  102 1    
    91   46  103 1    
    92   46  104 1    
    93   47   48 2    
    94   47   49 am   BACKBONE|DICT|INTERRES
    95   49   50 1    
    96   49  105 1    
    97   50   51 1    
    98   50   52 1    
    99   50  106 1    
   100   51  107 1    
   101   51  108 1    
   102   51  109 1    
   103   52   53 2    
   104   52   54 am   BACKBONE|DICT|INTERRES
   105   54   55 1    
   106   54  110 1    
   107   55   56 1    
   108   55   59 1    
   109   55  111 1    
   110   56   57 am   BACKBONE|DICT|INTERRES
   111   56   58 2    
   112   57  112 1    
   113   57  113 1    
   114   59   60 1    
   115   59  114 1    
   116   59  115 1    
   117   60   61 1    
   118   61  116 1    
   119   61  117 1    
@<TRIPOS>SUBSTRUCTURE
     1 UNK         1 GROUP             0       ****    0 ROOT    
