@<TRIPOS>MOLECULE
3R8
117   119    1
SMALL
USER_CHARGES


@<TRIPOS>ATOM
      1 CA         13.2536  -25.0938  -42.9834 C.3       0 UNK        -0.2013 
      2 C          14.6511  -24.9594  -43.5690 C.2       0 UNK         0.4866 
      3 O          15.3337  -23.9705  -43.3012 O.2       0 UNK        -0.5176 
      4 N          15.0763  -25.9433  -44.3718 N.am      1 UNK        -0.4884 
      5 CA         16.4069  -26.0274  -44.9863 C.3       1 UNK         0.0853 
      6 C6         16.4640  -27.0956  -46.1104 C.3       10 UNK        -0.0849 
      7 S7         15.7343  -28.7130  -45.6541 S.3       10 UNK        -0.2776 
      8 C8         16.4049  -29.8035  -46.9476 C.3       10 UNK         0.0316 
      9 C9         17.7442  -30.3986  -46.5394 C.ar      10 UNK        -0.0863 
     10 C10        17.7973  -31.6415  -45.9008 C.ar      10 UNK        -0.1009 
     11 C11        19.0263  -32.2055  -45.5429 C.ar      10 UNK        -0.0712 
     12 C12        20.2076  -31.5020  -45.8020 C.ar      10 UNK        -0.0894 
     13 C13        20.1654  -30.2570  -46.4372 C.ar      10 UNK        -0.0745 
     14 C14        18.9327  -29.7205  -46.8183 C.ar      10 UNK        -0.0972 
     15 C15        21.4465  -29.4964  -46.7440 C.3       10 UNK         0.0209 
     16 S16        21.5142  -27.9029  -45.8676 S.3       10 UNK        -0.2568 
     17 C17        22.0774  -28.4310  -44.2190 C.3       10 UNK        -0.0983 
     18 CA         21.7910  -27.3401  -43.1513 C.3       3 UNK         0.0876 
     19 N          20.3573  -27.1879  -42.8525 N.am      3 UNK        -0.4424 
     20 C          19.5765  -28.0356  -42.1685 C.2       2 UNK         0.4918 
     21 O          19.9656  -29.1069  -41.7083 O.2       2 UNK        -0.4875 
     22 CA         18.1253  -27.6031  -41.8881 C.3       2 UNK         0.0481 
     23 CB         18.0818  -26.5060  -40.8072 C.3       2 UNK        -0.1831 
     24 N          17.3286  -27.2220  -43.0606 N.am      2 UNK        -0.4498 
     25 C          17.5177  -26.2215  -43.9334 C.2       1 UNK         0.5027 
     26 O          18.4793  -25.4507  -43.9114 O.2       1 UNK        -0.4969 
     27 C          22.6497  -27.5007  -41.8740 C.2       3 UNK         0.5005 
     28 O          23.6343  -28.2397  -41.8745 O.2       3 UNK        -0.5279 
     29 N          22.2741  -26.7858  -40.8012 N.am      4 UNK        -0.4463 
     30 CA         22.8620  -26.8758  -39.4573 C.3       4 UNK         0.0283 
     31 CB         22.0828  -25.9547  -38.5052 C.3       4 UNK        -0.1875 
     32 C          24.3727  -26.5806  -39.3751 C.2       4 UNK         0.4949 
     33 O          25.0305  -27.0607  -38.4525 O.2       4 UNK        -0.5039 
     34 N          24.8950  -25.8106  -40.3381 N.am      5 UNK        -0.4663 
     35 CA         26.3190  -25.5010  -40.4847 C.3       5 UNK         0.0242 
     36 CB         26.4542  -24.1908  -41.2798 C.3       5 UNK        -0.1982 
     37 C          27.1349  -26.6253  -41.1561 C.2       5 UNK         0.5017 
     38 O          28.3629  -26.5270  -41.1766 O.2       5 UNK        -0.5012 
     39 N          26.4664  -27.6447  -41.7117 N.am      6 UNK        -0.4439 
     40 CA         27.0699  -28.7624  -42.4332 C.3       6 UNK         0.0297 
     41 CB         26.9249  -28.5188  -43.9511 C.3       6 UNK        -0.2006 
     42 C          26.4373  -30.0707  -41.9307 C.2       6 UNK         0.4892 
     43 O          26.4550  -30.3190  -40.7231 O.2       6 UNK        -0.5089 
     44 N          25.9045  -30.8908  -42.8468 N.am      7 UNK        -0.4243 
     45 CA         25.1582  -32.1138  -42.5526 C.3       7 UNK         0.0196 
     46 CB         25.1210  -32.9949  -43.8151 C.3       7 UNK        -0.2007 
     47 C          23.7482  -31.7545  -42.0555 C.2       7 UNK         0.5020 
     48 O          22.8287  -31.6355  -42.8653 O.2       7 UNK        -0.5147 
     49 N          23.6302  -31.5347  -40.7407 N.am      8 UNK        -0.4734 
     50 CA         22.4157  -31.0779  -40.0673 C.3       8 UNK         0.0238 
     51 CB         22.7487  -30.7481  -38.6022 C.3       8 UNK        -0.1912 
     52 C          21.2745  -32.1052  -40.1497 C.2       8 UNK         0.5038 
     53 O          21.4465  -33.2396  -39.6960 O.2       8 UNK        -0.5046 
     54 N          20.1365  -31.6697  -40.6950 N.am      9 UNK        -0.4200 
     55 CA         18.8881  -32.4332  -40.8363 C.3       9 UNK         0.0839 
     56 C          17.7091  -31.8061  -40.0384 C.2       9 UNK         0.5513 
     57 N          17.9018  -30.7195  -39.2987 N.am      9 UNK        -0.7519 
     58 O          16.5973  -32.3272  -40.0736 O.2       9 UNK        -0.4960 
     59 C59        18.5143  -32.6296  -42.3296 C.3       10 UNK        -0.0876 
     60 S60        19.7739  -33.5864  -43.2361 S.3       10 UNK        -0.2414 
     61 C61        19.0770  -33.5929  -44.9154 C.3       10 UNK         0.0169 
     62 H62        13.3029  -25.1046  -41.8949 H         1 UNK         0.0903 
     63 H63        12.6361  -24.2493  -43.2883 H         1 UNK         0.0903 
     64 H64        12.7604  -26.0094  -43.3094 H         1 UNK         0.0903 
     65 H65        14.4713  -26.7315  -44.5597 H         1 UNK         0.3096 
     66 H66        16.6033  -25.0594  -45.4538 H         1 UNK         0.1121 
     67 H67        17.4906  -27.2308  -46.4517 H         1 UNK         0.0849 
     68 H68        15.9159  -26.7269  -46.9790 H         1 UNK         0.0849 
     69 H69        15.6876  -30.6040  -47.1353 H         1 UNK         0.0865 
     70 H70        16.4974  -29.2584  -47.8885 H         1 UNK         0.0865 
     71 H71        16.8800  -32.1771  -45.6968 H         1 UNK         0.1346 
     72 H72        21.1581  -31.9302  -45.5123 H         1 UNK         0.1412 
     73 H73        18.9060  -28.7678  -47.3279 H         1 UNK         0.1426 
     74 H74        21.4959  -29.3089  -47.8174 H         1 UNK         0.0716 
     75 H75        22.3286  -30.0882  -46.4938 H         1 UNK         0.0716 
     76 H76        23.1451  -28.6391  -44.3085 H         1 UNK         0.0695 
     77 H77        21.6033  -29.3753  -43.9455 H         1 UNK         0.0695 
     78 H78        22.1106  -26.3840  -43.5690 H         1 UNK         0.0983 
     79 H79        19.9043  -26.3585  -43.2314 H         1 UNK         0.3095 
     80 H80        17.6202  -28.4780  -41.4752 H         1 UNK         0.0454 
     81 H81        18.6177  -26.8198  -39.9103 H         1 UNK         0.0851 
     82 H82        17.0565  -26.2869  -40.5096 H         1 UNK         0.0851 
     83 H83        18.5345  -25.5745  -41.1482 H         1 UNK         0.0851 
     84 H84        16.5180  -27.8031  -43.2272 H         1 UNK         0.2976 
     85 H85        21.4678  -26.1858  -40.8979 H         1 UNK         0.3116 
     86 H86        22.7204  -27.9025  -39.1195 H         1 UNK         0.0646 
     87 H87        22.1487  -24.9096  -38.8103 H         1 UNK         0.0847 
     88 H88        21.0284  -26.2277  -38.4597 H         1 UNK         0.0847 
     89 H89        22.4748  -26.0217  -37.4891 H         1 UNK         0.0847 
     90 H90        24.2756  -25.4584  -41.0533 H         1 UNK         0.3040 
     91 H91        26.7481  -25.3434  -39.4924 H         1 UNK         0.1015 
     92 H92        27.5003  -23.8956  -41.3741 H         1 UNK         0.0786 
     93 H93        25.9332  -23.3705  -40.7856 H         1 UNK         0.0786 
     94 H94        26.0513  -24.2872  -42.2889 H         1 UNK         0.0786 
     95 H95        25.4552  -27.7000  -41.6023 H         1 UNK         0.3172 
     96 H96        28.1339  -28.8332  -42.1991 H         1 UNK         0.0595 
     97 H97        25.8791  -28.4525  -44.2551 H         1 UNK         0.0839 
     98 H98        27.3993  -29.3115  -44.5311 H         1 UNK         0.0839 
     99 H99        27.4084  -27.5859  -44.2420 H         1 UNK         0.0839 
    100 H100       25.9075  -30.5917  -43.8106 H         1 UNK         0.2998 
    101 H101       25.6750  -32.6712  -41.7680 H         1 UNK         0.0822 
    102 H102       24.5520  -33.9077  -43.6337 H         1 UNK         0.0787 
    103 H103       24.6530  -32.4821  -44.6566 H         1 UNK         0.0787 
    104 H104       26.1242  -33.2931  -44.1201 H         1 UNK         0.0787 
    105 H105       24.4634  -31.6045  -40.1725 H         1 UNK         0.3055 
    106 H106       22.1032  -30.1567  -40.5619 H         1 UNK         0.1106 
    107 H107       23.5638  -30.0278  -38.5299 H         1 UNK         0.0828 
    108 H108       21.8851  -30.3166  -38.0945 H         1 UNK         0.0828 
    109 H109       23.0434  -31.6385  -38.0453 H         1 UNK         0.0828 
    110 H110       20.1031  -30.7222  -41.0710 H         1 UNK         0.2931 
    111 H111       19.0235  -33.4239  -40.3991 H         1 UNK         0.0412 
    112 H112       17.1291  -30.3345  -38.7787 H         1 UNK         0.3472 
    113 H113       18.8109  -30.2900  -39.2463 H         1 UNK         0.3472 
    114 H114       18.3847  -31.6607  -42.8161 H         1 UNK         0.0970 
    115 H115       17.5629  -33.1559  -42.4276 H         1 UNK         0.0970 
    116 H116       19.6901  -34.2402  -45.5437 H         1 UNK         0.0612 
    117 H117       18.0850  -34.0463  -44.8853 H         1 UNK         0.0612 
@<TRIPOS>BOND
     1    1    2 1    
     2    1   62 1    
     3    1   63 1    
     4    1   64 1    
     5    2    3 2    
     6    2    4 am   BACKBONE|DICT|INTERRES
     7    4    5 1    
     8    4   65 1    
     9    5    6 1    
    10    5   25 1    
    11    5   66 1    
    12    6    7 1    
    13    6   67 1    
    14    6   68 1    
    15    7    8 1    
    16    8    9 1    
    17    8   69 1    
    18    8   70 1    
    19    9   10 ar   
    20    9   14 ar   
    21   10   11 ar   
    22   10   71 1    
    23   11   12 ar   
    24   11   61 1    
    25   12   13 ar   
    26   12   72 1    
    27   13   14 ar   
    28   13   15 1    
    29   14   73 1    
    30   15   16 1    
    31   15   74 1    
    32   15   75 1    
    33   16   17 1    
    34   17   18 1    
    35   17   76 1    
    36   17   77 1    
    37   18   19 1    
    38   18   27 1    
    39   18   78 1    
    40   19   20 am   BACKBONE|DICT|INTERRES
    41   19   79 1    
    42   20   21 2    
    43   20   22 1    
    44   22   23 1    
    45   22   24 1    
    46   22   80 1    
    47   23   81 1    
    48   23   82 1    
    49   23   83 1    
    50   24   25 am   BACKBONE|DICT|INTERRES
    51   24   84 1    
    52   25   26 2    
    53   27   28 2    
    54   27   29 am   BACKBONE|DICT|INTERRES
    55   29   30 1    
    56   29   85 1    
    57   30   31 1    
    58   30   32 1    
    59   30   86 1    
    60   31   87 1    
    61   31   88 1    
    62   31   89 1    
    63   32   33 2    
    64   32   34 am   BACKBONE|DICT|INTERRES
    65   34   35 1    
    66   34   90 1    
    67   35   36 1    
    68   35   37 1    
    69   35   91 1    
    70   36   92 1    
    71   36   93 1    
    72   36   94 1    
    73   37   38 2    
    74   37   39 am   BACKBONE|DICT|INTERRES
    75   39   40 1    
    76   39   95 1    
    77   40   41 1    
    78   40   42 1    
    79   40   96 1    
    80   41   97 1    
    81   41   98 1    
    82   41   99 1    
    83   42   43 2    
    84   42   44 am   BACKBONE|DICT|INTERRES
    85   44   45 1    
    86   44  100 1    
    87   45   46 1    
    88   45   47 1    
    89   45  101 1    
    90   46  102 1    
    91   46  103 1    
    92   46  104 1    
    93   47   48 2    
    94   47   49 am   BACKBONE|DICT|INTERRES
    95   49   50 1    
    96   49  105 1    
    97   50   51 1    
    98   50   52 1    
    99   50  106 1    
   100   51  107 1    
   101   51  108 1    
   102   51  109 1    
   103   52   53 2    
   104   52   54 am   BACKBONE|DICT|INTERRES
   105   54   55 1    
   106   54  110 1    
   107   55   56 1    
   108   55   59 1    
   109   55  111 1    
   110   56   57 am   BACKBONE|DICT|INTERRES
   111   56   58 2    
   112   57  112 1    
   113   57  113 1    
   114   59   60 1    
   115   59  114 1    
   116   59  115 1    
   117   60   61 1    
   118   61  116 1    
   119   61  117 1    
@<TRIPOS>SUBSTRUCTURE
     1 UNK         1 GROUP             0       ****    0 ROOT    
