@<TRIPOS>MOLECULE
3R8
117   119    1
SMALL
USER_CHARGES


@<TRIPOS>ATOM
      1 CA         16.7938  -22.7908  -47.8720 C.3       0 UNK        -0.2013 
      2 C          17.8852  -23.7708  -47.4680 C.2       0 UNK         0.4866 
      3 O          19.0687  -23.4517  -47.5859 O.2       0 UNK        -0.5176 
      4 N          17.4981  -24.9642  -46.9997 N.am      1 UNK        -0.4884 
      5 CA         18.4076  -25.9987  -46.4974 C.3       1 UNK         0.0853 
      6 C6         17.7042  -27.3748  -46.4547 C.3       10 UNK        -0.0849 
      7 S7         18.8794  -28.7700  -46.4817 S.3       10 UNK        -0.2776 
      8 C8         17.7680  -30.1844  -46.1783 C.3       10 UNK         0.0316 
      9 C9         17.7526  -30.5960  -44.7115 C.ar      10 UNK        -0.0863 
     10 C10        18.3293  -31.8031  -44.3067 C.ar      10 UNK        -0.1009 
     11 C11        18.3051  -32.1899  -42.9618 C.ar      10 UNK        -0.0712 
     12 C12        17.7196  -31.3429  -42.0128 C.ar      10 UNK        -0.0894 
     13 C13        17.1422  -30.1291  -42.4028 C.ar      10 UNK        -0.0745 
     14 C14        17.1408  -29.7822  -43.7570 C.ar      10 UNK        -0.0972 
     15 C15        16.4663  -29.2253  -41.3746 C.3       10 UNK         0.0209 
     16 S16        16.7775  -27.4450  -41.6643 S.3       10 UNK        -0.2568 
     17 C17        17.9604  -27.0117  -40.3495 C.3       10 UNK        -0.0983 
     18 CA         19.4476  -27.0749  -40.7787 C.3       3 UNK         0.0876 
     19 N          19.7373  -26.2830  -41.9873 N.am      3 UNK        -0.4424 
     20 C          20.9429  -26.1538  -42.5605 C.2       2 UNK         0.4918 
     21 O          21.9596  -26.7045  -42.1330 O.2       2 UNK        -0.4875 
     22 CA         21.0385  -25.2279  -43.7863 C.3       2 UNK         0.0481 
     23 CB         22.4961  -24.9793  -44.2173 C.3       2 UNK        -0.1831 
     24 N          20.2886  -25.7314  -44.9377 N.am      2 UNK        -0.4498 
     25 C          18.9712  -25.5815  -45.1210 C.2       1 UNK         0.5027 
     26 O          18.2138  -25.1140  -44.2655 O.2       1 UNK        -0.4969 
     27 C          20.3307  -26.6758  -39.5752 C.2       3 UNK         0.5005 
     28 O          20.7672  -27.5477  -38.8242 O.2       3 UNK        -0.5279 
     29 N          20.6163  -25.3709  -39.4399 N.am      4 UNK        -0.4463 
     30 CA         21.4870  -24.7940  -38.4088 C.3       4 UNK         0.0283 
     31 CB         21.3894  -23.2611  -38.4667 C.3       4 UNK        -0.1875 
     32 C          22.9592  -25.2392  -38.5067 C.2       4 UNK         0.4949 
     33 O          23.6580  -25.2243  -37.4938 O.2       4 UNK        -0.5039 
     34 N          23.3967  -25.6438  -39.7066 N.am      5 UNK        -0.4663 
     35 CA         24.7180  -26.2185  -39.9736 C.3       5 UNK         0.0242 
     36 CB         25.2347  -25.6567  -41.3103 C.3       5 UNK        -0.1982 
     37 C          24.6793  -27.7595  -40.0041 C.2       5 UNK         0.5017 
     38 O          25.6790  -28.3719  -40.3795 O.2       5 UNK        -0.5012 
     39 N          23.5305  -28.3538  -39.6418 N.am      6 UNK        -0.4439 
     40 CA         23.1907  -29.7799  -39.6979 C.3       6 UNK         0.0297 
     41 CB         24.1358  -30.6273  -38.8194 C.3       6 UNK        -0.2006 
     42 C          23.0523  -30.3354  -41.1290 C.2       6 UNK         0.4892 
     43 O          23.0481  -31.5552  -41.2888 O.2       6 UNK        -0.5089 
     44 N          22.9085  -29.4506  -42.1298 N.am      7 UNK        -0.4243 
     45 CA         22.6682  -29.7298  -43.5499 C.3       7 UNK         0.0196 
     46 CB         21.1638  -29.9981  -43.7574 C.3       7 UNK        -0.2007 
     47 C          23.5909  -30.8312  -44.1159 C.2       7 UNK         0.5020 
     48 O          24.8123  -30.6796  -44.0597 O.2       7 UNK        -0.5147 
     49 N          22.9975  -31.9151  -44.6313 N.am      8 UNK        -0.4734 
     50 CA         23.6935  -33.1276  -45.0702 C.3       8 UNK         0.0238 
     51 CB         23.1088  -33.5635  -46.4249 C.3       8 UNK        -0.1912 
     52 C          23.5813  -34.2756  -44.0478 C.2       8 UNK         0.5038 
     53 O          24.2917  -35.2712  -44.1964 O.2       8 UNK        -0.5046 
     54 N          22.6858  -34.1458  -43.0599 N.am      9 UNK        -0.4200 
     55 CA         22.4215  -35.1459  -42.0130 C.3       9 UNK         0.0839 
     56 C          23.4485  -35.1428  -40.8470 C.2       9 UNK         0.5513 
     57 N          24.1335  -34.0432  -40.5680 N.am      9 UNK        -0.7519 
     58 O          23.6400  -36.1680  -40.1977 O.2       9 UNK        -0.4960 
     59 C59        20.9497  -35.1059  -41.5046 C.3       10 UNK        -0.0876 
     60 S60        20.2290  -33.4277  -41.3529 S.3       10 UNK        -0.2414 
     61 C61        18.8675  -33.5465  -42.5567 C.3       10 UNK         0.0169 
     62 H62        16.8694  -21.8801  -47.2783 H         1 UNK         0.0903 
     63 H63        16.9005  -22.5225  -48.9228 H         1 UNK         0.0903 
     64 H64        15.7969  -23.2073  -47.7282 H         1 UNK         0.0903 
     65 H65        16.5122  -25.1555  -46.8898 H         1 UNK         0.3096 
     66 H66        19.2370  -26.0622  -47.2063 H         1 UNK         0.1121 
     67 H67        17.0358  -27.4385  -45.5976 H         1 UNK         0.0849 
     68 H68        17.0683  -27.4914  -47.3342 H         1 UNK         0.0849 
     69 H69        18.0977  -31.0178  -46.8005 H         1 UNK         0.0865 
     70 H70        16.7548  -29.9486  -46.5072 H         1 UNK         0.0865 
     71 H71        18.7847  -32.4505  -45.0435 H         1 UNK         0.1346 
     72 H72        17.7002  -31.6416  -40.9736 H         1 UNK         0.1412 
     73 H73        16.6595  -28.8679  -44.0643 H         1 UNK         0.1426 
     74 H74        16.7665  -29.5013  -40.3631 H         1 UNK         0.0716 
     75 H75        15.3906  -29.3969  -41.4293 H         1 UNK         0.0716 
     76 H76        17.7821  -27.6538  -39.4849 H         1 UNK         0.0695 
     77 H77        17.7077  -26.0012  -40.0218 H         1 UNK         0.0695 
     78 H78        19.6866  -28.1131  -41.0206 H         1 UNK         0.0983 
     79 H79        18.9449  -25.8405  -42.4411 H         1 UNK         0.3095 
     80 H80        20.6207  -24.2628  -43.4918 H         1 UNK         0.0454 
     81 H81        22.5498  -24.2853  -45.0561 H         1 UNK         0.0851 
     82 H82        22.9963  -25.9027  -44.5124 H         1 UNK         0.0851 
     83 H83        23.0734  -24.5402  -43.4029 H         1 UNK         0.0851 
     84 H84        20.8321  -26.1723  -45.6660 H         1 UNK         0.2976 
     85 H85        20.2128  -24.7266  -40.1051 H         1 UNK         0.3116 
     86 H86        21.1124  -25.1239  -37.4375 H         1 UNK         0.0646 
     87 H87        22.0031  -22.8016  -37.6905 H         1 UNK         0.0847 
     88 H88        20.3659  -22.9205  -38.3092 H         1 UNK         0.0847 
     89 H89        21.7320  -22.8695  -39.4254 H         1 UNK         0.0847 
     90 H90        22.7447  -25.6679  -40.4823 H         1 UNK         0.3040 
     91 H91        25.4193  -25.9287  -39.1879 H         1 UNK         0.1015 
     92 H92        25.2298  -24.5666  -41.3133 H         1 UNK         0.0786 
     93 H93        24.6314  -25.9995  -42.1514 H         1 UNK         0.0786 
     94 H94        26.2612  -25.9744  -41.4978 H         1 UNK         0.0786 
     95 H95        22.7647  -27.7577  -39.3449 H         1 UNK         0.3172 
     96 H96        22.1943  -29.8577  -39.2613 H         1 UNK         0.0595 
     97 H97        25.1348  -30.7001  -39.2498 H         1 UNK         0.0839 
     98 H98        23.7576  -31.6446  -38.7116 H         1 UNK         0.0839 
     99 H99        24.2287  -30.2107  -37.8167 H         1 UNK         0.0839 
    100 H100       22.9017  -28.4653  -41.8893 H         1 UNK         0.2998 
    101 H101       22.9194  -28.8163  -44.0909 H         1 UNK         0.0822 
    102 H102       20.8259  -30.8583  -43.1795 H         1 UNK         0.0787 
    103 H103       20.5637  -29.1435  -43.4443 H         1 UNK         0.0787 
    104 H104       20.9280  -30.1774  -44.8065 H         1 UNK         0.0787 
    105 H105       21.9880  -31.9378  -44.6513 H         1 UNK         0.3055 
    106 H106       24.7582  -32.9245  -45.2069 H         1 UNK         0.1106 
    107 H107       23.6190  -34.4499  -46.8045 H         1 UNK         0.0828 
    108 H108       22.0479  -33.8052  -46.3499 H         1 UNK         0.0828 
    109 H109       23.2228  -32.7811  -47.1754 H         1 UNK         0.0828 
    110 H110       22.2143  -33.2613  -42.9353 H         1 UNK         0.2931 
    111 H111       22.5430  -36.1254  -42.4809 H         1 UNK         0.0412 
    112 H112       23.8745  -33.1627  -41.0090 H         1 UNK         0.3472 
    113 H113       24.8067  -34.0548  -39.8196 H         1 UNK         0.3472 
    114 H114       20.3335  -35.6931  -42.1864 H         1 UNK         0.0970 
    115 H115       20.8477  -35.6126  -40.5428 H         1 UNK         0.0970 
    116 H116       19.2230  -34.0790  -43.4404 H         1 UNK         0.0612 
    117 H117       18.0679  -34.1538  -42.1305 H         1 UNK         0.0612 
@<TRIPOS>BOND
     1    1    2 1    
     2    1   62 1    
     3    1   63 1    
     4    1   64 1    
     5    2    3 2    
     6    2    4 am   BACKBONE|DICT|INTERRES
     7    4    5 1    
     8    4   65 1    
     9    5    6 1    
    10    5   25 1    
    11    5   66 1    
    12    6    7 1    
    13    6   67 1    
    14    6   68 1    
    15    7    8 1    
    16    8    9 1    
    17    8   69 1    
    18    8   70 1    
    19    9   10 ar   
    20    9   14 ar   
    21   10   11 ar   
    22   10   71 1    
    23   11   12 ar   
    24   11   61 1    
    25   12   13 ar   
    26   12   72 1    
    27   13   14 ar   
    28   13   15 1    
    29   14   73 1    
    30   15   16 1    
    31   15   74 1    
    32   15   75 1    
    33   16   17 1    
    34   17   18 1    
    35   17   76 1    
    36   17   77 1    
    37   18   19 1    
    38   18   27 1    
    39   18   78 1    
    40   19   20 am   BACKBONE|DICT|INTERRES
    41   19   79 1    
    42   20   21 2    
    43   20   22 1    
    44   22   23 1    
    45   22   24 1    
    46   22   80 1    
    47   23   81 1    
    48   23   82 1    
    49   23   83 1    
    50   24   25 am   BACKBONE|DICT|INTERRES
    51   24   84 1    
    52   25   26 2    
    53   27   28 2    
    54   27   29 am   BACKBONE|DICT|INTERRES
    55   29   30 1    
    56   29   85 1    
    57   30   31 1    
    58   30   32 1    
    59   30   86 1    
    60   31   87 1    
    61   31   88 1    
    62   31   89 1    
    63   32   33 2    
    64   32   34 am   BACKBONE|DICT|INTERRES
    65   34   35 1    
    66   34   90 1    
    67   35   36 1    
    68   35   37 1    
    69   35   91 1    
    70   36   92 1    
    71   36   93 1    
    72   36   94 1    
    73   37   38 2    
    74   37   39 am   BACKBONE|DICT|INTERRES
    75   39   40 1    
    76   39   95 1    
    77   40   41 1    
    78   40   42 1    
    79   40   96 1    
    80   41   97 1    
    81   41   98 1    
    82   41   99 1    
    83   42   43 2    
    84   42   44 am   BACKBONE|DICT|INTERRES
    85   44   45 1    
    86   44  100 1    
    87   45   46 1    
    88   45   47 1    
    89   45  101 1    
    90   46  102 1    
    91   46  103 1    
    92   46  104 1    
    93   47   48 2    
    94   47   49 am   BACKBONE|DICT|INTERRES
    95   49   50 1    
    96   49  105 1    
    97   50   51 1    
    98   50   52 1    
    99   50  106 1    
   100   51  107 1    
   101   51  108 1    
   102   51  109 1    
   103   52   53 2    
   104   52   54 am   BACKBONE|DICT|INTERRES
   105   54   55 1    
   106   54  110 1    
   107   55   56 1    
   108   55   59 1    
   109   55  111 1    
   110   56   57 am   BACKBONE|DICT|INTERRES
   111   56   58 2    
   112   57  112 1    
   113   57  113 1    
   114   59   60 1    
   115   59  114 1    
   116   59  115 1    
   117   60   61 1    
   118   61  116 1    
   119   61  117 1    
@<TRIPOS>SUBSTRUCTURE
     1 UNK         1 GROUP             0       ****    0 ROOT    
