@<TRIPOS>MOLECULE
3R8
117   119    1
SMALL
USER_CHARGES


@<TRIPOS>ATOM
      1 CA         16.4046  -24.5794  -47.6856 C.3       0 UNK        -0.2013 
      2 C          17.6818  -24.6191  -46.8602 C.2       0 UNK         0.4866 
      3 O          18.2203  -23.5673  -46.5150 O.2       0 UNK        -0.5176 
      4 N          18.1721  -25.8251  -46.5452 N.am      1 UNK        -0.4884 
      5 CA         19.3661  -26.0646  -45.7238 C.3       1 UNK         0.0853 
      6 C6         19.8752  -27.5246  -45.8564 C.3       10 UNK        -0.0849 
      7 S7         18.5841  -28.7763  -45.5203 S.3       10 UNK        -0.2776 
      8 C8         19.5620  -30.2519  -45.1026 C.3       10 UNK         0.0316 
      9 C9         18.9184  -30.9867  -43.9402 C.ar      10 UNK        -0.0863 
     10 C10        17.9355  -31.9534  -44.1677 C.ar      10 UNK        -0.1009 
     11 C11        17.3316  -32.6161  -43.0944 C.ar      10 UNK        -0.0712 
     12 C12        17.7024  -32.2859  -41.7858 C.ar      10 UNK        -0.0894 
     13 C13        18.6786  -31.3132  -41.5472 C.ar      10 UNK        -0.0745 
     14 C14        19.2929  -30.6804  -42.6306 C.ar      10 UNK        -0.0972 
     15 C15        19.0613  -30.9368  -40.1229 C.3       10 UNK         0.0209 
     16 S16        18.1754  -29.4387  -39.5895 S.3       10 UNK        -0.2568 
     17 C17        19.5419  -28.2731  -39.2461 C.3       10 UNK        -0.0983 
     18 CA         20.1377  -27.5916  -40.5120 C.3       3 UNK         0.0876 
     19 N          19.1270  -27.0425  -41.4287 N.am      3 UNK        -0.4424 
     20 C          18.2964  -26.0169  -41.1927 C.2       2 UNK         0.4918 
     21 O          18.2011  -25.4530  -40.1016 O.2       2 UNK        -0.4875 
     22 CA         17.4521  -25.5108  -42.3852 C.3       2 UNK         0.0481 
     23 CB         17.2466  -23.9827  -42.3281 C.3       2 UNK        -0.1831 
     24 N          17.9482  -25.8920  -43.7186 N.am      2 UNK        -0.4498 
     25 C          19.1616  -25.6580  -44.2483 C.2       1 UNK         0.5027 
     26 O          20.0966  -25.1556  -43.6244 O.2       1 UNK        -0.4969 
     27 C          21.2587  -26.5756  -40.1691 C.2       3 UNK         0.5005 
     28 O          21.9538  -26.7494  -39.1654 O.2       3 UNK        -0.5279 
     29 N          21.4300  -25.5346  -40.9997 N.am      4 UNK        -0.4463 
     30 CA         22.4697  -24.5152  -40.8600 C.3       4 UNK         0.0283 
     31 CB         22.0450  -23.2572  -41.6347 C.3       4 UNK        -0.1875 
     32 C          23.8171  -25.0353  -41.3794 C.2       4 UNK         0.4949 
     33 O          23.8441  -25.9472  -42.2075 O.2       4 UNK        -0.5039 
     34 N          24.9132  -24.4427  -40.8831 N.am      5 UNK        -0.4663 
     35 CA         26.3111  -24.7363  -41.2466 C.3       5 UNK         0.0242 
     36 CB         26.6033  -24.2467  -42.6815 C.3       5 UNK        -0.1982 
     37 C          26.7161  -26.2119  -41.0332 C.2       5 UNK         0.5017 
     38 O          27.5661  -26.7281  -41.7605 O.2       5 UNK        -0.5012 
     39 N          26.0813  -26.8590  -40.0439 N.am      6 UNK        -0.4439 
     40 CA         26.1921  -28.2767  -39.6848 C.3       6 UNK         0.0297 
     41 CB         27.6113  -28.6125  -39.1765 C.3       6 UNK        -0.2006 
     42 C          25.7027  -29.2466  -40.7829 C.2       6 UNK         0.4892 
     43 O          26.1546  -30.3933  -40.8155 O.2       6 UNK        -0.5089 
     44 N          24.7768  -28.7978  -41.6465 N.am      7 UNK        -0.4243 
     45 CA         24.0822  -29.6469  -42.6193 C.3       7 UNK         0.0196 
     46 CB         23.2902  -28.7660  -43.5990 C.3       7 UNK        -0.2007 
     47 C          23.1451  -30.6463  -41.9198 C.2       7 UNK         0.5020 
     48 O          22.5844  -30.3274  -40.8693 O.2       7 UNK        -0.5147 
     49 N          22.9729  -31.8225  -42.5278 N.am      8 UNK        -0.4734 
     50 CA         22.1463  -32.9170  -42.0233 C.3       8 UNK         0.0238 
     51 CB         23.0227  -33.8766  -41.1977 C.3       8 UNK        -0.1912 
     52 C          21.4791  -33.6405  -43.1990 C.2       8 UNK         0.5038 
     53 O          21.8887  -33.4488  -44.3476 O.2       8 UNK        -0.5046 
     54 N          20.4731  -34.4647  -42.8823 N.am      9 UNK        -0.4200 
     55 CA         19.6761  -35.2314  -43.8544 C.3       9 UNK         0.0839 
     56 C          20.4132  -36.4331  -44.5174 C.2       9 UNK         0.5513 
     57 N          21.5839  -36.8414  -44.0421 N.am      9 UNK        -0.7519 
     58 O          19.9137  -37.0043  -45.4831 O.2       9 UNK        -0.4960 
     59 C59        18.2998  -35.6515  -43.2522 C.3       10 UNK        -0.0876 
     60 S60        16.9019  -35.1050  -44.2903 S.3       10 UNK        -0.2414 
     61 C61        16.2678  -33.6783  -43.3464 C.3       10 UNK         0.0169 
     62 H62        16.0418  -25.5789  -47.9250 H         1 UNK         0.0903 
     63 H63        15.6208  -24.0564  -47.1383 H         1 UNK         0.0903 
     64 H64        16.5790  -24.0491  -48.6214 H         1 UNK         0.0903 
     65 H65        17.6933  -26.6592  -46.8577 H         1 UNK         0.3096 
     66 H66        20.1545  -25.4116  -46.1063 H         1 UNK         0.1121 
     67 H67        20.7330  -27.6862  -45.2005 H         1 UNK         0.0849 
     68 H68        20.2447  -27.6903  -46.8697 H         1 UNK         0.0849 
     69 H69        19.6292  -30.9031  -45.9756 H         1 UNK         0.0865 
     70 H70        20.5860  -29.9817  -44.8461 H         1 UNK         0.0865 
     71 H71        17.6406  -32.1940  -45.1800 H         1 UNK         0.1346 
     72 H72        17.2258  -32.7805  -40.9505 H         1 UNK         0.1412 
     73 H73        20.0564  -29.9386  -42.4582 H         1 UNK         0.1426 
     74 H74        20.1384  -30.7888  -40.0522 H         1 UNK         0.0716 
     75 H75        18.8228  -31.7509  -39.4369 H         1 UNK         0.0716 
     76 H76        20.3198  -28.8066  -38.6966 H         1 UNK         0.0695 
     77 H77        19.1591  -27.5162  -38.5596 H         1 UNK         0.0695 
     78 H78        20.6572  -28.3664  -41.0722 H         1 UNK         0.0983 
     79 H79        19.1078  -27.4435  -42.3545 H         1 UNK         0.3095 
     80 H80        16.4739  -25.9820  -42.2812 H         1 UNK         0.0454 
     81 H81        18.1964  -23.4480  -42.3681 H         1 UNK         0.0851 
     82 H82        16.7433  -23.6846  -41.4076 H         1 UNK         0.0851 
     83 H83        16.6315  -23.6332  -43.1572 H         1 UNK         0.0851 
     84 H84        17.2741  -26.3490  -44.3176 H         1 UNK         0.2976 
     85 H85        20.8681  -25.4804  -41.8447 H         1 UNK         0.3116 
     86 H86        22.5710  -24.2578  -39.8035 H         1 UNK         0.0646 
     87 H87        21.0721  -22.8946  -41.3024 H         1 UNK         0.0847 
     88 H88        22.7600  -22.4465  -41.4898 H         1 UNK         0.0847 
     89 H89        21.9828  -23.4460  -42.7073 H         1 UNK         0.0847 
     90 H90        24.7880  -23.7090  -40.1979 H         1 UNK         0.3040 
     91 H91        26.9370  -24.1557  -40.5668 H         1 UNK         0.1015 
     92 H92        26.0572  -24.8281  -43.4253 H         1 UNK         0.0786 
     93 H93        27.6648  -24.3313  -42.9179 H         1 UNK         0.0786 
     94 H94        26.3288  -23.1994  -42.8073 H         1 UNK         0.0786 
     95 H95        25.3918  -26.3332  -39.5240 H         1 UNK         0.3172 
     96 H96        25.5077  -28.4200  -38.8473 H         1 UNK         0.0595 
     97 H97        28.3495  -28.5722  -39.9779 H         1 UNK         0.0839 
     98 H98        27.6484  -29.6174  -38.7542 H         1 UNK         0.0839 
     99 H99        27.9271  -27.9235  -38.3933 H         1 UNK         0.0839 
    100 H100       24.4658  -27.8344  -41.5859 H         1 UNK         0.2998 
    101 H101       24.8369  -30.2024  -43.1802 H         1 UNK         0.0822 
    102 H102       22.8370  -29.3689  -44.3858 H         1 UNK         0.0787 
    103 H103       22.4902  -28.2202  -43.0967 H         1 UNK         0.0787 
    104 H104       23.9365  -28.0356  -44.0863 H         1 UNK         0.0787 
    105 H105       23.3820  -31.9896  -43.4388 H         1 UNK         0.3055 
    106 H106       21.3535  -32.5174  -41.3884 H         1 UNK         0.1106 
    107 H107       22.4348  -34.6953  -40.7814 H         1 UNK         0.0828 
    108 H108       23.8171  -34.3166  -41.8019 H         1 UNK         0.0828 
    109 H109       23.4903  -33.3600  -40.3591 H         1 UNK         0.0828 
    110 H110       20.2216  -34.5813  -41.9124 H         1 UNK         0.2931 
    111 H111       19.4908  -34.5385  -44.6780 H         1 UNK         0.0412 
    112 H112       22.0517  -37.6185  -44.4822 H         1 UNK         0.3472 
    113 H113       22.0061  -36.3788  -43.2537 H         1 UNK         0.3472 
    114 H114       18.2232  -36.7332  -43.1236 H         1 UNK         0.0970 
    115 H115       18.1631  -35.2477  -42.2482 H         1 UNK         0.0970 
    116 H116       15.8475  -34.0388  -42.4063 H         1 UNK         0.0612 
    117 H117       15.4420  -33.2295  -43.8998 H         1 UNK         0.0612 
@<TRIPOS>BOND
     1    1    2 1    
     2    1   62 1    
     3    1   63 1    
     4    1   64 1    
     5    2    3 2    
     6    2    4 am   BACKBONE|DICT|INTERRES
     7    4    5 1    
     8    4   65 1    
     9    5    6 1    
    10    5   25 1    
    11    5   66 1    
    12    6    7 1    
    13    6   67 1    
    14    6   68 1    
    15    7    8 1    
    16    8    9 1    
    17    8   69 1    
    18    8   70 1    
    19    9   10 ar   
    20    9   14 ar   
    21   10   11 ar   
    22   10   71 1    
    23   11   12 ar   
    24   11   61 1    
    25   12   13 ar   
    26   12   72 1    
    27   13   14 ar   
    28   13   15 1    
    29   14   73 1    
    30   15   16 1    
    31   15   74 1    
    32   15   75 1    
    33   16   17 1    
    34   17   18 1    
    35   17   76 1    
    36   17   77 1    
    37   18   19 1    
    38   18   27 1    
    39   18   78 1    
    40   19   20 am   BACKBONE|DICT|INTERRES
    41   19   79 1    
    42   20   21 2    
    43   20   22 1    
    44   22   23 1    
    45   22   24 1    
    46   22   80 1    
    47   23   81 1    
    48   23   82 1    
    49   23   83 1    
    50   24   25 am   BACKBONE|DICT|INTERRES
    51   24   84 1    
    52   25   26 2    
    53   27   28 2    
    54   27   29 am   BACKBONE|DICT|INTERRES
    55   29   30 1    
    56   29   85 1    
    57   30   31 1    
    58   30   32 1    
    59   30   86 1    
    60   31   87 1    
    61   31   88 1    
    62   31   89 1    
    63   32   33 2    
    64   32   34 am   BACKBONE|DICT|INTERRES
    65   34   35 1    
    66   34   90 1    
    67   35   36 1    
    68   35   37 1    
    69   35   91 1    
    70   36   92 1    
    71   36   93 1    
    72   36   94 1    
    73   37   38 2    
    74   37   39 am   BACKBONE|DICT|INTERRES
    75   39   40 1    
    76   39   95 1    
    77   40   41 1    
    78   40   42 1    
    79   40   96 1    
    80   41   97 1    
    81   41   98 1    
    82   41   99 1    
    83   42   43 2    
    84   42   44 am   BACKBONE|DICT|INTERRES
    85   44   45 1    
    86   44  100 1    
    87   45   46 1    
    88   45   47 1    
    89   45  101 1    
    90   46  102 1    
    91   46  103 1    
    92   46  104 1    
    93   47   48 2    
    94   47   49 am   BACKBONE|DICT|INTERRES
    95   49   50 1    
    96   49  105 1    
    97   50   51 1    
    98   50   52 1    
    99   50  106 1    
   100   51  107 1    
   101   51  108 1    
   102   51  109 1    
   103   52   53 2    
   104   52   54 am   BACKBONE|DICT|INTERRES
   105   54   55 1    
   106   54  110 1    
   107   55   56 1    
   108   55   59 1    
   109   55  111 1    
   110   56   57 am   BACKBONE|DICT|INTERRES
   111   56   58 2    
   112   57  112 1    
   113   57  113 1    
   114   59   60 1    
   115   59  114 1    
   116   59  115 1    
   117   60   61 1    
   118   61  116 1    
   119   61  117 1    
@<TRIPOS>SUBSTRUCTURE
     1 UNK         1 GROUP             0       ****    0 ROOT    
