@<TRIPOS>MOLECULE
3R8
117   119    1
SMALL
USER_CHARGES


@<TRIPOS>ATOM
      1 CA         11.8650  -27.7319  -41.4046 C.3       0 UNK        -0.2013 
      2 C          13.1103  -27.0792  -41.9862 C.2       0 UNK         0.4866 
      3 O          13.6700  -26.1714  -41.3703 O.2       0 UNK        -0.5176 
      4 N          13.5433  -27.5271  -43.1714 N.am      1 UNK        -0.4884 
      5 CA         14.7649  -27.0664  -43.8383 C.3       1 UNK         0.0853 
      6 C6         14.7451  -27.4319  -45.3423 C.3       10 UNK        -0.0849 
      7 S7         15.9447  -26.4646  -46.3236 S.3       10 UNK        -0.2776 
      8 C8         16.7664  -27.7628  -47.3014 C.3       10 UNK         0.0316 
      9 C9         17.9952  -28.3441  -46.6112 C.ar      10 UNK        -0.0863 
     10 C10        17.8794  -29.4388  -45.7470 C.ar      10 UNK        -0.1009 
     11 C11        19.0206  -30.0376  -45.2018 C.ar      10 UNK        -0.0712 
     12 C12        20.2824  -29.5320  -45.5266 C.ar      10 UNK        -0.0894 
     13 C13        20.4139  -28.4317  -46.3791 C.ar      10 UNK        -0.0745 
     14 C14        19.2646  -27.8351  -46.9074 C.ar      10 UNK        -0.0972 
     15 C15        21.7957  -27.9496  -46.8066 C.3       10 UNK         0.0209 
     16 S16        22.8628  -27.4705  -45.4113 S.3       10 UNK        -0.2568 
     17 C17        22.2162  -25.8174  -44.9720 C.3       10 UNK        -0.0983 
     18 CA         21.8190  -25.6514  -43.4805 C.3       3 UNK         0.0876 
     19 N          20.7018  -26.5068  -43.1008 N.am      3 UNK        -0.4424 
     20 C          19.4152  -26.1698  -43.1954 C.2       2 UNK         0.4918 
     21 O          19.0123  -25.1045  -43.6725 O.2       2 UNK        -0.4875 
     22 CA         18.4124  -27.1783  -42.6281 C.3       2 UNK         0.0481 
     23 CB         18.4465  -27.2056  -41.0875 C.3       2 UNK        -0.1831 
     24 N          17.0828  -26.8281  -43.1082 N.am      2 UNK        -0.4498 
     25 C          16.0162  -27.6313  -43.1359 C.2       1 UNK         0.5027 
     26 O          15.9950  -28.7752  -42.6734 O.2       1 UNK        -0.4969 
     27 C          22.9802  -25.9292  -42.5114 C.2       3 UNK         0.5005 
     28 O          23.0452  -27.0165  -41.9304 O.2       3 UNK        -0.5279 
     29 N          23.8924  -24.9573  -42.3745 N.am      4 UNK        -0.4463 
     30 CA         25.0805  -25.0474  -41.5166 C.3       4 UNK         0.0283 
     31 CB         25.6945  -23.6466  -41.3574 C.3       4 UNK        -0.1875 
     32 C          26.1419  -26.0437  -42.0214 C.2       4 UNK         0.4949 
     33 O          26.9913  -26.4653  -41.2366 O.2       4 UNK        -0.5039 
     34 N          26.0867  -26.3945  -43.3139 N.am      5 UNK        -0.4663 
     35 CA         26.9741  -27.3703  -43.9495 C.3       5 UNK         0.0242 
     36 CB         26.9376  -27.1612  -45.4724 C.3       5 UNK        -0.1982 
     37 C          26.6271  -28.8286  -43.5986 C.2       5 UNK         0.5017 
     38 O          27.4970  -29.6920  -43.7232 O.2       5 UNK        -0.5012 
     39 N          25.3792  -29.0851  -43.1847 N.am      6 UNK        -0.4439 
     40 CA         24.8948  -30.4026  -42.7805 C.3       6 UNK         0.0297 
     41 CB         23.4132  -30.5281  -43.1713 C.3       6 UNK        -0.2006 
     42 C          25.0672  -30.5937  -41.2687 C.2       6 UNK         0.4892 
     43 O          24.9717  -29.6282  -40.5071 O.2       6 UNK        -0.5089 
     44 N          25.2486  -31.8517  -40.8477 N.am      7 UNK        -0.4243 
     45 CA         25.3101  -32.2684  -39.4430 C.3       7 UNK         0.0196 
     46 CB         26.0810  -33.5985  -39.3493 C.3       7 UNK        -0.2007 
     47 C          23.8950  -32.3600  -38.8408 C.2       7 UNK         0.5020 
     48 O          23.4290  -33.4535  -38.5155 O.2       7 UNK        -0.5147 
     49 N          23.2075  -31.2092  -38.7819 N.am      8 UNK        -0.4734 
     50 CA         21.8131  -31.0153  -38.3498 C.3       8 UNK         0.0238 
     51 CB         21.6835  -31.2545  -36.8304 C.3       8 UNK        -0.1912 
     52 C          20.7898  -31.8376  -39.1645 C.2       8 UNK         0.5038 
     53 O          19.7200  -32.1657  -38.6484 O.2       8 UNK        -0.5046 
     54 N          21.1534  -32.1682  -40.4121 N.am      9 UNK        -0.4200 
     55 CA         20.4324  -33.0632  -41.3331 C.3       9 UNK         0.0839 
     56 C          20.3635  -34.5483  -40.8588 C.2       9 UNK         0.5513 
     57 N          21.2027  -34.9887  -39.9272 N.am      9 UNK        -0.7519 
     58 O          19.5607  -35.3280  -41.3654 O.2       9 UNK        -0.4960 
     59 C59        19.0528  -32.5003  -41.7806 C.3       10 UNK        -0.0876 
     60 S60        19.1978  -30.8561  -42.5590 S.3       10 UNK        -0.2414 
     61 C61        18.9020  -31.2633  -44.3062 C.3       10 UNK         0.0169 
     62 H62        12.0956  -28.1873  -40.4419 H         1 UNK         0.0903 
     63 H63        11.0867  -26.9849  -41.2507 H         1 UNK         0.0903 
     64 H64        11.4662  -28.5067  -42.0592 H         1 UNK         0.0903 
     65 H65        13.0654  -28.2997  -43.6133 H         1 UNK         0.3096 
     66 H66        14.7862  -25.9770  -43.7519 H         1 UNK         0.1121 
     67 H67        14.8989  -28.5030  -45.4840 H         1 UNK         0.0849 
     68 H68        13.7599  -27.2186  -45.7604 H         1 UNK         0.0849 
     69 H69        16.0586  -28.5561  -47.5467 H         1 UNK         0.0865 
     70 H70        17.0586  -27.3309  -48.2599 H         1 UNK         0.0865 
     71 H71        16.9033  -29.8431  -45.5180 H         1 UNK         0.1346 
     72 H72        21.1659  -30.0086  -45.1278 H         1 UNK         0.1412 
     73 H73        19.3592  -26.9996  -47.5877 H         1 UNK         0.1426 
     74 H74        21.7250  -27.1154  -47.5063 H         1 UNK         0.0716 
     75 H75        22.2865  -28.7581  -47.3497 H         1 UNK         0.0716 
     76 H76        22.9745  -25.0806  -45.2416 H         1 UNK         0.0695 
     77 H77        21.3541  -25.5884  -45.6004 H         1 UNK         0.0695 
     78 H78        21.5229  -24.6119  -43.3201 H         1 UNK         0.0983 
     79 H79        20.9797  -27.3735  -42.6584 H         1 UNK         0.3095 
     80 H80        18.6740  -28.1569  -43.0252 H         1 UNK         0.0454 
     81 H81        19.4419  -27.4552  -40.7186 H         1 UNK         0.0851 
     82 H82        18.1710  -26.2397  -40.6629 H         1 UNK         0.0851 
     83 H83        17.7636  -27.9549  -40.6875 H         1 UNK         0.0851 
     84 H84        17.0454  -25.9233  -43.5636 H         1 UNK         0.2976 
     85 H85        23.7729  -24.0957  -42.8892 H         1 UNK         0.3116 
     86 H86        24.7588  -25.3918  -40.5312 H         1 UNK         0.0646 
     87 H87        26.5618  -23.6737  -40.6961 H         1 UNK         0.0847 
     88 H88        24.9818  -22.9460  -40.9220 H         1 UNK         0.0847 
     89 H89        26.0279  -23.2396  -42.3129 H         1 UNK         0.0847 
     90 H90        25.3592  -25.9957  -43.8892 H         1 UNK         0.3040 
     91 H91        27.9943  -27.1875  -43.6039 H         1 UNK         0.1015 
     92 H92        27.2456  -26.1510  -45.7426 H         1 UNK         0.0786 
     93 H93        25.9403  -27.3300  -45.8803 H         1 UNK         0.0786 
     94 H94        27.6159  -27.8507  -45.9770 H         1 UNK         0.0786 
     95 H95        24.7509  -28.3083  -43.0209 H         1 UNK         0.3172 
     96 H96        25.4551  -31.1803  -43.3042 H         1 UNK         0.0595 
     97 H97        23.2865  -30.4069  -44.2467 H         1 UNK         0.0839 
     98 H98        22.7953  -29.7778  -42.6750 H         1 UNK         0.0839 
     99 H99        23.0154  -31.5090  -42.9103 H         1 UNK         0.0839 
    100 H100       25.2881  -32.5916  -41.5346 H         1 UNK         0.2998 
    101 H101       25.8637  -31.5212  -38.8698 H         1 UNK         0.0822 
    102 H102       27.0967  -33.4957  -39.7316 H         1 UNK         0.0787 
    103 H103       26.1584  -33.9318  -38.3135 H         1 UNK         0.0787 
    104 H104       25.5895  -34.3936  -39.9117 H         1 UNK         0.0787 
    105 H105       23.6799  -30.3824  -39.1393 H         1 UNK         0.3055 
    106 H106       21.5731  -29.9684  -38.5429 H         1 UNK         0.1106 
    107 H107       21.8465  -32.3011  -36.5711 H         1 UNK         0.0828 
    108 H108       22.4012  -30.6544  -36.2712 H         1 UNK         0.0828 
    109 H109       20.6897  -30.9824  -36.4727 H         1 UNK         0.0828 
    110 H110       22.0569  -31.8538  -40.7286 H         1 UNK         0.2931 
    111 H111       21.0560  -33.1039  -42.2269 H         1 UNK         0.0412 
    112 H112       21.1532  -35.9534  -39.6403 H         1 UNK         0.3472 
    113 H113       21.8819  -34.3715  -39.4953 H         1 UNK         0.3472 
    114 H114       18.5679  -33.1803  -42.4830 H         1 UNK         0.0970 
    115 H115       18.3745  -32.4224  -40.9299 H         1 UNK         0.0970 
    116 H116       17.9129  -31.7131  -44.4054 H         1 UNK         0.0612 
    117 H117       19.6216  -32.0185  -44.6261 H         1 UNK         0.0612 
@<TRIPOS>BOND
     1    1    2 1    
     2    1   62 1    
     3    1   63 1    
     4    1   64 1    
     5    2    3 2    
     6    2    4 am   BACKBONE|DICT|INTERRES
     7    4    5 1    
     8    4   65 1    
     9    5    6 1    
    10    5   25 1    
    11    5   66 1    
    12    6    7 1    
    13    6   67 1    
    14    6   68 1    
    15    7    8 1    
    16    8    9 1    
    17    8   69 1    
    18    8   70 1    
    19    9   10 ar   
    20    9   14 ar   
    21   10   11 ar   
    22   10   71 1    
    23   11   12 ar   
    24   11   61 1    
    25   12   13 ar   
    26   12   72 1    
    27   13   14 ar   
    28   13   15 1    
    29   14   73 1    
    30   15   16 1    
    31   15   74 1    
    32   15   75 1    
    33   16   17 1    
    34   17   18 1    
    35   17   76 1    
    36   17   77 1    
    37   18   19 1    
    38   18   27 1    
    39   18   78 1    
    40   19   20 am   BACKBONE|DICT|INTERRES
    41   19   79 1    
    42   20   21 2    
    43   20   22 1    
    44   22   23 1    
    45   22   24 1    
    46   22   80 1    
    47   23   81 1    
    48   23   82 1    
    49   23   83 1    
    50   24   25 am   BACKBONE|DICT|INTERRES
    51   24   84 1    
    52   25   26 2    
    53   27   28 2    
    54   27   29 am   BACKBONE|DICT|INTERRES
    55   29   30 1    
    56   29   85 1    
    57   30   31 1    
    58   30   32 1    
    59   30   86 1    
    60   31   87 1    
    61   31   88 1    
    62   31   89 1    
    63   32   33 2    
    64   32   34 am   BACKBONE|DICT|INTERRES
    65   34   35 1    
    66   34   90 1    
    67   35   36 1    
    68   35   37 1    
    69   35   91 1    
    70   36   92 1    
    71   36   93 1    
    72   36   94 1    
    73   37   38 2    
    74   37   39 am   BACKBONE|DICT|INTERRES
    75   39   40 1    
    76   39   95 1    
    77   40   41 1    
    78   40   42 1    
    79   40   96 1    
    80   41   97 1    
    81   41   98 1    
    82   41   99 1    
    83   42   43 2    
    84   42   44 am   BACKBONE|DICT|INTERRES
    85   44   45 1    
    86   44  100 1    
    87   45   46 1    
    88   45   47 1    
    89   45  101 1    
    90   46  102 1    
    91   46  103 1    
    92   46  104 1    
    93   47   48 2    
    94   47   49 am   BACKBONE|DICT|INTERRES
    95   49   50 1    
    96   49  105 1    
    97   50   51 1    
    98   50   52 1    
    99   50  106 1    
   100   51  107 1    
   101   51  108 1    
   102   51  109 1    
   103   52   53 2    
   104   52   54 am   BACKBONE|DICT|INTERRES
   105   54   55 1    
   106   54  110 1    
   107   55   56 1    
   108   55   59 1    
   109   55  111 1    
   110   56   57 am   BACKBONE|DICT|INTERRES
   111   56   58 2    
   112   57  112 1    
   113   57  113 1    
   114   59   60 1    
   115   59  114 1    
   116   59  115 1    
   117   60   61 1    
   118   61  116 1    
   119   61  117 1    
@<TRIPOS>SUBSTRUCTURE
     1 UNK         1 GROUP             0       ****    0 ROOT    
