@<TRIPOS>MOLECULE
3R8
117   119    1
SMALL
USER_CHARGES


@<TRIPOS>ATOM
      1 CA         15.4864  -25.9051  -48.0108 C.3       0 UNK        -0.2013 
      2 C          16.7024  -26.1142  -47.1216 C.2       0 UNK         0.4866 
      3 O          17.7098  -26.6565  -47.5757 O.2       0 UNK        -0.5176 
      4 N          16.6312  -25.6683  -45.8611 N.am      1 UNK        -0.4884 
      5 CA         17.6617  -25.8193  -44.8215 C.3       1 UNK         0.0853 
      6 C6         17.0395  -25.7196  -43.4024 C.3       10 UNK        -0.0849 
      7 S7         15.9186  -27.1162  -43.0385 S.3       10 UNK        -0.2776 
      8 C8         16.6345  -27.7963  -41.5019 C.3       10 UNK         0.0316 
      9 C9         17.6931  -28.8684  -41.7470 C.ar      10 UNK        -0.0863 
     10 C10        17.5069  -30.1603  -41.2401 C.ar      10 UNK        -0.1009 
     11 C11        18.4983  -31.1341  -41.3940 C.ar      10 UNK        -0.0712 
     12 C12        19.6713  -30.8206  -42.0811 C.ar      10 UNK        -0.0894 
     13 C13        19.8696  -29.5409  -42.5993 C.ar      10 UNK        -0.0745 
     14 C14        18.8819  -28.5667  -42.4214 C.ar      10 UNK        -0.0972 
     15 C15        21.1838  -29.2040  -43.2822 C.3       10 UNK         0.0209 
     16 S16        20.9570  -28.5504  -44.9577 S.3       10 UNK        -0.2568 
     17 C17        22.6581  -27.9749  -45.3052 C.3       10 UNK        -0.0983 
     18 CA         22.8535  -26.4496  -45.0981 C.3       3 UNK         0.0876 
     19 N          21.8055  -25.6989  -45.7898 N.am      3 UNK        -0.4424 
     20 C          21.8026  -24.3972  -46.0974 C.2       2 UNK         0.4918 
     21 O          22.7677  -23.6501  -45.9405 O.2       2 UNK        -0.4875 
     22 CA         20.4707  -23.8312  -46.6305 C.3       2 UNK         0.0481 
     23 CB         20.5187  -23.6933  -48.1599 C.3       2 UNK        -0.1831 
     24 N          19.2974  -24.6351  -46.2551 N.am      2 UNK        -0.4498 
     25 C          18.8659  -24.8599  -45.0048 C.2       1 UNK         0.5027 
     26 O          19.4208  -24.3733  -44.0174 O.2       1 UNK        -0.4969 
     27 C          23.0114  -26.0778  -43.6009 C.2       3 UNK         0.5005 
     28 O          23.9683  -26.5410  -42.9796 O.2       3 UNK        -0.5279 
     29 N          22.0957  -25.2662  -43.0418 N.am      4 UNK        -0.4463 
     30 CA         22.1555  -24.6427  -41.7114 C.3       4 UNK         0.0283 
     31 CB         23.2794  -23.5854  -41.6692 C.3       4 UNK        -0.1875 
     32 C          22.2393  -25.6476  -40.5450 C.2       4 UNK         0.4949 
     33 O          23.0454  -25.4696  -39.6309 O.2       4 UNK        -0.5039 
     34 N          21.3943  -26.6867  -40.6069 N.am      5 UNK        -0.4663 
     35 CA         21.2299  -27.7646  -39.6170 C.3       5 UNK         0.0242 
     36 CB         20.6903  -27.2056  -38.2830 C.3       5 UNK        -0.1982 
     37 C          22.4676  -28.6684  -39.4235 C.2       5 UNK         0.5017 
     38 O          22.5528  -29.3611  -38.4085 O.2       5 UNK        -0.5012 
     39 N          23.3889  -28.6673  -40.3967 N.am      6 UNK        -0.4439 
     40 CA         24.5177  -29.5939  -40.4955 C.3       6 UNK         0.0297 
     41 CB         25.7459  -28.8192  -41.0156 C.3       6 UNK        -0.2006 
     42 C          24.1232  -30.7969  -41.3786 C.2       6 UNK         0.4892 
     43 O          22.9760  -31.2461  -41.3081 O.2       6 UNK        -0.5089 
     44 N          25.0752  -31.2956  -42.1817 N.am      7 UNK        -0.4243 
     45 CA         24.9478  -32.3008  -43.2457 C.3       7 UNK         0.0196 
     46 CB         24.4979  -31.6144  -44.5546 C.3       7 UNK        -0.2007 
     47 C          24.0914  -33.5311  -42.8815 C.2       7 UNK         0.5020 
     48 O          24.6054  -34.4656  -42.2667 O.2       7 UNK        -0.5147 
     49 N          22.8160  -33.5158  -43.2932 N.am      8 UNK        -0.4734 
     50 CA         21.8595  -34.6178  -43.1710 C.3       8 UNK         0.0238 
     51 CB         20.6195  -34.3006  -44.0246 C.3       8 UNK        -0.1912 
     52 C          21.4453  -34.9820  -41.7336 C.2       8 UNK         0.5038 
     53 O          20.9719  -36.1024  -41.5353 O.2       8 UNK        -0.5046 
     54 N          21.6095  -34.0687  -40.7671 N.am      9 UNK        -0.4200 
     55 CA         21.2948  -34.3266  -39.3502 C.3       9 UNK         0.0839 
     56 C          22.1798  -33.5601  -38.3299 C.2       9 UNK         0.5513 
     57 N          22.9613  -32.5662  -38.7276 N.am      9 UNK        -0.7519 
     58 O          22.1765  -33.8957  -37.1481 O.2       9 UNK        -0.4960 
     59 C59        19.7739  -34.2301  -39.0350 C.3       10 UNK        -0.0876 
     60 S60        19.1039  -32.5340  -39.1263 S.3       10 UNK        -0.2414 
     61 C61        18.3409  -32.5119  -40.7760 C.3       10 UNK         0.0169 
     62 H62        15.7525  -25.2945  -48.8732 H         1 UNK         0.0903 
     63 H63        15.1186  -26.8647  -48.3730 H         1 UNK         0.0903 
     64 H64        14.6736  -25.4089  -47.4808 H         1 UNK         0.0903 
     65 H65        15.7819  -25.2149  -45.5542 H         1 UNK         0.3096 
     66 H66        18.0828  -26.8225  -44.9235 H         1 UNK         0.1121 
     67 H67        16.4805  -24.7880  -43.2976 H         1 UNK         0.0849 
     68 H68        17.8080  -25.6818  -42.6297 H         1 UNK         0.0849 
     69 H69        17.0565  -26.9977  -40.8903 H         1 UNK         0.0865 
     70 H70        15.8143  -28.2105  -40.9135 H         1 UNK         0.0865 
     71 H71        16.6050  -30.4030  -40.6947 H         1 UNK         0.1346 
     72 H72        20.4479  -31.5661  -42.1767 H         1 UNK         0.1412 
     73 H73        19.0514  -27.5718  -42.8016 H         1 UNK         0.1426 
     74 H74        21.7218  -28.4818  -42.6738 H         1 UNK         0.0716 
     75 H75        21.8179  -30.0863  -43.3469 H         1 UNK         0.0716 
     76 H76        23.3806  -28.5524  -44.7247 H         1 UNK         0.0695 
     77 H77        22.8697  -28.2202  -46.3470 H         1 UNK         0.0695 
     78 H78        23.8026  -26.1757  -45.5640 H         1 UNK         0.0983 
     79 H79        20.9679  -26.2290  -45.9833 H         1 UNK         0.3095 
     80 H80        20.3428  -22.8362  -46.1996 H         1 UNK         0.0454 
     81 H81        19.6176  -23.2151  -48.5440 H         1 UNK         0.0851 
     82 H82        21.3660  -23.0805  -48.4710 H         1 UNK         0.0851 
     83 H83        20.6197  -24.6626  -48.6500 H         1 UNK         0.0851 
     84 H84        18.8142  -25.1281  -47.0004 H         1 UNK         0.2976 
     85 H85        21.3072  -24.9714  -43.6097 H         1 UNK         0.3116 
     86 H86        21.2090  -24.1148  -41.5845 H         1 UNK         0.0646 
     87 H87        23.2569  -23.0260  -40.7332 H         1 UNK         0.0847 
     88 H88        23.1753  -22.8633  -42.4791 H         1 UNK         0.0847 
     89 H89        24.2665  -24.0417  -41.7515 H         1 UNK         0.0847 
     90 H90        20.7804  -26.7325  -41.4069 H         1 UNK         0.3040 
     91 H91        20.4596  -28.4266  -40.0141 H         1 UNK         0.1015 
     92 H92        21.4311  -26.5901  -37.7720 H         1 UNK         0.0786 
     93 H93        20.4148  -28.0125  -37.6028 H         1 UNK         0.0786 
     94 H94        19.7979  -26.5996  -38.4388 H         1 UNK         0.0786 
     95 H95        23.2612  -28.0346  -41.1749 H         1 UNK         0.3172 
     96 H96        24.7632  -29.9857  -39.5067 H         1 UNK         0.0595 
     97 H97        25.6201  -28.5024  -42.0521 H         1 UNK         0.0839 
     98 H98        26.6545  -29.4192  -40.9553 H         1 UNK         0.0839 
     99 H99        25.9235  -27.9229  -40.4204 H         1 UNK         0.0839 
    100 H100       25.9942  -30.8838  -42.1017 H         1 UNK         0.2998 
    101 H101       25.9547  -32.6850  -43.4179 H         1 UNK         0.0822 
    102 H102       25.2270  -30.8699  -44.8749 H         1 UNK         0.0787 
    103 H103       24.4040  -32.3367  -45.3670 H         1 UNK         0.0787 
    104 H104       23.5404  -31.1068  -44.4512 H         1 UNK         0.0787 
    105 H105       22.4893  -32.6859  -43.7652 H         1 UNK         0.3055 
    106 H106       22.3369  -35.5074  -43.5882 H         1 UNK         0.1106 
    107 H107       19.8965  -35.1166  -43.9828 H         1 UNK         0.0828 
    108 H108       20.1096  -33.3993  -43.6850 H         1 UNK         0.0828 
    109 H109       20.8839  -34.1619  -45.0730 H         1 UNK         0.0828 
    110 H110       22.0198  -33.1712  -40.9933 H         1 UNK         0.2931 
    111 H111       21.5733  -35.3666  -39.1666 H         1 UNK         0.0412 
    112 H112       23.5039  -32.0790  -38.0327 H         1 UNK         0.3472 
    113 H113       22.9182  -32.1958  -39.6691 H         1 UNK         0.3472 
    114 H114       19.2059  -34.8865  -39.6956 H         1 UNK         0.0970 
    115 H115       19.5830  -34.6072  -38.0288 H         1 UNK         0.0970 
    116 H116       18.8074  -33.2578  -41.4207 H         1 UNK         0.0612 
    117 H117       17.2878  -32.7843  -40.6943 H         1 UNK         0.0612 
@<TRIPOS>BOND
     1    1    2 1    
     2    1   62 1    
     3    1   63 1    
     4    1   64 1    
     5    2    3 2    
     6    2    4 am   BACKBONE|DICT|INTERRES
     7    4    5 1    
     8    4   65 1    
     9    5    6 1    
    10    5   25 1    
    11    5   66 1    
    12    6    7 1    
    13    6   67 1    
    14    6   68 1    
    15    7    8 1    
    16    8    9 1    
    17    8   69 1    
    18    8   70 1    
    19    9   10 ar   
    20    9   14 ar   
    21   10   11 ar   
    22   10   71 1    
    23   11   12 ar   
    24   11   61 1    
    25   12   13 ar   
    26   12   72 1    
    27   13   14 ar   
    28   13   15 1    
    29   14   73 1    
    30   15   16 1    
    31   15   74 1    
    32   15   75 1    
    33   16   17 1    
    34   17   18 1    
    35   17   76 1    
    36   17   77 1    
    37   18   19 1    
    38   18   27 1    
    39   18   78 1    
    40   19   20 am   BACKBONE|DICT|INTERRES
    41   19   79 1    
    42   20   21 2    
    43   20   22 1    
    44   22   23 1    
    45   22   24 1    
    46   22   80 1    
    47   23   81 1    
    48   23   82 1    
    49   23   83 1    
    50   24   25 am   BACKBONE|DICT|INTERRES
    51   24   84 1    
    52   25   26 2    
    53   27   28 2    
    54   27   29 am   BACKBONE|DICT|INTERRES
    55   29   30 1    
    56   29   85 1    
    57   30   31 1    
    58   30   32 1    
    59   30   86 1    
    60   31   87 1    
    61   31   88 1    
    62   31   89 1    
    63   32   33 2    
    64   32   34 am   BACKBONE|DICT|INTERRES
    65   34   35 1    
    66   34   90 1    
    67   35   36 1    
    68   35   37 1    
    69   35   91 1    
    70   36   92 1    
    71   36   93 1    
    72   36   94 1    
    73   37   38 2    
    74   37   39 am   BACKBONE|DICT|INTERRES
    75   39   40 1    
    76   39   95 1    
    77   40   41 1    
    78   40   42 1    
    79   40   96 1    
    80   41   97 1    
    81   41   98 1    
    82   41   99 1    
    83   42   43 2    
    84   42   44 am   BACKBONE|DICT|INTERRES
    85   44   45 1    
    86   44  100 1    
    87   45   46 1    
    88   45   47 1    
    89   45  101 1    
    90   46  102 1    
    91   46  103 1    
    92   46  104 1    
    93   47   48 2    
    94   47   49 am   BACKBONE|DICT|INTERRES
    95   49   50 1    
    96   49  105 1    
    97   50   51 1    
    98   50   52 1    
    99   50  106 1    
   100   51  107 1    
   101   51  108 1    
   102   51  109 1    
   103   52   53 2    
   104   52   54 am   BACKBONE|DICT|INTERRES
   105   54   55 1    
   106   54  110 1    
   107   55   56 1    
   108   55   59 1    
   109   55  111 1    
   110   56   57 am   BACKBONE|DICT|INTERRES
   111   56   58 2    
   112   57  112 1    
   113   57  113 1    
   114   59   60 1    
   115   59  114 1    
   116   59  115 1    
   117   60   61 1    
   118   61  116 1    
   119   61  117 1    
@<TRIPOS>SUBSTRUCTURE
     1 UNK         1 GROUP             0       ****    0 ROOT    
