@<TRIPOS>MOLECULE
3R8
117   119    1
SMALL
USER_CHARGES


@<TRIPOS>ATOM
      1 CA         15.7845  -28.3162  -39.7883 C.3       0 UNK        -0.2013 
      2 C          15.8489  -27.5959  -41.1267 C.2       0 UNK         0.4866 
      3 O          15.2565  -26.5267  -41.2793 O.2       0 UNK        -0.5176 
      4 N          16.5604  -28.1771  -42.0969 N.am      1 UNK        -0.4884 
      5 CA         16.8178  -27.5989  -43.4178 C.3       1 UNK         0.0853 
      6 C6         17.2182  -28.6900  -44.4389 C.3       10 UNK        -0.0849 
      7 S7         15.9205  -29.9461  -44.6988 S.3       10 UNK        -0.2776 
      8 C8         16.5471  -30.7895  -46.1890 C.3       10 UNK         0.0316 
      9 C9         17.9553  -31.3271  -45.9779 C.ar      10 UNK        -0.0863 
     10 C10        18.1567  -32.5197  -45.2789 C.ar      10 UNK        -0.1009 
     11 C11        19.4506  -32.9928  -45.0429 C.ar      10 UNK        -0.0712 
     12 C12        20.5471  -32.2590  -45.5096 C.ar      10 UNK        -0.0894 
     13 C13        20.3600  -31.0689  -46.2219 C.ar      10 UNK        -0.0745 
     14 C14        19.0582  -30.6190  -46.4647 C.ar      10 UNK        -0.0972 
     15 C15        21.5627  -30.3028  -46.7681 C.3       10 UNK         0.0209 
     16 S16        21.4982  -28.5057  -46.4486 S.3       10 UNK        -0.2568 
     17 C17        22.0073  -28.4324  -44.7021 C.3       10 UNK        -0.0983 
     18 CA         22.1754  -26.9762  -44.1919 C.3       3 UNK         0.0876 
     19 N          20.8927  -26.2731  -44.1244 N.am      3 UNK        -0.4424 
     20 C          20.4791  -25.2640  -44.8945 C.2       2 UNK         0.4918 
     21 O          21.1456  -24.7897  -45.8154 O.2       2 UNK        -0.4875 
     22 CA         19.0856  -24.6801  -44.5576 C.3       2 UNK         0.0481 
     23 CB         18.6034  -23.6649  -45.6105 C.3       2 UNK        -0.1831 
     24 N          18.0470  -25.7044  -44.3759 N.am      2 UNK        -0.4498 
     25 C          17.9333  -26.5380  -43.3313 C.2       1 UNK         0.5027 
     26 O          18.7148  -26.5301  -42.3745 O.2       1 UNK        -0.4969 
     27 C          22.8564  -26.8991  -42.8069 C.2       3 UNK         0.5005 
     28 O          23.5689  -27.8241  -42.4079 O.2       3 UNK        -0.5279 
     29 N          22.6166  -25.7935  -42.0829 N.am      4 UNK        -0.4463 
     30 CA         23.1610  -25.4979  -40.7566 C.3       4 UNK         0.0283 
     31 CB         22.6156  -24.1452  -40.2730 C.3       4 UNK        -0.1875 
     32 C          24.6974  -25.4991  -40.7436 C.2       4 UNK         0.4949 
     33 O          25.3172  -24.9959  -41.6820 O.2       4 UNK        -0.5039 
     34 N          25.2638  -26.0960  -39.6872 N.am      5 UNK        -0.4663 
     35 CA         26.6901  -26.3648  -39.4484 C.3       5 UNK         0.0242 
     36 CB         27.5332  -25.0724  -39.4879 C.3       5 UNK        -0.1982 
     37 C          27.2971  -27.4731  -40.3346 C.2       5 UNK         0.5017 
     38 O          28.4304  -27.8761  -40.0678 O.2       5 UNK        -0.5012 
     39 N          26.5514  -27.9747  -41.3299 N.am      6 UNK        -0.4439 
     40 CA         26.9138  -29.1375  -42.1382 C.3       6 UNK         0.0297 
     41 CB         26.6370  -28.8610  -43.6279 C.3       6 UNK        -0.2006 
     42 C          26.1487  -30.3640  -41.6252 C.2       6 UNK         0.4892 
     43 O          26.7760  -31.2872  -41.1051 O.2       6 UNK        -0.5089 
     44 N          24.8155  -30.3311  -41.7487 N.am      7 UNK        -0.4243 
     45 CA         23.8716  -31.3686  -41.3358 C.3       7 UNK         0.0196 
     46 CB         24.1508  -32.7161  -42.0423 C.3       7 UNK        -0.2007 
     47 C          22.4685  -30.8572  -41.6740 C.2       7 UNK         0.5020 
     48 O          22.0072  -31.0677  -42.7933 O.2       7 UNK        -0.5147 
     49 N          21.8286  -30.1580  -40.7264 N.am      8 UNK        -0.4734 
     50 CA         20.4897  -29.5779  -40.9068 C.3       8 UNK         0.0238 
     51 CB         20.2160  -28.5523  -39.7955 C.3       8 UNK        -0.1912 
     52 C          19.3599  -30.6220  -40.9661 C.2       8 UNK         0.5038 
     53 O          18.3033  -30.3239  -41.5218 O.2       8 UNK        -0.5046 
     54 N          19.5955  -31.8080  -40.3872 N.am      9 UNK        -0.4200 
     55 CA         18.6954  -32.9755  -40.4038 C.3       9 UNK         0.0839 
     56 C          17.3416  -32.7703  -39.6564 C.2       9 UNK         0.5513 
     57 N          17.2386  -31.8194  -38.7352 N.am      9 UNK        -0.7519 
     58 O          16.3813  -33.5025  -39.8828 O.2       9 UNK        -0.4960 
     59 C59        18.5192  -33.5702  -41.8314 C.3       10 UNK        -0.0876 
     60 S60        20.1121  -34.0811  -42.5642 S.3       10 UNK        -0.2414 
     61 C61        19.6630  -34.3120  -44.3120 C.3       10 UNK         0.0169 
     62 H62        14.7474  -28.4917  -39.5042 H         1 UNK         0.0903 
     63 H63        16.2929  -29.2796  -39.8237 H         1 UNK         0.0903 
     64 H64        16.2552  -27.7118  -39.0136 H         1 UNK         0.0903 
     65 H65        17.0752  -29.0347  -41.8989 H         1 UNK         0.3096 
     66 H66        15.9078  -27.1050  -43.7661 H         1 UNK         0.1121 
     67 H67        18.1276  -29.1986  -44.1098 H         1 UNK         0.0849 
     68 H68        17.4491  -28.2450  -45.4086 H         1 UNK         0.0849 
     69 H69        15.8741  -31.6091  -46.4451 H         1 UNK         0.0865 
     70 H70        16.5206  -30.0991  -47.0336 H         1 UNK         0.0865 
     71 H71        17.3042  -33.0733  -44.9097 H         1 UNK         0.1346 
     72 H72        21.5481  -32.6203  -45.3169 H         1 UNK         0.1412 
     73 H73        18.9055  -29.7026  -47.0181 H         1 UNK         0.1426 
     74 H74        21.6048  -30.4594  -47.8466 H         1 UNK         0.0716 
     75 H75        22.4944  -30.7020  -46.3639 H         1 UNK         0.0716 
     76 H76        22.9400  -28.9917  -44.6086 H         1 UNK         0.0695 
     77 H77        21.2625  -28.9626  -44.1082 H         1 UNK         0.0695 
     78 H78        22.8488  -26.4530  -44.8741 H         1 UNK         0.0983 
     79 H79        20.2689  -26.5570  -43.3720 H         1 UNK         0.3095 
     80 H80        19.1940  -24.1427  -43.6133 H         1 UNK         0.0454 
     81 H81        18.4859  -24.1264  -46.5917 H         1 UNK         0.0851 
     82 H82        19.3140  -22.8444  -45.7194 H         1 UNK         0.0851 
     83 H83        17.6475  -23.2229  -45.3293 H         1 UNK         0.0851 
     84 H84        17.3914  -25.7999  -45.1385 H         1 UNK         0.2976 
     85 H85        22.0460  -25.0749  -42.5025 H         1 UNK         0.3116 
     86 H86        22.8044  -26.2761  -40.0798 H         1 UNK         0.0646 
     87 H87        21.5266  -24.1497  -40.2218 H         1 UNK         0.0847 
     88 H88        22.9193  -23.3296  -40.9307 H         1 UNK         0.0847 
     89 H89        22.9839  -23.9102  -39.2734 H         1 UNK         0.0847 
     90 H90        24.6443  -26.4747  -38.9827 H         1 UNK         0.3040 
     91 H91        26.7438  -26.7498  -38.4286 H         1 UNK         0.1015 
     92 H92        27.6142  -24.6659  -40.4962 H         1 UNK         0.0786 
     93 H93        28.5490  -25.2611  -39.1379 H         1 UNK         0.0786 
     94 H94        27.1092  -24.3004  -38.8458 H         1 UNK         0.0786 
     95 H95        25.6239  -27.5955  -41.4781 H         1 UNK         0.3172 
     96 H96        27.9810  -29.3490  -42.0433 H         1 UNK         0.0595 
     97 H97        25.5932  -28.6202  -43.8254 H         1 UNK         0.0839 
     98 H98        26.8893  -29.7306  -44.2362 H         1 UNK         0.0839 
     99 H99        27.2406  -28.0285  -43.9895 H         1 UNK         0.0839 
    100 H100       24.3807  -29.4954  -42.1397 H         1 UNK         0.2998 
    101 H101       23.9490  -31.5107  -40.2563 H         1 UNK         0.0822 
    102 H102       25.0748  -33.1758  -41.6936 H         1 UNK         0.0787 
    103 H103       23.3494  -33.4305  -41.8478 H         1 UNK         0.0787 
    104 H104       24.2227  -32.5963  -43.1240 H         1 UNK         0.0787 
    105 H105       22.2848  -29.9962  -39.8397 H         1 UNK         0.3055 
    106 H106       20.4758  -29.0478  -41.8613 H         1 UNK         0.1106 
    107 H107       20.2355  -29.0089  -38.8055 H         1 UNK         0.0828 
    108 H108       19.2351  -28.0919  -39.9256 H         1 UNK         0.0828 
    109 H109       20.9486  -27.7465  -39.8122 H         1 UNK         0.0828 
    110 H110       20.4909  -31.9495  -39.9452 H         1 UNK         0.2931 
    111 H111       19.2082  -33.7332  -39.8104 H         1 UNK         0.0412 
    112 H112       16.3678  -31.7034  -38.2414 H         1 UNK         0.3472 
    113 H113       18.0247  -31.2269  -38.5235 H         1 UNK         0.3472 
    114 H114       18.0304  -32.8443  -42.4821 H         1 UNK         0.0970 
    115 H115       17.8719  -34.4485  -41.8106 H         1 UNK         0.0970 
    116 H116       20.4612  -34.8696  -44.8038 H         1 UNK         0.0612 
    117 H117       18.7718  -34.9382  -44.3766 H         1 UNK         0.0612 
@<TRIPOS>BOND
     1    1    2 1    
     2    1   62 1    
     3    1   63 1    
     4    1   64 1    
     5    2    3 2    
     6    2    4 am   BACKBONE|DICT|INTERRES
     7    4    5 1    
     8    4   65 1    
     9    5    6 1    
    10    5   25 1    
    11    5   66 1    
    12    6    7 1    
    13    6   67 1    
    14    6   68 1    
    15    7    8 1    
    16    8    9 1    
    17    8   69 1    
    18    8   70 1    
    19    9   10 ar   
    20    9   14 ar   
    21   10   11 ar   
    22   10   71 1    
    23   11   12 ar   
    24   11   61 1    
    25   12   13 ar   
    26   12   72 1    
    27   13   14 ar   
    28   13   15 1    
    29   14   73 1    
    30   15   16 1    
    31   15   74 1    
    32   15   75 1    
    33   16   17 1    
    34   17   18 1    
    35   17   76 1    
    36   17   77 1    
    37   18   19 1    
    38   18   27 1    
    39   18   78 1    
    40   19   20 am   BACKBONE|DICT|INTERRES
    41   19   79 1    
    42   20   21 2    
    43   20   22 1    
    44   22   23 1    
    45   22   24 1    
    46   22   80 1    
    47   23   81 1    
    48   23   82 1    
    49   23   83 1    
    50   24   25 am   BACKBONE|DICT|INTERRES
    51   24   84 1    
    52   25   26 2    
    53   27   28 2    
    54   27   29 am   BACKBONE|DICT|INTERRES
    55   29   30 1    
    56   29   85 1    
    57   30   31 1    
    58   30   32 1    
    59   30   86 1    
    60   31   87 1    
    61   31   88 1    
    62   31   89 1    
    63   32   33 2    
    64   32   34 am   BACKBONE|DICT|INTERRES
    65   34   35 1    
    66   34   90 1    
    67   35   36 1    
    68   35   37 1    
    69   35   91 1    
    70   36   92 1    
    71   36   93 1    
    72   36   94 1    
    73   37   38 2    
    74   37   39 am   BACKBONE|DICT|INTERRES
    75   39   40 1    
    76   39   95 1    
    77   40   41 1    
    78   40   42 1    
    79   40   96 1    
    80   41   97 1    
    81   41   98 1    
    82   41   99 1    
    83   42   43 2    
    84   42   44 am   BACKBONE|DICT|INTERRES
    85   44   45 1    
    86   44  100 1    
    87   45   46 1    
    88   45   47 1    
    89   45  101 1    
    90   46  102 1    
    91   46  103 1    
    92   46  104 1    
    93   47   48 2    
    94   47   49 am   BACKBONE|DICT|INTERRES
    95   49   50 1    
    96   49  105 1    
    97   50   51 1    
    98   50   52 1    
    99   50  106 1    
   100   51  107 1    
   101   51  108 1    
   102   51  109 1    
   103   52   53 2    
   104   52   54 am   BACKBONE|DICT|INTERRES
   105   54   55 1    
   106   54  110 1    
   107   55   56 1    
   108   55   59 1    
   109   55  111 1    
   110   56   57 am   BACKBONE|DICT|INTERRES
   111   56   58 2    
   112   57  112 1    
   113   57  113 1    
   114   59   60 1    
   115   59  114 1    
   116   59  115 1    
   117   60   61 1    
   118   61  116 1    
   119   61  117 1    
@<TRIPOS>SUBSTRUCTURE
     1 UNK         1 GROUP             0       ****    0 ROOT    
