@<TRIPOS>MOLECULE
3R8
117   119    1
SMALL
USER_CHARGES


@<TRIPOS>ATOM
      1 CA         17.9200  -26.2561  -41.2778 C.3       0 UNK        -0.2013 
      2 C          17.8624  -26.3489  -42.7933 C.2       0 UNK         0.4866 
      3 O          18.9002  -26.4773  -43.4435 O.2       0 UNK        -0.5176 
      4 N          16.6493  -26.2663  -43.3549 N.am      1 UNK        -0.4884 
      5 CA         16.3456  -26.3483  -44.7917 C.3       1 UNK         0.0853 
      6 C6         16.5246  -27.7838  -45.3705 C.3       10 UNK        -0.0849 
      7 S7         15.5787  -29.0379  -44.4317 S.3       10 UNK        -0.2776 
      8 C8         16.6508  -30.5142  -44.5173 C.3       10 UNK         0.0316 
      9 C9         18.0496  -30.2647  -43.9675 C.ar      10 UNK        -0.0863 
     10 C10        18.2415  -29.9938  -42.6089 C.ar      10 UNK        -0.1009 
     11 C11        19.5207  -29.7180  -42.1144 C.ar      10 UNK        -0.0712 
     12 C12        20.6099  -29.7275  -42.9881 C.ar      10 UNK        -0.0894 
     13 C13        20.4344  -30.0139  -44.3450 C.ar      10 UNK        -0.0745 
     14 C14        19.1525  -30.2875  -44.8272 C.ar      10 UNK        -0.0972 
     15 C15        21.6259  -30.0207  -45.2931 C.3       10 UNK         0.0209 
     16 S16        21.7423  -28.4883  -46.2723 S.3       10 UNK        -0.2568 
     17 C17        22.1016  -27.2564  -44.9749 C.3       10 UNK        -0.0983 
     18 CA         21.8246  -25.7970  -45.4106 C.3       3 UNK         0.0876 
     19 N          20.4778  -25.6341  -45.9685 N.am      3 UNK        -0.4424 
     20 C          20.1129  -24.6608  -46.8136 C.2       2 UNK         0.4918 
     21 O          20.8610  -23.7462  -47.1604 O.2       2 UNK        -0.4875 
     22 CA         18.6920  -24.7266  -47.4091 C.3       2 UNK         0.0481 
     23 CB         18.7530  -25.2045  -48.8693 C.3       2 UNK        -0.1831 
     24 N          17.7982  -25.6132  -46.6590 N.am      2 UNK        -0.4498 
     25 C          17.1070  -25.2466  -45.5706 C.2       1 UNK         0.5027 
     26 O          17.0685  -24.0859  -45.1543 O.2       1 UNK        -0.4969 
     27 C          22.0689  -24.8580  -44.2140 C.2       3 UNK         0.5005 
     28 O          23.2029  -24.4279  -44.0034 O.2       3 UNK        -0.5279 
     29 N          21.0102  -24.6117  -43.4284 N.am      4 UNK        -0.4463 
     30 CA         20.9387  -23.9106  -42.1395 C.3       4 UNK         0.0283 
     31 CB         21.6143  -22.5257  -42.1687 C.3       4 UNK        -0.1875 
     32 C          21.4284  -24.7626  -40.9546 C.2       4 UNK         0.4949 
     33 O          20.8551  -24.6538  -39.8708 O.2       4 UNK        -0.5039 
     34 N          22.4339  -25.6164  -41.1719 N.am      5 UNK        -0.4663 
     35 CA         22.9549  -26.5916  -40.2176 C.3       5 UNK         0.0242 
     36 CB         23.8486  -25.8925  -39.1750 C.3       5 UNK        -0.1982 
     37 C          23.7469  -27.6584  -40.9831 C.2       5 UNK         0.5017 
     38 O          24.2288  -27.3839  -42.0848 O.2       5 UNK        -0.5012 
     39 N          23.8972  -28.8371  -40.3725 N.am      6 UNK        -0.4439 
     40 CA         24.7251  -29.9480  -40.8344 C.3       6 UNK         0.0297 
     41 CB         24.0671  -30.6700  -42.0264 C.3       6 UNK        -0.2006 
     42 C          24.9313  -30.9139  -39.6628 C.2       6 UNK         0.4892 
     43 O          24.2024  -30.8389  -38.6699 O.2       6 UNK        -0.5089 
     44 N          25.9040  -31.8213  -39.8120 N.am      7 UNK        -0.4243 
     45 CA         26.1706  -32.9066  -38.8618 C.3       7 UNK         0.0196 
     46 CB         27.5903  -33.4470  -39.1005 C.3       7 UNK        -0.2007 
     47 C          25.1408  -34.0497  -38.9467 C.2       7 UNK         0.5020 
     48 O          24.9978  -34.8025  -37.9831 O.2       7 UNK        -0.5147 
     49 N          24.4531  -34.1674  -40.0891 N.am      8 UNK        -0.4734 
     50 CA         23.4407  -35.1808  -40.3691 C.3       8 UNK         0.0238 
     51 CB         24.0959  -36.3842  -41.0754 C.3       8 UNK        -0.1912 
     52 C          22.3224  -34.5348  -41.1963 C.2       8 UNK         0.5038 
     53 O          22.2624  -34.7322  -42.4113 O.2       8 UNK        -0.5046 
     54 N          21.4878  -33.7346  -40.5228 N.am      9 UNK        -0.4200 
     55 CA         20.2906  -33.0879  -41.0833 C.3       9 UNK         0.0839 
     56 C          19.2412  -34.0999  -41.6189 C.2       9 UNK         0.5513 
     57 N          18.5142  -33.7343  -42.6658 N.am      9 UNK        -0.7519 
     58 O          19.0500  -35.1825  -41.0682 O.2       9 UNK        -0.4960 
     59 C59        19.6398  -32.1357  -40.0472 C.3       10 UNK        -0.0876 
     60 S60        20.6712  -30.6612  -39.7551 S.3       10 UNK        -0.2414 
     61 C61        19.7269  -29.3816  -40.6434 C.3       10 UNK         0.0169 
     62 H62        17.2055  -26.9398  -40.8201 H         1 UNK         0.0903 
     63 H63        18.9135  -26.5140  -40.9153 H         1 UNK         0.0903 
     64 H64        17.6950  -25.2418  -40.9494 H         1 UNK         0.0903 
     65 H65        15.8447  -26.1323  -42.7588 H         1 UNK         0.3096 
     66 H66        15.2903  -26.0892  -44.8909 H         1 UNK         0.1121 
     67 H67        17.5808  -28.0531  -45.3773 H         1 UNK         0.0849 
     68 H68        16.1830  -27.8289  -46.4061 H         1 UNK         0.0849 
     69 H69        16.6960  -30.8562  -45.5525 H         1 UNK         0.0865 
     70 H70        16.1846  -31.3219  -43.9514 H         1 UNK         0.0865 
     71 H71        17.3885  -29.9711  -41.9448 H         1 UNK         0.1346 
     72 H72        21.5932  -29.4943  -42.6081 H         1 UNK         0.1412 
     73 H73        19.0146  -30.4945  -45.8798 H         1 UNK         0.1426 
     74 H74        21.5396  -30.8674  -45.9756 H         1 UNK         0.0716 
     75 H75        22.5563  -30.1690  -44.7453 H         1 UNK         0.0716 
     76 H76        23.1449  -27.3754  -44.6762 H         1 UNK         0.0695 
     77 H77        21.5039  -27.4890  -44.0939 H         1 UNK         0.0695 
     78 H78        22.5491  -25.5344  -46.1848 H         1 UNK         0.0983 
     79 H79        19.7993  -26.3287  -45.6889 H         1 UNK         0.3095 
     80 H80        18.2847  -23.7134  -47.4048 H         1 UNK         0.0454 
     81 H81        19.1666  -26.2106  -48.9498 H         1 UNK         0.0851 
     82 H82        19.3822  -24.5458  -49.4696 H         1 UNK         0.0851 
     83 H83        17.7640  -25.2089  -49.3277 H         1 UNK         0.0851 
     84 H84        17.7733  -26.5794  -46.9509 H         1 UNK         0.2976 
     85 H85        20.1646  -25.1341  -43.6551 H         1 UNK         0.3116 
     86 H86        19.8733  -23.7422  -41.9744 H         1 UNK         0.0646 
     87 H87        21.3918  -21.9707  -41.2566 H         1 UNK         0.0847 
     88 H88        21.2601  -21.9273  -43.0080 H         1 UNK         0.0847 
     89 H89        22.6996  -22.5989  -42.2395 H         1 UNK         0.0847 
     90 H90        22.8723  -25.6457  -42.0867 H         1 UNK         0.3040 
     91 H91        22.1156  -27.0764  -39.7142 H         1 UNK         0.1015 
     92 H92        23.2891  -25.1585  -38.5949 H         1 UNK         0.0786 
     93 H93        24.6861  -25.3771  -39.6470 H         1 UNK         0.0786 
     94 H94        24.2636  -26.6108  -38.4669 H         1 UNK         0.0786 
     95 H95        23.4918  -28.9987  -39.4568 H         1 UNK         0.3172 
     96 H96        25.6997  -29.5568  -41.1339 H         1 UNK         0.0595 
     97 H97        23.0983  -31.0926  -41.7569 H         1 UNK         0.0839 
     98 H98        24.6893  -31.4890  -42.3878 H         1 UNK         0.0839 
     99 H99        23.9245  -29.9921  -42.8665 H         1 UNK         0.0839 
    100 H100       26.4709  -31.7999  -40.6482 H         1 UNK         0.2998 
    101 H101       26.1258  -32.5005  -37.8486 H         1 UNK         0.0822 
    102 H102       28.3392  -32.6641  -38.9783 H         1 UNK         0.0787 
    103 H103       27.8316  -34.2372  -38.3880 H         1 UNK         0.0787 
    104 H104       27.7010  -33.8666  -40.1013 H         1 UNK         0.0787 
    105 H105       24.6143  -33.4906  -40.8213 H         1 UNK         0.3055 
    106 H106       22.9925  -35.5354  -39.4376 H         1 UNK         0.1106 
    107 H107       23.3517  -37.1404  -41.3284 H         1 UNK         0.0828 
    108 H108       24.5923  -36.0902  -42.0010 H         1 UNK         0.0828 
    109 H109       24.8383  -36.8616  -40.4357 H         1 UNK         0.0828 
    110 H110       21.6361  -33.6007  -39.5338 H         1 UNK         0.2931 
    111 H111       20.6270  -32.4943  -41.9359 H         1 UNK         0.0412 
    112 H112       18.6595  -32.8393  -43.1082 H         1 UNK         0.3472 
    113 H113       17.8151  -34.3662  -43.0236 H         1 UNK         0.3472 
    114 H114       19.4807  -32.6496  -39.0976 H         1 UNK         0.0970 
    115 H115       18.6493  -31.8130  -40.3730 H         1 UNK         0.0970 
    116 H116       18.7703  -29.2308  -40.1409 H         1 UNK         0.0612 
    117 H117       20.2670  -28.4379  -40.5684 H         1 UNK         0.0612 
@<TRIPOS>BOND
     1    1    2 1    
     2    1   62 1    
     3    1   63 1    
     4    1   64 1    
     5    2    3 2    
     6    2    4 am   BACKBONE|DICT|INTERRES
     7    4    5 1    
     8    4   65 1    
     9    5    6 1    
    10    5   25 1    
    11    5   66 1    
    12    6    7 1    
    13    6   67 1    
    14    6   68 1    
    15    7    8 1    
    16    8    9 1    
    17    8   69 1    
    18    8   70 1    
    19    9   10 ar   
    20    9   14 ar   
    21   10   11 ar   
    22   10   71 1    
    23   11   12 ar   
    24   11   61 1    
    25   12   13 ar   
    26   12   72 1    
    27   13   14 ar   
    28   13   15 1    
    29   14   73 1    
    30   15   16 1    
    31   15   74 1    
    32   15   75 1    
    33   16   17 1    
    34   17   18 1    
    35   17   76 1    
    36   17   77 1    
    37   18   19 1    
    38   18   27 1    
    39   18   78 1    
    40   19   20 am   BACKBONE|DICT|INTERRES
    41   19   79 1    
    42   20   21 2    
    43   20   22 1    
    44   22   23 1    
    45   22   24 1    
    46   22   80 1    
    47   23   81 1    
    48   23   82 1    
    49   23   83 1    
    50   24   25 am   BACKBONE|DICT|INTERRES
    51   24   84 1    
    52   25   26 2    
    53   27   28 2    
    54   27   29 am   BACKBONE|DICT|INTERRES
    55   29   30 1    
    56   29   85 1    
    57   30   31 1    
    58   30   32 1    
    59   30   86 1    
    60   31   87 1    
    61   31   88 1    
    62   31   89 1    
    63   32   33 2    
    64   32   34 am   BACKBONE|DICT|INTERRES
    65   34   35 1    
    66   34   90 1    
    67   35   36 1    
    68   35   37 1    
    69   35   91 1    
    70   36   92 1    
    71   36   93 1    
    72   36   94 1    
    73   37   38 2    
    74   37   39 am   BACKBONE|DICT|INTERRES
    75   39   40 1    
    76   39   95 1    
    77   40   41 1    
    78   40   42 1    
    79   40   96 1    
    80   41   97 1    
    81   41   98 1    
    82   41   99 1    
    83   42   43 2    
    84   42   44 am   BACKBONE|DICT|INTERRES
    85   44   45 1    
    86   44  100 1    
    87   45   46 1    
    88   45   47 1    
    89   45  101 1    
    90   46  102 1    
    91   46  103 1    
    92   46  104 1    
    93   47   48 2    
    94   47   49 am   BACKBONE|DICT|INTERRES
    95   49   50 1    
    96   49  105 1    
    97   50   51 1    
    98   50   52 1    
    99   50  106 1    
   100   51  107 1    
   101   51  108 1    
   102   51  109 1    
   103   52   53 2    
   104   52   54 am   BACKBONE|DICT|INTERRES
   105   54   55 1    
   106   54  110 1    
   107   55   56 1    
   108   55   59 1    
   109   55  111 1    
   110   56   57 am   BACKBONE|DICT|INTERRES
   111   56   58 2    
   112   57  112 1    
   113   57  113 1    
   114   59   60 1    
   115   59  114 1    
   116   59  115 1    
   117   60   61 1    
   118   61  116 1    
   119   61  117 1    
@<TRIPOS>SUBSTRUCTURE
     1 UNK         1 GROUP             0       ****    0 ROOT    
