@<TRIPOS>MOLECULE
3R8
117   119    1
SMALL
USER_CHARGES


@<TRIPOS>ATOM
      1 CA         14.4303  -23.6657  -40.7991 C.3       0 UNK        -0.2013 
      2 C          15.4590  -23.9844  -41.8739 C.2       0 UNK         0.4866 
      3 O          16.2469  -23.1136  -42.2453 O.2       0 UNK        -0.5176 
      4 N          15.4517  -25.2221  -42.3829 N.am      1 UNK        -0.4884 
      5 CA         16.4167  -25.7310  -43.3627 C.3       1 UNK         0.0853 
      6 C6         15.8339  -26.9295  -44.1534 C.3       10 UNK        -0.0849 
      7 S7         15.4001  -28.3820  -43.1268 S.3       10 UNK        -0.2776 
      8 C8         15.3794  -29.7247  -44.3594 C.3       10 UNK         0.0316 
      9 C9         16.7671  -30.0140  -44.9144 C.ar      10 UNK        -0.0863 
     10 C10        17.6717  -30.7935  -44.1869 C.ar      10 UNK        -0.1009 
     11 C11        18.9530  -31.0458  -44.6879 C.ar      10 UNK        -0.0712 
     12 C12        19.3255  -30.5125  -45.9257 C.ar      10 UNK        -0.0894 
     13 C13        18.4272  -29.7366  -46.6637 C.ar      10 UNK        -0.0745 
     14 C14        17.1464  -29.5024  -46.1587 C.ar      10 UNK        -0.0972 
     15 C15        18.8262  -29.1524  -48.0100 C.3       10 UNK         0.0209 
     16 S16        19.4132  -27.4373  -47.8471 S.3       10 UNK        -0.2568 
     17 C17        21.1602  -27.7090  -47.4024 C.3       10 UNK        -0.0983 
     18 CA         21.7743  -26.5198  -46.6153 C.3       3 UNK         0.0876 
     19 N          21.0498  -26.2319  -45.3620 N.am      3 UNK        -0.4424 
     20 C          21.0588  -26.9753  -44.2430 C.2       2 UNK         0.4918 
     21 O          21.7541  -27.9778  -44.0855 O.2       2 UNK        -0.4875 
     22 CA         20.1881  -26.4903  -43.0810 C.3       2 UNK         0.0481 
     23 CB         20.8492  -25.2914  -42.3721 C.3       2 UNK        -0.1831 
     24 N          18.8317  -26.1617  -43.5238 N.am      2 UNK        -0.4498 
     25 C          17.7773  -26.0579  -42.7031 C.2       1 UNK         0.5027 
     26 O          17.8481  -26.2171  -41.4803 O.2       1 UNK        -0.4969 
     27 C          23.3036  -26.6868  -46.4185 C.2       3 UNK         0.5005 
     28 O          23.9333  -27.4752  -47.1254 O.2       3 UNK        -0.5279 
     29 N          23.8639  -25.9748  -45.4269 N.am      4 UNK        -0.4463 
     30 CA         25.2457  -26.0397  -44.9231 C.3       4 UNK         0.0283 
     31 CB         26.2680  -25.6902  -46.0249 C.3       4 UNK        -0.1875 
     32 C          25.6198  -27.3504  -44.1940 C.2       4 UNK         0.4949 
     33 O          26.7188  -27.4241  -43.6435 O.2       4 UNK        -0.5039 
     34 N          24.7182  -28.3417  -44.1587 N.am      5 UNK        -0.4663 
     35 CA         24.8513  -29.5657  -43.3651 C.3       5 UNK         0.0242 
     36 CB         24.0075  -30.6824  -44.0001 C.3       5 UNK        -0.1982 
     37 C          24.4549  -29.3132  -41.9017 C.2       5 UNK         0.5017 
     38 O          25.1462  -29.7880  -40.9995 O.2       5 UNK        -0.5012 
     39 N          23.3878  -28.5221  -41.7053 N.am      6 UNK        -0.4439 
     40 CA         22.9236  -27.9353  -40.4432 C.3       6 UNK         0.0297 
     41 CB         23.8545  -26.7701  -40.0372 C.3       6 UNK        -0.2006 
     42 C          22.7232  -28.9805  -39.3301 C.2       6 UNK         0.4892 
     43 O          21.7360  -29.7127  -39.3634 O.2       6 UNK        -0.5089 
     44 N          23.6637  -29.0479  -38.3773 N.am      7 UNK        -0.4243 
     45 CA         23.6709  -29.9868  -37.2514 C.3       7 UNK         0.0196 
     46 CB         24.8356  -29.6320  -36.3127 C.3       7 UNK        -0.2007 
     47 C          23.7408  -31.4712  -37.6586 C.2       7 UNK         0.5020 
     48 O          23.3617  -32.3258  -36.8577 O.2       7 UNK        -0.5147 
     49 N          24.2101  -31.7615  -38.8808 N.am      8 UNK        -0.4734 
     50 CA         24.2295  -33.1109  -39.4506 C.3       8 UNK         0.0238 
     51 CB         25.2457  -33.1593  -40.6030 C.3       8 UNK        -0.1912 
     52 C          22.8466  -33.5989  -39.9252 C.2       8 UNK         0.5038 
     53 O          22.6853  -34.8050  -40.1187 O.2       8 UNK        -0.5046 
     54 N          21.8872  -32.6832  -40.1231 N.am      9 UNK        -0.4200 
     55 CA         20.5133  -32.9986  -40.5420 C.3       9 UNK         0.0839 
     56 C          19.6940  -33.6709  -39.4086 C.2       9 UNK         0.5513 
     57 N          18.8075  -34.5957  -39.7512 N.am      9 UNK        -0.7519 
     58 O          19.8209  -33.3342  -38.2333 O.2       9 UNK        -0.4960 
     59 C59        19.7691  -31.7538  -41.0916 C.3       10 UNK        -0.0876 
     60 S60        20.6459  -30.9934  -42.4983 S.3       10 UNK        -0.2414 
     61 C61        19.9351  -31.9023  -43.9038 C.3       10 UNK         0.0169 
     62 H62        13.7910  -24.5208  -40.5800 H         1 UNK         0.0903 
     63 H63        14.9309  -23.3719  -39.8768 H         1 UNK         0.0903 
     64 H64        13.7948  -22.8408  -41.1201 H         1 UNK         0.0903 
     65 H65        14.8127  -25.9133  -42.0152 H         1 UNK         0.3096 
     66 H66        16.6044  -24.9296  -44.0817 H         1 UNK         0.1121 
     67 H67        16.5389  -27.2219  -44.9299 H         1 UNK         0.0849 
     68 H68        14.9345  -26.6136  -44.6846 H         1 UNK         0.0849 
     69 H69        14.9803  -30.6263  -43.8924 H         1 UNK         0.0865 
     70 H70        14.6865  -29.4688  -45.1627 H         1 UNK         0.0865 
     71 H71        17.3811  -31.1945  -43.2261 H         1 UNK         0.1346 
     72 H72        20.3161  -30.7037  -46.3143 H         1 UNK         0.1412 
     73 H73        16.4501  -28.9034  -46.7301 H         1 UNK         0.1426 
     74 H74        17.9671  -29.1656  -48.6825 H         1 UNK         0.0716 
     75 H75        19.5928  -29.7649  -48.4874 H         1 UNK         0.0716 
     76 H76        21.6994  -27.8795  -48.3361 H         1 UNK         0.0695 
     77 H77        21.2558  -28.6265  -46.8217 H         1 UNK         0.0695 
     78 H78        21.6673  -25.6295  -47.2373 H         1 UNK         0.0983 
     79 H79        20.4982  -25.3864  -45.3754 H         1 UNK         0.3095 
     80 H80        20.1235  -27.3198  -42.3729 H         1 UNK         0.0454 
     81 H81        20.3599  -25.0708  -41.4235 H         1 UNK         0.0851 
     82 H82        20.8121  -24.3885  -42.9821 H         1 UNK         0.0851 
     83 H83        21.8977  -25.4911  -42.1510 H         1 UNK         0.0851 
     84 H84        18.6880  -26.0999  -44.5223 H         1 UNK         0.2976 
     85 H85        23.2516  -25.3612  -44.9075 H         1 UNK         0.3116 
     86 H86        25.3110  -25.2575  -44.1653 H         1 UNK         0.0646 
     87 H87        26.3253  -26.4642  -46.7903 H         1 UNK         0.0847 
     88 H88        26.0195  -24.7491  -46.5151 H         1 UNK         0.0847 
     89 H89        27.2692  -25.5807  -45.6061 H         1 UNK         0.0847 
     90 H90        23.8233  -28.1943  -44.6094 H         1 UNK         0.3040 
     91 H91        25.8956  -29.8864  -43.3713 H         1 UNK         0.1015 
     92 H92        23.9981  -31.5781  -43.3790 H         1 UNK         0.0786 
     93 H93        24.4049  -30.9670  -44.9743 H         1 UNK         0.0786 
     94 H94        22.9722  -30.3755  -44.1454 H         1 UNK         0.0786 
     95 H95        22.8375  -28.2894  -42.5277 H         1 UNK         0.3172 
     96 H96        21.9365  -27.5165  -40.6411 H         1 UNK         0.0595 
     97 H97        24.8869  -27.0927  -39.8976 H         1 UNK         0.0839 
     98 H98        23.5213  -26.3024  -39.1096 H         1 UNK         0.0839 
     99 H99        23.8629  -25.9917  -40.7997 H         1 UNK         0.0839 
    100 H100       24.4591  -28.4312  -38.4555 H         1 UNK         0.2998 
    101 H101       22.7351  -29.8495  -36.7054 H         1 UNK         0.0822 
    102 H102       24.8526  -30.2920  -35.4440 H         1 UNK         0.0787 
    103 H103       24.7492  -28.6114  -35.9390 H         1 UNK         0.0787 
    104 H104       25.7999  -29.7279  -36.8135 H         1 UNK         0.0787 
    105 H105       24.5142  -31.0027  -39.4847 H         1 UNK         0.3055 
    106 H106       24.5647  -33.8063  -38.6775 H         1 UNK         0.1106 
    107 H107       26.2408  -32.8656  -40.2685 H         1 UNK         0.0828 
    108 H108       25.3259  -34.1676  -41.0116 H         1 UNK         0.0828 
    109 H109       24.9593  -32.4993  -41.4208 H         1 UNK         0.0828 
    110 H110       22.0684  -31.7105  -39.9033 H         1 UNK         0.2931 
    111 H111       20.5893  -33.7168  -41.3614 H         1 UNK         0.0412 
    112 H112       18.6900  -34.8762  -40.7127 H         1 UNK         0.3472 
    113 H113       18.2533  -35.0337  -39.0316 H         1 UNK         0.3472 
    114 H114       19.6567  -30.9999  -40.3110 H         1 UNK         0.0970 
    115 H115       18.7551  -32.0126  -41.4003 H         1 UNK         0.0970 
    116 H116       20.7543  -32.2253  -44.5479 H         1 UNK         0.0612 
    117 H117       19.4436  -32.8149  -43.5645 H         1 UNK         0.0612 
@<TRIPOS>BOND
     1    1    2 1    
     2    1   62 1    
     3    1   63 1    
     4    1   64 1    
     5    2    3 2    
     6    2    4 am   BACKBONE|DICT|INTERRES
     7    4    5 1    
     8    4   65 1    
     9    5    6 1    
    10    5   25 1    
    11    5   66 1    
    12    6    7 1    
    13    6   67 1    
    14    6   68 1    
    15    7    8 1    
    16    8    9 1    
    17    8   69 1    
    18    8   70 1    
    19    9   10 ar   
    20    9   14 ar   
    21   10   11 ar   
    22   10   71 1    
    23   11   12 ar   
    24   11   61 1    
    25   12   13 ar   
    26   12   72 1    
    27   13   14 ar   
    28   13   15 1    
    29   14   73 1    
    30   15   16 1    
    31   15   74 1    
    32   15   75 1    
    33   16   17 1    
    34   17   18 1    
    35   17   76 1    
    36   17   77 1    
    37   18   19 1    
    38   18   27 1    
    39   18   78 1    
    40   19   20 am   BACKBONE|DICT|INTERRES
    41   19   79 1    
    42   20   21 2    
    43   20   22 1    
    44   22   23 1    
    45   22   24 1    
    46   22   80 1    
    47   23   81 1    
    48   23   82 1    
    49   23   83 1    
    50   24   25 am   BACKBONE|DICT|INTERRES
    51   24   84 1    
    52   25   26 2    
    53   27   28 2    
    54   27   29 am   BACKBONE|DICT|INTERRES
    55   29   30 1    
    56   29   85 1    
    57   30   31 1    
    58   30   32 1    
    59   30   86 1    
    60   31   87 1    
    61   31   88 1    
    62   31   89 1    
    63   32   33 2    
    64   32   34 am   BACKBONE|DICT|INTERRES
    65   34   35 1    
    66   34   90 1    
    67   35   36 1    
    68   35   37 1    
    69   35   91 1    
    70   36   92 1    
    71   36   93 1    
    72   36   94 1    
    73   37   38 2    
    74   37   39 am   BACKBONE|DICT|INTERRES
    75   39   40 1    
    76   39   95 1    
    77   40   41 1    
    78   40   42 1    
    79   40   96 1    
    80   41   97 1    
    81   41   98 1    
    82   41   99 1    
    83   42   43 2    
    84   42   44 am   BACKBONE|DICT|INTERRES
    85   44   45 1    
    86   44  100 1    
    87   45   46 1    
    88   45   47 1    
    89   45  101 1    
    90   46  102 1    
    91   46  103 1    
    92   46  104 1    
    93   47   48 2    
    94   47   49 am   BACKBONE|DICT|INTERRES
    95   49   50 1    
    96   49  105 1    
    97   50   51 1    
    98   50   52 1    
    99   50  106 1    
   100   51  107 1    
   101   51  108 1    
   102   51  109 1    
   103   52   53 2    
   104   52   54 am   BACKBONE|DICT|INTERRES
   105   54   55 1    
   106   54  110 1    
   107   55   56 1    
   108   55   59 1    
   109   55  111 1    
   110   56   57 am   BACKBONE|DICT|INTERRES
   111   56   58 2    
   112   57  112 1    
   113   57  113 1    
   114   59   60 1    
   115   59  114 1    
   116   59  115 1    
   117   60   61 1    
   118   61  116 1    
   119   61  117 1    
@<TRIPOS>SUBSTRUCTURE
     1 UNK         1 GROUP             0       ****    0 ROOT    
