@<TRIPOS>MOLECULE
3R8
117   119    1
SMALL
USER_CHARGES


@<TRIPOS>ATOM
      1 CA         14.4199  -24.2335  -44.6218 C.3       0 UNK        -0.2013 
      2 C          15.3728  -25.4138  -44.5129 C.2       0 UNK         0.4866 
      3 O          16.5875  -25.2185  -44.4594 O.2       0 UNK        -0.5176 
      4 N          14.8348  -26.6393  -44.4689 N.am      1 UNK        -0.4884 
      5 CA         15.5802  -27.9025  -44.3780 C.3       1 UNK         0.0853 
      6 C6         14.7591  -29.0860  -44.9496 C.3       10 UNK        -0.0849 
      7 S7         14.6203  -28.9408  -46.7645 S.3       10 UNK        -0.2776 
      8 C8         15.7753  -30.2258  -47.3544 C.3       10 UNK         0.0316 
      9 C9         17.1443  -30.1597  -46.6848 C.ar      10 UNK        -0.0863 
     10 C10        17.5442  -31.1806  -45.8177 C.ar      10 UNK        -0.1009 
     11 C11        18.7973  -31.1439  -45.2014 C.ar      10 UNK        -0.0712 
     12 C12        19.6562  -30.0688  -45.4544 C.ar      10 UNK        -0.0894 
     13 C13        19.2787  -29.0513  -46.3364 C.ar      10 UNK        -0.0745 
     14 C14        18.0201  -29.1011  -46.9468 C.ar      10 UNK        -0.0972 
     15 C15        20.2490  -27.9299  -46.6830 C.3       10 UNK         0.0209 
     16 S16        20.0443  -26.4784  -45.6057 S.3       10 UNK        -0.2568 
     17 C17        21.3569  -26.7278  -44.3603 C.3       10 UNK        -0.0983 
     18 CA         20.9315  -26.1939  -42.9714 C.3       3 UNK         0.0876 
     19 N          19.7566  -26.9036  -42.4612 N.am      3 UNK        -0.4424 
     20 C          19.0094  -26.5226  -41.4172 C.2       2 UNK         0.4918 
     21 O          19.2732  -25.5642  -40.6900 O.2       2 UNK        -0.4875 
     22 CA         17.7019  -27.3028  -41.2277 C.3       2 UNK         0.0481 
     23 CB         16.8214  -26.7668  -40.0828 C.3       2 UNK        -0.1831 
     24 N          16.9782  -27.2636  -42.4928 N.am      2 UNK        -0.4498 
     25 C          16.0910  -28.1531  -42.9438 C.2       1 UNK         0.5027 
     26 O          15.6821  -29.1111  -42.2861 O.2       1 UNK        -0.4969 
     27 C          22.1110  -26.1982  -41.9794 C.2       3 UNK         0.5005 
     28 O          22.7903  -25.1796  -41.8467 O.2       3 UNK        -0.5279 
     29 N          22.3256  -27.3362  -41.3038 N.am      4 UNK        -0.4463 
     30 CA         23.2953  -27.5972  -40.2305 C.3       4 UNK         0.0283 
     31 CB         23.0302  -26.6896  -39.0130 C.3       4 UNK        -0.1875 
     32 C          24.7787  -27.5718  -40.6458 C.2       4 UNK         0.4949 
     33 O          25.6333  -27.8481  -39.8022 O.2       4 UNK        -0.5039 
     34 N          25.0768  -27.2973  -41.9230 N.am      5 UNK        -0.4663 
     35 CA         26.4160  -27.3422  -42.5137 C.3       5 UNK         0.0242 
     36 CB         26.3522  -26.7882  -43.9471 C.3       5 UNK        -0.1982 
     37 C          26.9509  -28.7818  -42.4926 C.2       5 UNK         0.5017 
     38 O          26.4162  -29.6275  -43.2089 O.2       5 UNK        -0.5012 
     39 N          27.9267  -29.0481  -41.6124 N.am      6 UNK        -0.4439 
     40 CA         28.4335  -30.3810  -41.2528 C.3       6 UNK         0.0297 
     41 CB         29.1919  -31.0242  -42.4341 C.3       6 UNK        -0.2006 
     42 C          27.3346  -31.2984  -40.6686 C.2       6 UNK         0.4892 
     43 O          27.3374  -32.5029  -40.9274 O.2       6 UNK        -0.5089 
     44 N          26.4131  -30.6962  -39.8986 N.am      7 UNK        -0.4243 
     45 CA         25.2366  -31.3020  -39.2628 C.3       7 UNK         0.0196 
     46 CB         25.6445  -32.3796  -38.2349 C.3       7 UNK        -0.2007 
     47 C          24.1694  -31.7950  -40.2617 C.2       7 UNK         0.5020 
     48 O          23.4111  -32.7110  -39.9378 O.2       7 UNK        -0.5147 
     49 N          24.1007  -31.1757  -41.4496 N.am      8 UNK        -0.4734 
     50 CA         23.0761  -31.4284  -42.4652 C.3       8 UNK         0.0238 
     51 CB         23.5337  -30.8366  -43.8101 C.3       8 UNK        -0.1912 
     52 C          21.7099  -30.8665  -42.0340 C.2       8 UNK         0.5038 
     53 O          21.3704  -29.7391  -42.3997 O.2       8 UNK        -0.5046 
     54 N          20.9579  -31.6679  -41.2711 N.am      9 UNK        -0.4200 
     55 CA         19.6257  -31.3642  -40.7243 C.3       9 UNK         0.0839 
     56 C          19.6408  -30.2727  -39.6134 C.2       9 UNK         0.5513 
     57 N          18.5250  -30.0831  -38.9220 N.am      9 UNK        -0.7519 
     58 O          20.6407  -29.6111  -39.3477 O.2       9 UNK        -0.4960 
     59 C59        18.5651  -31.0817  -41.8317 C.3       10 UNK        -0.0876 
     60 S60        18.2046  -32.5514  -42.8502 S.3       10 UNK        -0.2414 
     61 C61        19.2470  -32.3058  -44.3254 C.3       10 UNK         0.0169 
     62 H62        13.3783  -24.5517  -44.6633 H         1 UNK         0.0903 
     63 H63        14.5398  -23.5745  -43.7623 H         1 UNK         0.0903 
     64 H64        14.6355  -23.6606  -45.5233 H         1 UNK         0.0903 
     65 H65        13.8297  -26.7353  -44.5026 H         1 UNK         0.3096 
     66 H66        16.4810  -27.8067  -44.9885 H         1 UNK         0.1121 
     67 H67        13.7589  -29.1107  -44.5139 H         1 UNK         0.0849 
     68 H68        15.2128  -30.0467  -44.7010 H         1 UNK         0.0849 
     69 H69        15.3176  -31.2039  -47.1973 H         1 UNK         0.0865 
     70 H70        15.8984  -30.1216  -48.4333 H         1 UNK         0.0865 
     71 H71        16.8841  -32.0156  -45.6254 H         1 UNK         0.1346 
     72 H72        20.6322  -30.0383  -44.9915 H         1 UNK         0.1412 
     73 H73        17.7218  -28.3175  -47.6304 H         1 UNK         0.1426 
     74 H74        20.0855  -27.6157  -47.7150 H         1 UNK         0.0716 
     75 H75        21.2791  -28.2874  -46.6432 H         1 UNK         0.0716 
     76 H76        22.2515  -26.2128  -44.7157 H         1 UNK         0.0695 
     77 H77        21.6131  -27.7871  -44.3004 H         1 UNK         0.0695 
     78 H78        20.6403  -25.1479  -43.0929 H         1 UNK         0.0983 
     79 H79        19.4638  -27.7028  -43.0036 H         1 UNK         0.3095 
     80 H80        17.9710  -28.3344  -41.0079 H         1 UNK         0.0454 
     81 H81        16.5092  -25.7378  -40.2638 H         1 UNK         0.0851 
     82 H82        17.3613  -26.7855  -39.1354 H         1 UNK         0.0851 
     83 H83        15.9243  -27.3723  -39.9545 H         1 UNK         0.0851 
     84 H84        17.1951  -26.4786  -43.1047 H         1 UNK         0.2976 
     85 H85        21.7567  -28.1417  -41.5646 H         1 UNK         0.3116 
     86 H86        23.1024  -28.6234  -39.9160 H         1 UNK         0.0646 
     87 H87        23.2413  -25.6426  -39.2317 H         1 UNK         0.0847 
     88 H88        23.6556  -26.9761  -38.1666 H         1 UNK         0.0847 
     89 H89        21.9926  -26.7632  -38.6864 H         1 UNK         0.0847 
     90 H90        24.3133  -27.0776  -42.5447 H         1 UNK         0.3040 
     91 H91        27.0754  -26.7005  -41.9251 H         1 UNK         0.1015 
     92 H92        25.6786  -27.3699  -44.5781 H         1 UNK         0.0786 
     93 H93        27.3368  -26.8088  -44.4162 H         1 UNK         0.0786 
     94 H94        26.0101  -25.7531  -43.9572 H         1 UNK         0.0786 
     95 H95        28.2744  -28.2852  -41.0463 H         1 UNK         0.3172 
     96 H96        29.1534  -30.2258  -40.4479 H         1 UNK         0.0595 
     97 H97        29.6857  -31.9463  -42.1252 H         1 UNK         0.0839 
     98 H98        29.9638  -30.3589  -42.8205 H         1 UNK         0.0839 
     99 H99        28.5231  -31.2767  -43.2575 H         1 UNK         0.0839 
    100 H100       26.4808  -29.6889  -39.7841 H         1 UNK         0.2998 
    101 H101       24.7585  -30.4942  -38.7065 H         1 UNK         0.0822 
    102 H102       24.7855  -32.7027  -37.6456 H         1 UNK         0.0787 
    103 H103       26.0563  -33.2664  -38.7173 H         1 UNK         0.0787 
    104 H104       26.3896  -32.0000  -37.5357 H         1 UNK         0.0787 
    105 H105       24.7917  -30.4724  -41.6745 H         1 UNK         0.3055 
    106 H106       22.9744  -32.5080  -42.5977 H         1 UNK         0.1106 
    107 H107       22.7944  -31.0195  -44.5901 H         1 UNK         0.0828 
    108 H108       23.6870  -29.7581  -43.7503 H         1 UNK         0.0828 
    109 H109       24.4681  -31.2886  -44.1429 H         1 UNK         0.0828 
    110 H110       21.3789  -32.5254  -40.9381 H         1 UNK         0.2931 
    111 H111       19.3291  -32.2788  -40.2089 H         1 UNK         0.0412 
    112 H112       17.6987  -30.6338  -39.0948 H         1 UNK         0.3472 
    113 H113       18.5225  -29.3959  -38.1851 H         1 UNK         0.3472 
    114 H114       17.6144  -30.7891  -41.3845 H         1 UNK         0.0970 
    115 H115       18.8545  -30.2453  -42.4680 H         1 UNK         0.0970 
    116 H116       19.2077  -33.2181  -44.9219 H         1 UNK         0.0612 
    117 H117       20.2882  -32.1944  -44.0288 H         1 UNK         0.0612 
@<TRIPOS>BOND
     1    1    2 1    
     2    1   62 1    
     3    1   63 1    
     4    1   64 1    
     5    2    3 2    
     6    2    4 am   BACKBONE|DICT|INTERRES
     7    4    5 1    
     8    4   65 1    
     9    5    6 1    
    10    5   25 1    
    11    5   66 1    
    12    6    7 1    
    13    6   67 1    
    14    6   68 1    
    15    7    8 1    
    16    8    9 1    
    17    8   69 1    
    18    8   70 1    
    19    9   10 ar   
    20    9   14 ar   
    21   10   11 ar   
    22   10   71 1    
    23   11   12 ar   
    24   11   61 1    
    25   12   13 ar   
    26   12   72 1    
    27   13   14 ar   
    28   13   15 1    
    29   14   73 1    
    30   15   16 1    
    31   15   74 1    
    32   15   75 1    
    33   16   17 1    
    34   17   18 1    
    35   17   76 1    
    36   17   77 1    
    37   18   19 1    
    38   18   27 1    
    39   18   78 1    
    40   19   20 am   BACKBONE|DICT|INTERRES
    41   19   79 1    
    42   20   21 2    
    43   20   22 1    
    44   22   23 1    
    45   22   24 1    
    46   22   80 1    
    47   23   81 1    
    48   23   82 1    
    49   23   83 1    
    50   24   25 am   BACKBONE|DICT|INTERRES
    51   24   84 1    
    52   25   26 2    
    53   27   28 2    
    54   27   29 am   BACKBONE|DICT|INTERRES
    55   29   30 1    
    56   29   85 1    
    57   30   31 1    
    58   30   32 1    
    59   30   86 1    
    60   31   87 1    
    61   31   88 1    
    62   31   89 1    
    63   32   33 2    
    64   32   34 am   BACKBONE|DICT|INTERRES
    65   34   35 1    
    66   34   90 1    
    67   35   36 1    
    68   35   37 1    
    69   35   91 1    
    70   36   92 1    
    71   36   93 1    
    72   36   94 1    
    73   37   38 2    
    74   37   39 am   BACKBONE|DICT|INTERRES
    75   39   40 1    
    76   39   95 1    
    77   40   41 1    
    78   40   42 1    
    79   40   96 1    
    80   41   97 1    
    81   41   98 1    
    82   41   99 1    
    83   42   43 2    
    84   42   44 am   BACKBONE|DICT|INTERRES
    85   44   45 1    
    86   44  100 1    
    87   45   46 1    
    88   45   47 1    
    89   45  101 1    
    90   46  102 1    
    91   46  103 1    
    92   46  104 1    
    93   47   48 2    
    94   47   49 am   BACKBONE|DICT|INTERRES
    95   49   50 1    
    96   49  105 1    
    97   50   51 1    
    98   50   52 1    
    99   50  106 1    
   100   51  107 1    
   101   51  108 1    
   102   51  109 1    
   103   52   53 2    
   104   52   54 am   BACKBONE|DICT|INTERRES
   105   54   55 1    
   106   54  110 1    
   107   55   56 1    
   108   55   59 1    
   109   55  111 1    
   110   56   57 am   BACKBONE|DICT|INTERRES
   111   56   58 2    
   112   57  112 1    
   113   57  113 1    
   114   59   60 1    
   115   59  114 1    
   116   59  115 1    
   117   60   61 1    
   118   61  116 1    
   119   61  117 1    
@<TRIPOS>SUBSTRUCTURE
     1 UNK         1 GROUP             0       ****    0 ROOT    
