@<TRIPOS>MOLECULE
3R8
117   119    1
SMALL
USER_CHARGES


@<TRIPOS>ATOM
      1 CA         16.6630  -23.5671  -40.6892 C.3       0 UNK        -0.2013 
      2 C          16.7293  -23.7399  -42.1993 C.2       0 UNK         0.4866 
      3 O          16.6378  -22.7555  -42.9340 O.2       0 UNK        -0.5176 
      4 N          16.8772  -24.9854  -42.6666 N.am      1 UNK        -0.4884 
      5 CA         17.0105  -25.3473  -44.0836 C.3       1 UNK         0.0853 
      6 C6         16.8429  -26.8730  -44.3193 C.3       10 UNK        -0.0849 
      7 S7         15.4428  -27.6254  -43.4138 S.3       10 UNK        -0.2776 
      8 C8         15.4842  -29.3577  -43.9890 C.3       10 UNK         0.0316 
      9 C9         16.8873  -29.9492  -43.9603 C.ar      10 UNK        -0.0863 
     10 C10        17.4984  -30.2821  -42.7473 C.ar      10 UNK        -0.1009 
     11 C11        18.8056  -30.7791  -42.7272 C.ar      10 UNK        -0.0712 
     12 C12        19.5023  -30.9357  -43.9303 C.ar      10 UNK        -0.0894 
     13 C13        18.8955  -30.6223  -45.1491 C.ar      10 UNK        -0.0745 
     14 C14        17.5847  -30.1383  -45.1563 C.ar      10 UNK        -0.0972 
     15 C15        19.6363  -30.8316  -46.4625 C.3       10 UNK         0.0209 
     16 S16        19.8012  -29.2839  -47.4105 S.3       10 UNK        -0.2568 
     17 C17        21.5010  -28.7337  -47.0209 C.3       10 UNK        -0.0983 
     18 CA         21.6090  -27.5839  -45.9804 C.3       3 UNK         0.0876 
     19 N          20.6279  -26.5247  -46.2273 N.am      3 UNK        -0.4424 
     20 C          20.9018  -25.2383  -46.4717 C.2       2 UNK         0.4918 
     21 O          22.0406  -24.7740  -46.5255 O.2       2 UNK        -0.4875 
     22 CA         19.6935  -24.2991  -46.6707 C.3       2 UNK         0.0481 
     23 CB         19.3864  -24.1412  -48.1683 C.3       2 UNK        -0.1831 
     24 N          18.4699  -24.7107  -45.9648 N.am      2 UNK        -0.4498 
     25 C          18.3763  -24.8863  -44.6385 C.2       1 UNK         0.5027 
     26 O          19.3393  -24.7708  -43.8753 O.2       1 UNK        -0.4969 
     27 C          21.5859  -28.0790  -44.5169 C.2       3 UNK         0.5005 
     28 O          22.2138  -29.0975  -44.2255 O.2       3 UNK        -0.5279 
     29 N          20.9171  -27.3550  -43.6014 N.am      4 UNK        -0.4463 
     30 CA         20.8729  -27.6919  -42.1701 C.3       4 UNK         0.0283 
     31 CB         19.6143  -27.0952  -41.5183 C.3       4 UNK        -0.1875 
     32 C          22.1356  -27.2854  -41.3885 C.2       4 UNK         0.4949 
     33 O          22.2235  -27.5961  -40.1993 O.2       4 UNK        -0.5039 
     34 N          23.0850  -26.6040  -42.0470 N.am      5 UNK        -0.4663 
     35 CA         24.3763  -26.1823  -41.4981 C.3       5 UNK         0.0242 
     36 CB         25.1898  -25.4840  -42.5998 C.3       5 UNK        -0.1982 
     37 C          25.1644  -27.3630  -40.9033 C.2       5 UNK         0.5017 
     38 O          25.3727  -28.3630  -41.5933 O.2       5 UNK        -0.5012 
     39 N          25.5408  -27.2306  -39.6235 N.am      6 UNK        -0.4439 
     40 CA         26.2112  -28.2345  -38.7850 C.3       6 UNK         0.0297 
     41 CB         27.6236  -28.5479  -39.3252 C.3       6 UNK        -0.2006 
     42 C          25.3832  -29.5149  -38.5304 C.2       6 UNK         0.4892 
     43 O          25.9611  -30.5219  -38.1184 O.2       6 UNK        -0.5089 
     44 N          24.0584  -29.4549  -38.7556 N.am      7 UNK        -0.4243 
     45 CA         23.0808  -30.5423  -38.6150 C.3       7 UNK         0.0196 
     46 CB         22.8816  -30.9122  -37.1299 C.3       7 UNK        -0.2007 
     47 C          23.4175  -31.7577  -39.5001 C.2       7 UNK         0.5020 
     48 O          23.3903  -32.8957  -39.0287 O.2       7 UNK        -0.5147 
     49 N          23.7335  -31.4901  -40.7762 N.am      8 UNK        -0.4734 
     50 CA         24.1985  -32.4686  -41.7704 C.3       8 UNK         0.0238 
     51 CB         24.5095  -31.7316  -43.0828 C.3       8 UNK        -0.1912 
     52 C          23.2485  -33.6533  -42.0369 C.2       8 UNK         0.5038 
     53 O          23.7118  -34.7015  -42.4884 O.2       8 UNK        -0.5046 
     54 N          21.9543  -33.4729  -41.7493 N.am      9 UNK        -0.4200 
     55 CA         20.9240  -34.5191  -41.7811 C.3       9 UNK         0.0839 
     56 C          20.9619  -35.5102  -40.5797 C.2       9 UNK         0.5513 
     57 N          21.7508  -35.2767  -39.5368 N.am      9 UNK        -0.7519 
     58 O          20.2697  -36.5247  -40.6044 O.2       9 UNK        -0.4960 
     59 C59        19.5115  -33.9205  -42.0144 C.3       10 UNK        -0.0876 
     60 S60        18.9614  -32.7315  -40.7348 S.3       10 UNK        -0.2414 
     61 C61        19.4795  -31.1176  -41.4051 C.3       10 UNK         0.0169 
     62 H62        15.7178  -23.1054  -40.4052 H         1 UNK         0.0903 
     63 H63        16.7465  -24.5193  -40.1656 H         1 UNK         0.0903 
     64 H64        17.4735  -22.9222  -40.3502 H         1 UNK         0.0903 
     65 H65        16.9273  -25.7588  -42.0199 H         1 UNK         0.3096 
     66 H66        16.2245  -24.8225  -44.6314 H         1 UNK         0.1121 
     67 H67        16.7075  -27.0758  -45.3834 H         1 UNK         0.0849 
     68 H68        17.7510  -27.4031  -44.0290 H         1 UNK         0.0849 
     69 H69        14.8235  -29.9574  -43.3614 H         1 UNK         0.0865 
     70 H70        15.0684  -29.4040  -44.9968 H         1 UNK         0.0865 
     71 H71        16.9628  -30.1395  -41.8187 H         1 UNK         0.1346 
     72 H72        20.5190  -31.3047  -43.9177 H         1 UNK         0.1412 
     73 H73        17.1160  -29.8900  -46.0989 H         1 UNK         0.1426 
     74 H74        19.0740  -31.5464  -47.0645 H         1 UNK         0.0716 
     75 H75        20.6162  -31.2812  -46.2968 H         1 UNK         0.0716 
     76 H76        21.9220  -28.3770  -47.9620 H         1 UNK         0.0695 
     77 H77        22.1234  -29.5879  -46.7495 H         1 UNK         0.0695 
     78 H78        22.6125  -27.1680  -46.0935 H         1 UNK         0.0983 
     79 H79        19.6635  -26.8226  -46.2357 H         1 UNK         0.3095 
     80 H80        19.9787  -23.3206  -46.2787 H         1 UNK         0.0454 
     81 H81        20.2699  -23.8086  -48.7153 H         1 UNK         0.0851 
     82 H82        18.6062  -23.3994  -48.3394 H         1 UNK         0.0851 
     83 H83        19.0623  -25.0815  -48.6162 H         1 UNK         0.0851 
     84 H84        17.6453  -24.8384  -46.5349 H         1 UNK         0.2976 
     85 H85        20.4615  -26.4911  -43.8780 H         1 UNK         0.3116 
     86 H86        20.8026  -28.7750  -42.0803 H         1 UNK         0.0646 
     87 H87        19.6014  -26.0072  -41.5801 H         1 UNK         0.0847 
     88 H88        18.7075  -27.4800  -41.9806 H         1 UNK         0.0847 
     89 H89        19.5595  -27.3576  -40.4609 H         1 UNK         0.0847 
     90 H90        22.9264  -26.4116  -43.0241 H         1 UNK         0.3040 
     91 H91        24.1710  -25.4553  -40.7095 H         1 UNK         0.1015 
     92 H92        26.1517  -25.1406  -42.2162 H         1 UNK         0.0786 
     93 H93        24.6667  -24.6100  -42.9887 H         1 UNK         0.0786 
     94 H94        25.3935  -26.1541  -43.4363 H         1 UNK         0.0786 
     95 H95        25.2973  -26.3723  -39.1469 H         1 UNK         0.3172 
     96 H96        26.3347  -27.7670  -37.8071 H         1 UNK         0.0595 
     97 H97        27.5853  -29.0959  -40.2672 H         1 UNK         0.0839 
     98 H98        28.1871  -29.1595  -38.6194 H         1 UNK         0.0839 
     99 H99        28.1985  -27.6367  -39.4897 H         1 UNK         0.0839 
    100 H100       23.6753  -28.5888  -39.1218 H         1 UNK         0.2998 
    101 H101       22.1314  -30.1515  -38.9847 H         1 UNK         0.0822 
    102 H102       22.0785  -31.6412  -37.0140 H         1 UNK         0.0787 
    103 H103       22.6129  -30.0383  -36.5364 H         1 UNK         0.0787 
    104 H104       23.7815  -31.3493  -36.6960 H         1 UNK         0.0787 
    105 H105       23.7649  -30.5202  -41.0619 H         1 UNK         0.3055 
    106 H106       25.1288  -32.8937  -41.3876 H         1 UNK         0.1106 
    107 H107       25.2504  -30.9456  -42.9339 H         1 UNK         0.0828 
    108 H108       24.9109  -32.4157  -43.8318 H         1 UNK         0.0828 
    109 H109       23.6158  -31.2728  -43.5069 H         1 UNK         0.0828 
    110 H110       21.6765  -32.5937  -41.3437 H         1 UNK         0.2931 
    111 H111       21.1349  -35.1367  -42.6565 H         1 UNK         0.0412 
    112 H112       21.7633  -35.9356  -38.7749 H         1 UNK         0.3472 
    113 H113       22.3243  -34.4397  -39.4846 H         1 UNK         0.3472 
    114 H114       18.7708  -34.7208  -42.0632 H         1 UNK         0.0970 
    115 H115       19.4718  -33.4539  -42.9970 H         1 UNK         0.0970 
    116 H116       19.2386  -30.3460  -40.6723 H         1 UNK         0.0612 
    117 H117       20.5638  -31.0975  -41.5127 H         1 UNK         0.0612 
@<TRIPOS>BOND
     1    1    2 1    
     2    1   62 1    
     3    1   63 1    
     4    1   64 1    
     5    2    3 2    
     6    2    4 am   BACKBONE|DICT|INTERRES
     7    4    5 1    
     8    4   65 1    
     9    5    6 1    
    10    5   25 1    
    11    5   66 1    
    12    6    7 1    
    13    6   67 1    
    14    6   68 1    
    15    7    8 1    
    16    8    9 1    
    17    8   69 1    
    18    8   70 1    
    19    9   10 ar   
    20    9   14 ar   
    21   10   11 ar   
    22   10   71 1    
    23   11   12 ar   
    24   11   61 1    
    25   12   13 ar   
    26   12   72 1    
    27   13   14 ar   
    28   13   15 1    
    29   14   73 1    
    30   15   16 1    
    31   15   74 1    
    32   15   75 1    
    33   16   17 1    
    34   17   18 1    
    35   17   76 1    
    36   17   77 1    
    37   18   19 1    
    38   18   27 1    
    39   18   78 1    
    40   19   20 am   BACKBONE|DICT|INTERRES
    41   19   79 1    
    42   20   21 2    
    43   20   22 1    
    44   22   23 1    
    45   22   24 1    
    46   22   80 1    
    47   23   81 1    
    48   23   82 1    
    49   23   83 1    
    50   24   25 am   BACKBONE|DICT|INTERRES
    51   24   84 1    
    52   25   26 2    
    53   27   28 2    
    54   27   29 am   BACKBONE|DICT|INTERRES
    55   29   30 1    
    56   29   85 1    
    57   30   31 1    
    58   30   32 1    
    59   30   86 1    
    60   31   87 1    
    61   31   88 1    
    62   31   89 1    
    63   32   33 2    
    64   32   34 am   BACKBONE|DICT|INTERRES
    65   34   35 1    
    66   34   90 1    
    67   35   36 1    
    68   35   37 1    
    69   35   91 1    
    70   36   92 1    
    71   36   93 1    
    72   36   94 1    
    73   37   38 2    
    74   37   39 am   BACKBONE|DICT|INTERRES
    75   39   40 1    
    76   39   95 1    
    77   40   41 1    
    78   40   42 1    
    79   40   96 1    
    80   41   97 1    
    81   41   98 1    
    82   41   99 1    
    83   42   43 2    
    84   42   44 am   BACKBONE|DICT|INTERRES
    85   44   45 1    
    86   44  100 1    
    87   45   46 1    
    88   45   47 1    
    89   45  101 1    
    90   46  102 1    
    91   46  103 1    
    92   46  104 1    
    93   47   48 2    
    94   47   49 am   BACKBONE|DICT|INTERRES
    95   49   50 1    
    96   49  105 1    
    97   50   51 1    
    98   50   52 1    
    99   50  106 1    
   100   51  107 1    
   101   51  108 1    
   102   51  109 1    
   103   52   53 2    
   104   52   54 am   BACKBONE|DICT|INTERRES
   105   54   55 1    
   106   54  110 1    
   107   55   56 1    
   108   55   59 1    
   109   55  111 1    
   110   56   57 am   BACKBONE|DICT|INTERRES
   111   56   58 2    
   112   57  112 1    
   113   57  113 1    
   114   59   60 1    
   115   59  114 1    
   116   59  115 1    
   117   60   61 1    
   118   61  116 1    
   119   61  117 1    
@<TRIPOS>SUBSTRUCTURE
     1 UNK         1 GROUP             0       ****    0 ROOT    
