@<TRIPOS>MOLECULE
3R8
117   119    1
SMALL
USER_CHARGES


@<TRIPOS>ATOM
      1 CA         16.7759  -25.7410  -48.8458 C.3       0 UNK        -0.2013 
      2 C          17.2597  -26.3006  -47.5168 C.2       0 UNK         0.4866 
      3 O          18.2343  -27.0486  -47.4863 O.2       0 UNK        -0.5176 
      4 N          16.5961  -25.9312  -46.4131 N.am      1 UNK        -0.4884 
      5 CA         16.8953  -26.3833  -45.0447 C.3       1 UNK         0.0853 
      6 C6         15.6256  -26.2653  -44.1591 C.3       10 UNK        -0.0849 
      7 S7         15.6092  -27.2540  -42.6215 S.3       10 UNK        -0.2776 
      8 C8         15.7045  -28.9807  -43.2052 C.3       10 UNK         0.0316 
      9 C9         17.0577  -29.5883  -42.8611 C.ar      10 UNK        -0.0863 
     10 C10        17.3482  -29.9317  -41.5380 C.ar      10 UNK        -0.1009 
     11 C11        18.6053  -30.4297  -41.1851 C.ar      10 UNK        -0.0712 
     12 C12        19.5824  -30.5695  -42.1790 C.ar      10 UNK        -0.0894 
     13 C13        19.3041  -30.2514  -43.5114 C.ar      10 UNK        -0.0745 
     14 C14        18.0275  -29.7858  -43.8472 C.ar      10 UNK        -0.0972 
     15 C15        20.3838  -30.4327  -44.5761 C.3       10 UNK         0.0209 
     16 S16        20.4305  -29.0591  -45.7804 S.3       10 UNK        -0.2568 
     17 C17        22.1165  -28.3827  -45.5990 C.3       10 UNK        -0.0983 
     18 CA         22.2223  -27.1412  -44.6759 C.3       3 UNK         0.0876 
     19 N          21.2194  -26.1161  -44.9839 N.am      3 UNK        -0.4424 
     20 C          21.2008  -24.8717  -44.4843 C.2       2 UNK         0.4918 
     21 O          22.0966  -24.4109  -43.7757 O.2       2 UNK        -0.4875 
     22 CA         19.9620  -24.0019  -44.7843 C.3       2 UNK         0.0481 
     23 CB         20.2839  -22.9820  -45.8878 C.3       2 UNK        -0.1831 
     24 N          18.7509  -24.7455  -45.1578 N.am      2 UNK        -0.4498 
     25 C          18.1453  -25.7000  -44.4324 C.2       1 UNK         0.5027 
     26 O          18.5707  -26.0681  -43.3381 O.2       1 UNK        -0.4969 
     27 C          22.2713  -27.5440  -43.1862 C.2       3 UNK         0.5005 
     28 O          23.3171  -28.0249  -42.7516 O.2       3 UNK        -0.5279 
     29 N          21.1955  -27.2946  -42.4180 N.am      4 UNK        -0.4463 
     30 CA         21.0758  -27.5761  -40.9802 C.3       4 UNK         0.0283 
     31 CB         19.7192  -27.0626  -40.4743 C.3       4 UNK        -0.1875 
     32 C          22.2088  -27.0089  -40.1074 C.2       4 UNK         0.4949 
     33 O          22.5398  -27.6133  -39.0878 O.2       4 UNK        -0.5039 
     34 N          22.8233  -25.9004  -40.5448 N.am      5 UNK        -0.4663 
     35 CA         24.0151  -25.3017  -39.9359 C.3       5 UNK         0.0242 
     36 CB         24.3027  -23.9592  -40.6271 C.3       5 UNK        -0.1982 
     37 C          25.2655  -26.2052  -39.9743 C.2       5 UNK         0.5017 
     38 O          26.1587  -26.0175  -39.1478 O.2       5 UNK        -0.5012 
     39 N          25.3064  -27.1626  -40.9112 N.am      6 UNK        -0.4439 
     40 CA         26.3615  -28.1658  -41.0659 C.3       6 UNK         0.0297 
     41 CB         26.8784  -28.1087  -42.5149 C.3       6 UNK        -0.2006 
     42 C          25.8662  -29.5824  -40.7100 C.2       6 UNK         0.4892 
     43 O          26.5936  -30.5440  -40.9639 O.2       6 UNK        -0.5089 
     44 N          24.6577  -29.6939  -40.1341 N.am      7 UNK        -0.4243 
     45 CA         23.9359  -30.9305  -39.8163 C.3       7 UNK         0.0196 
     46 CB         24.6482  -31.7187  -38.6931 C.3       7 UNK        -0.2007 
     47 C          23.6265  -31.7512  -41.0855 C.2       7 UNK         0.5020 
     48 O          23.1217  -31.1792  -42.0500 O.2       7 UNK        -0.5147 
     49 N          23.8953  -33.0669  -41.0589 N.am      8 UNK        -0.4734 
     50 CA         23.6045  -34.0482  -42.1189 C.3       8 UNK         0.0238 
     51 CB         24.4694  -33.7793  -43.3690 C.3       8 UNK        -0.1912 
     52 C          22.0972  -34.1410  -42.4377 C.2       8 UNK         0.5038 
     53 O          21.7052  -34.1874  -43.6051 O.2       8 UNK        -0.5046 
     54 N          21.2855  -34.1373  -41.3741 N.am      9 UNK        -0.4200 
     55 CA         19.8172  -34.0573  -41.4129 C.3       9 UNK         0.0839 
     56 C          19.0934  -35.3579  -41.8668 C.2       9 UNK         0.5513 
     57 N          19.7766  -36.4868  -42.0115 N.am      9 UNK        -0.7519 
     58 O          17.8864  -35.3412  -42.0925 O.2       9 UNK        -0.4960 
     59 C59        19.2407  -33.5407  -40.0651 C.3       10 UNK        -0.0876 
     60 S60        20.1036  -32.0630  -39.4173 S.3       10 UNK        -0.2414 
     61 C61        18.8870  -30.7382  -39.7149 C.3       10 UNK         0.0169 
     62 H62        16.4881  -26.5543  -49.5112 H         1 UNK         0.0903 
     63 H63        15.9162  -25.0827  -48.7240 H         1 UNK         0.0903 
     64 H64        17.5723  -25.1739  -49.3267 H         1 UNK         0.0903 
     65 H65        15.8109  -25.3004  -46.5017 H         1 UNK         0.3096 
     66 H66        17.1531  -27.4379  -45.1188 H         1 UNK         0.1121 
     67 H67        15.4459  -25.2216  -43.8947 H         1 UNK         0.0849 
     68 H68        14.7483  -26.5752  -44.7299 H         1 UNK         0.0849 
     69 H69        14.9172  -29.5602  -42.7211 H         1 UNK         0.0865 
     70 H70        15.5052  -29.0376  -44.2762 H         1 UNK         0.0865 
     71 H71        16.5974  -29.7802  -40.7743 H         1 UNK         0.1346 
     72 H72        20.5680  -30.9263  -41.9174 H         1 UNK         0.1412 
     73 H73        17.8008  -29.5562  -44.8782 H         1 UNK         0.1426 
     74 H74        20.1916  -31.3631  -45.1115 H         1 UNK         0.0716 
     75 H75        21.3622  -30.5471  -44.1069 H         1 UNK         0.0716 
     76 H76        22.8068  -29.1704  -45.2899 H         1 UNK         0.0695 
     77 H77        22.4446  -28.0986  -46.5999 H         1 UNK         0.0695 
     78 H78        23.1933  -26.6828  -44.8765 H         1 UNK         0.0983 
     79 H79        20.4400  -26.4244  -45.5489 H         1 UNK         0.3095 
     80 H80        19.7307  -23.4523  -43.8699 H         1 UNK         0.0454 
     81 H81        21.1627  -22.3897  -45.6288 H         1 UNK         0.0851 
     82 H82        20.4903  -23.4705  -46.8410 H         1 UNK         0.0851 
     83 H83        19.4604  -22.2837  -46.0379 H         1 UNK         0.0851 
     84 H84        18.3433  -24.5227  -46.0542 H         1 UNK         0.2976 
     85 H85        20.3704  -26.8986  -42.8593 H         1 UNK         0.3116 
     86 H86        21.1033  -28.6601  -40.8635 H         1 UNK         0.0646 
     87 H87        19.5808  -27.2906  -39.4168 H         1 UNK         0.0847 
     88 H88        18.8927  -27.5226  -41.0156 H         1 UNK         0.0847 
     89 H89        19.6292  -25.9820  -40.5918 H         1 UNK         0.0847 
     90 H90        22.4926  -25.4815  -41.4043 H         1 UNK         0.3040 
     91 H91        23.7902  -25.1088  -38.8847 H         1 UNK         0.1015 
     92 H92        23.4621  -23.2723  -40.5264 H         1 UNK         0.0786 
     93 H93        24.5034  -24.0893  -41.6916 H         1 UNK         0.0786 
     94 H94        25.1733  -23.4704  -40.1873 H         1 UNK         0.0786 
     95 H95        24.5118  -27.2761  -41.5405 H         1 UNK         0.3172 
     96 H96        27.1970  -27.9462  -40.3986 H         1 UNK         0.0595 
     97 H97        27.7092  -28.7993  -42.6650 H         1 UNK         0.0839 
     98 H98        27.2389  -27.1117  -42.7686 H         1 UNK         0.0839 
     99 H99        26.0984  -28.3759  -43.2293 H         1 UNK         0.0839 
    100 H100       24.1336  -28.8425  -39.9745 H         1 UNK         0.2998 
    101 H101       22.9667  -30.6140  -39.4277 H         1 UNK         0.0822 
    102 H102       24.8293  -31.0823  -37.8270 H         1 UNK         0.0787 
    103 H103       24.0376  -32.5536  -38.3471 H         1 UNK         0.0787 
    104 H104       25.6113  -32.1170  -39.0140 H         1 UNK         0.0787 
    105 H105       24.3185  -33.4385  -40.2198 H         1 UNK         0.3055 
    106 H106       23.8905  -35.0256  -41.7281 H         1 UNK         0.1106 
    107 H107       24.1980  -32.8429  -43.8567 H         1 UNK         0.0828 
    108 H108       25.5281  -33.7295  -43.1157 H         1 UNK         0.0828 
    109 H109       24.3487  -34.5743  -44.1054 H         1 UNK         0.0828 
    110 H110       21.6995  -34.0867  -40.4557 H         1 UNK         0.2931 
    111 H111       19.5684  -33.3167  -42.1736 H         1 UNK         0.0412 
    112 H112       20.7679  -36.5093  -41.8343 H         1 UNK         0.3472 
    113 H113       19.2964  -37.3221  -42.3083 H         1 UNK         0.3472 
    114 H114       18.1770  -33.3190  -40.1695 H         1 UNK         0.0970 
    115 H115       19.3099  -34.3195  -39.3036 H         1 UNK         0.0970 
    116 H116       19.2546  -29.8283  -39.2401 H         1 UNK         0.0612 
    117 H117       17.9619  -31.0017  -39.1999 H         1 UNK         0.0612 
@<TRIPOS>BOND
     1    1    2 1    
     2    1   62 1    
     3    1   63 1    
     4    1   64 1    
     5    2    3 2    
     6    2    4 am   BACKBONE|DICT|INTERRES
     7    4    5 1    
     8    4   65 1    
     9    5    6 1    
    10    5   25 1    
    11    5   66 1    
    12    6    7 1    
    13    6   67 1    
    14    6   68 1    
    15    7    8 1    
    16    8    9 1    
    17    8   69 1    
    18    8   70 1    
    19    9   10 ar   
    20    9   14 ar   
    21   10   11 ar   
    22   10   71 1    
    23   11   12 ar   
    24   11   61 1    
    25   12   13 ar   
    26   12   72 1    
    27   13   14 ar   
    28   13   15 1    
    29   14   73 1    
    30   15   16 1    
    31   15   74 1    
    32   15   75 1    
    33   16   17 1    
    34   17   18 1    
    35   17   76 1    
    36   17   77 1    
    37   18   19 1    
    38   18   27 1    
    39   18   78 1    
    40   19   20 am   BACKBONE|DICT|INTERRES
    41   19   79 1    
    42   20   21 2    
    43   20   22 1    
    44   22   23 1    
    45   22   24 1    
    46   22   80 1    
    47   23   81 1    
    48   23   82 1    
    49   23   83 1    
    50   24   25 am   BACKBONE|DICT|INTERRES
    51   24   84 1    
    52   25   26 2    
    53   27   28 2    
    54   27   29 am   BACKBONE|DICT|INTERRES
    55   29   30 1    
    56   29   85 1    
    57   30   31 1    
    58   30   32 1    
    59   30   86 1    
    60   31   87 1    
    61   31   88 1    
    62   31   89 1    
    63   32   33 2    
    64   32   34 am   BACKBONE|DICT|INTERRES
    65   34   35 1    
    66   34   90 1    
    67   35   36 1    
    68   35   37 1    
    69   35   91 1    
    70   36   92 1    
    71   36   93 1    
    72   36   94 1    
    73   37   38 2    
    74   37   39 am   BACKBONE|DICT|INTERRES
    75   39   40 1    
    76   39   95 1    
    77   40   41 1    
    78   40   42 1    
    79   40   96 1    
    80   41   97 1    
    81   41   98 1    
    82   41   99 1    
    83   42   43 2    
    84   42   44 am   BACKBONE|DICT|INTERRES
    85   44   45 1    
    86   44  100 1    
    87   45   46 1    
    88   45   47 1    
    89   45  101 1    
    90   46  102 1    
    91   46  103 1    
    92   46  104 1    
    93   47   48 2    
    94   47   49 am   BACKBONE|DICT|INTERRES
    95   49   50 1    
    96   49  105 1    
    97   50   51 1    
    98   50   52 1    
    99   50  106 1    
   100   51  107 1    
   101   51  108 1    
   102   51  109 1    
   103   52   53 2    
   104   52   54 am   BACKBONE|DICT|INTERRES
   105   54   55 1    
   106   54  110 1    
   107   55   56 1    
   108   55   59 1    
   109   55  111 1    
   110   56   57 am   BACKBONE|DICT|INTERRES
   111   56   58 2    
   112   57  112 1    
   113   57  113 1    
   114   59   60 1    
   115   59  114 1    
   116   59  115 1    
   117   60   61 1    
   118   61  116 1    
   119   61  117 1    
@<TRIPOS>SUBSTRUCTURE
     1 UNK         1 GROUP             0       ****    0 ROOT    
