@<TRIPOS>MOLECULE
3R8
117   119    1
SMALL
USER_CHARGES


@<TRIPOS>ATOM
      1 CA         12.3586  -26.7799  -40.5176 C.3       0 UNK        -0.2013 
      2 C          13.2280  -26.3815  -41.7008 C.2       0 UNK         0.4866 
      3 O          12.9253  -25.4011  -42.3815 O.2       0 UNK        -0.5176 
      4 N          14.3050  -27.1314  -41.9508 N.am      1 UNK        -0.4884 
      5 CA         15.2766  -26.8954  -43.0162 C.3       1 UNK         0.0853 
      6 C6         14.7916  -27.4696  -44.3704 C.3       10 UNK        -0.0849 
      7 S7         15.6924  -26.7745  -45.7964 S.3       10 UNK        -0.2776 
      8 C8         16.1370  -28.2785  -46.7209 C.3       10 UNK         0.0316 
      9 C9         17.4933  -28.8385  -46.3125 C.ar      10 UNK        -0.0863 
     10 C10        17.5939  -29.8633  -45.3655 C.ar      10 UNK        -0.1009 
     11 C11        18.8353  -30.4401  -45.0721 C.ar      10 UNK        -0.0712 
     12 C12        19.9853  -29.9667  -45.7148 C.ar      10 UNK        -0.0894 
     13 C13        19.8947  -28.9468  -46.6680 C.ar      10 UNK        -0.0745 
     14 C14        18.6485  -28.3818  -46.9526 C.ar      10 UNK        -0.0972 
     15 C15        21.1156  -28.5148  -47.4693 C.3       10 UNK         0.0209 
     16 S16        21.6570  -26.8227  -47.0725 S.3       10 UNK        -0.2568 
     17 C17        22.8412  -27.1045  -45.7178 C.3       10 UNK        -0.0983 
     18 CA         22.4011  -26.4195  -44.4035 C.3       3 UNK         0.0876 
     19 N          21.2544  -27.0839  -43.7907 N.am      3 UNK        -0.4424 
     20 C          20.0473  -26.5443  -43.6117 C.2       2 UNK         0.4918 
     21 O          19.6958  -25.4499  -44.0610 O.2       2 UNK        -0.4875 
     22 CA         19.0889  -27.3460  -42.7261 C.3       2 UNK         0.0481 
     23 CB         19.4501  -27.1671  -41.2375 C.3       2 UNK        -0.1831 
     24 N          17.7222  -26.9079  -42.9856 N.am      2 UNK        -0.4498 
     25 C          16.6083  -27.5152  -42.5657 C.2       1 UNK         0.5027 
     26 O          16.5905  -28.5235  -41.8538 O.2       1 UNK        -0.4969 
     27 C          23.5310  -26.4933  -43.3687 C.2       3 UNK         0.5005 
     28 O          23.6887  -27.5381  -42.7361 O.2       3 UNK        -0.5279 
     29 N          24.3164  -25.4162  -43.2271 N.am      4 UNK        -0.4463 
     30 CA         25.3699  -25.2660  -42.2105 C.3       4 UNK         0.0283 
     31 CB         25.9860  -23.8622  -42.3241 C.3       4 UNK        -0.1875 
     32 C          26.4773  -26.3380  -42.2420 C.2       4 UNK         0.4949 
     33 O          27.0988  -26.5913  -41.2101 O.2       4 UNK        -0.5039 
     34 N          26.6917  -26.9590  -43.4095 N.am      5 UNK        -0.4663 
     35 CA         27.6332  -28.0626  -43.6140 C.3       5 UNK         0.0242 
     36 CB         27.8425  -28.2613  -45.1244 C.3       5 UNK        -0.1982 
     37 C          27.2025  -29.3884  -42.9551 C.2       5 UNK         0.5017 
     38 O          28.0577  -30.2510  -42.7507 O.2       5 UNK        -0.5012 
     39 N          25.9084  -29.5430  -42.6450 N.am      6 UNK        -0.4439 
     40 CA         25.3262  -30.7387  -42.0378 C.3       6 UNK         0.0297 
     41 CB         25.0608  -31.8092  -43.1167 C.3       6 UNK        -0.2006 
     42 C          24.0607  -30.3273  -41.2780 C.2       6 UNK         0.4892 
     43 O          22.9682  -30.7918  -41.6038 O.2       6 UNK        -0.5089 
     44 N          24.2320  -29.4241  -40.3014 N.am      7 UNK        -0.4243 
     45 CA         23.1568  -28.7052  -39.6047 C.3       7 UNK         0.0196 
     46 CB         23.7798  -27.6892  -38.6341 C.3       7 UNK        -0.2007 
     47 C          22.1260  -29.5881  -38.8780 C.2       7 UNK         0.5020 
     48 O          20.9867  -29.1586  -38.6987 O.2       7 UNK        -0.5147 
     49 N          22.5332  -30.7988  -38.4778 N.am      8 UNK        -0.4734 
     50 CA         21.6601  -31.8014  -37.8637 C.3       8 UNK         0.0238 
     51 CB         22.5224  -32.7644  -37.0298 C.3       8 UNK        -0.1912 
     52 C          20.8113  -32.5872  -38.8824 C.2       8 UNK         0.5038 
     53 O          19.8630  -33.2525  -38.4635 O.2       8 UNK        -0.5046 
     54 N          21.1714  -32.5336  -40.1750 N.am      9 UNK        -0.4200 
     55 CA         20.5709  -33.3030  -41.2808 C.3       9 UNK         0.0839 
     56 C          20.7052  -34.8526  -41.1426 C.2       9 UNK         0.5513 
     57 N          21.6614  -35.3638  -40.3757 N.am      9 UNK        -0.7519 
     58 O          19.9610  -35.6085  -41.7625 O.2       9 UNK        -0.4960 
     59 C59        19.1279  -32.8323  -41.6267 C.3       10 UNK        -0.0876 
     60 S60        19.1139  -31.1740  -42.3907 S.3       10 UNK        -0.2414 
     61 C61        18.9183  -31.6402  -44.1380 C.3       10 UNK         0.0169 
     62 H62        12.7415  -27.6652  -40.0100 H         1 UNK         0.0903 
     63 H63        12.3140  -25.9666  -39.7937 H         1 UNK         0.0903 
     64 H64        11.3441  -26.9940  -40.8528 H         1 UNK         0.0903 
     65 H65        14.5507  -27.9088  -41.3482 H         1 UNK         0.3096 
     66 H66        15.4194  -25.8159  -43.1091 H         1 UNK         0.1121 
     67 H67        14.8423  -28.5600  -44.3688 H         1 UNK         0.0849 
     68 H68        13.7389  -27.2260  -44.5217 H         1 UNK         0.0849 
     69 H69        15.3590  -29.0358  -46.6128 H         1 UNK         0.0865 
     70 H70        16.1551  -28.0323  -47.7838 H         1 UNK         0.0865 
     71 H71        16.7025  -30.2399  -44.8827 H         1 UNK         0.1346 
     72 H72        20.9423  -30.4254  -45.5063 H         1 UNK         0.1412 
     73 H73        18.5751  -27.6055  -47.7023 H         1 UNK         0.1426 
     74 H74        20.8623  -28.5500  -48.5299 H         1 UNK         0.0716 
     75 H75        21.9414  -29.2161  -47.3413 H         1 UNK         0.0716 
     76 H76        22.9923  -28.1746  -45.5622 H         1 UNK         0.0695 
     77 H77        23.8022  -26.7097  -46.0535 H         1 UNK         0.0695 
     78 H78        22.1775  -25.3680  -44.5974 H         1 UNK         0.0983 
     79 H79        21.4819  -27.9551  -43.3297 H         1 UNK         0.3095 
     80 H80        19.1739  -28.3955  -43.0044 H         1 UNK         0.0454 
     81 H81        19.3067  -26.1372  -40.9093 H         1 UNK         0.0851 
     82 H82        18.8497  -27.8121  -40.5962 H         1 UNK         0.0851 
     83 H83        20.4915  -27.4267  -41.0513 H         1 UNK         0.0851 
     84 H84        17.6612  -26.1062  -43.6024 H         1 UNK         0.2976 
     85 H85        24.1381  -24.6074  -43.8061 H         1 UNK         0.3116 
     86 H86        24.8849  -25.3443  -41.2352 H         1 UNK         0.0646 
     87 H87        26.7529  -23.7090  -41.5632 H         1 UNK         0.0847 
     88 H88        25.2357  -23.0842  -42.1825 H         1 UNK         0.0847 
     89 H89        26.4567  -23.7051  -43.2954 H         1 UNK         0.0847 
     90 H90        26.1349  -26.6803  -44.2039 H         1 UNK         0.3040 
     91 H91        28.5897  -27.7790  -43.1689 H         1 UNK         0.1015 
     92 H92        28.2263  -27.3560  -45.5953 H         1 UNK         0.0786 
     93 H93        26.9147  -28.5364  -45.6279 H         1 UNK         0.0786 
     94 H94        28.5655  -29.0552  -45.3178 H         1 UNK         0.0786 
     95 H95        25.2606  -28.7718  -42.7958 H         1 UNK         0.3172 
     96 H96        26.0210  -31.1496  -41.3023 H         1 UNK         0.0595 
     97 H97        25.9839  -32.1224  -43.6043 H         1 UNK         0.0839 
     98 H98        24.3825  -31.4415  -43.8877 H         1 UNK         0.0839 
     99 H99        24.6079  -32.7004  -42.6803 H         1 UNK         0.0839 
    100 H100       25.1718  -29.1024  -40.1190 H         1 UNK         0.2998 
    101 H101       22.6094  -28.1486  -40.3662 H         1 UNK         0.0822 
    102 H102       24.4205  -26.9806  -39.1597 H         1 UNK         0.0787 
    103 H103       23.0077  -27.1095  -38.1259 H         1 UNK         0.0787 
    104 H104       24.3783  -28.1807  -37.8661 H         1 UNK         0.0787 
    105 H105       23.4898  -31.0663  -38.6602 H         1 UNK         0.3055 
    106 H106       20.9640  -31.2975  -37.1888 H         1 UNK         0.1106 
    107 H107       23.2457  -33.2992  -37.6463 H         1 UNK         0.0828 
    108 H108       23.0710  -32.2330  -36.2519 H         1 UNK         0.0828 
    109 H109       21.9035  -33.5122  -36.5316 H         1 UNK         0.0828 
    110 H110       21.9246  -31.9116  -40.4540 H         1 UNK         0.2931 
    111 H111       21.1936  -33.0762  -42.1473 H         1 UNK         0.0412 
    112 H112       21.7505  -36.3650  -40.2995 H         1 UNK         0.3472 
    113 H113       22.2931  -34.7602  -39.8751 H         1 UNK         0.3472 
    114 H114       18.5009  -32.8149  -40.7347 H         1 UNK         0.0970 
    115 H115       18.6359  -33.5252  -42.3107 H         1 UNK         0.0970 
    116 H116       19.7526  -32.2809  -44.4283 H         1 UNK         0.0612 
    117 H117       18.0171  -32.2455  -44.2474 H         1 UNK         0.0612 
@<TRIPOS>BOND
     1    1    2 1    
     2    1   62 1    
     3    1   63 1    
     4    1   64 1    
     5    2    3 2    
     6    2    4 am   BACKBONE|DICT|INTERRES
     7    4    5 1    
     8    4   65 1    
     9    5    6 1    
    10    5   25 1    
    11    5   66 1    
    12    6    7 1    
    13    6   67 1    
    14    6   68 1    
    15    7    8 1    
    16    8    9 1    
    17    8   69 1    
    18    8   70 1    
    19    9   10 ar   
    20    9   14 ar   
    21   10   11 ar   
    22   10   71 1    
    23   11   12 ar   
    24   11   61 1    
    25   12   13 ar   
    26   12   72 1    
    27   13   14 ar   
    28   13   15 1    
    29   14   73 1    
    30   15   16 1    
    31   15   74 1    
    32   15   75 1    
    33   16   17 1    
    34   17   18 1    
    35   17   76 1    
    36   17   77 1    
    37   18   19 1    
    38   18   27 1    
    39   18   78 1    
    40   19   20 am   BACKBONE|DICT|INTERRES
    41   19   79 1    
    42   20   21 2    
    43   20   22 1    
    44   22   23 1    
    45   22   24 1    
    46   22   80 1    
    47   23   81 1    
    48   23   82 1    
    49   23   83 1    
    50   24   25 am   BACKBONE|DICT|INTERRES
    51   24   84 1    
    52   25   26 2    
    53   27   28 2    
    54   27   29 am   BACKBONE|DICT|INTERRES
    55   29   30 1    
    56   29   85 1    
    57   30   31 1    
    58   30   32 1    
    59   30   86 1    
    60   31   87 1    
    61   31   88 1    
    62   31   89 1    
    63   32   33 2    
    64   32   34 am   BACKBONE|DICT|INTERRES
    65   34   35 1    
    66   34   90 1    
    67   35   36 1    
    68   35   37 1    
    69   35   91 1    
    70   36   92 1    
    71   36   93 1    
    72   36   94 1    
    73   37   38 2    
    74   37   39 am   BACKBONE|DICT|INTERRES
    75   39   40 1    
    76   39   95 1    
    77   40   41 1    
    78   40   42 1    
    79   40   96 1    
    80   41   97 1    
    81   41   98 1    
    82   41   99 1    
    83   42   43 2    
    84   42   44 am   BACKBONE|DICT|INTERRES
    85   44   45 1    
    86   44  100 1    
    87   45   46 1    
    88   45   47 1    
    89   45  101 1    
    90   46  102 1    
    91   46  103 1    
    92   46  104 1    
    93   47   48 2    
    94   47   49 am   BACKBONE|DICT|INTERRES
    95   49   50 1    
    96   49  105 1    
    97   50   51 1    
    98   50   52 1    
    99   50  106 1    
   100   51  107 1    
   101   51  108 1    
   102   51  109 1    
   103   52   53 2    
   104   52   54 am   BACKBONE|DICT|INTERRES
   105   54   55 1    
   106   54  110 1    
   107   55   56 1    
   108   55   59 1    
   109   55  111 1    
   110   56   57 am   BACKBONE|DICT|INTERRES
   111   56   58 2    
   112   57  112 1    
   113   57  113 1    
   114   59   60 1    
   115   59  114 1    
   116   59  115 1    
   117   60   61 1    
   118   61  116 1    
   119   61  117 1    
@<TRIPOS>SUBSTRUCTURE
     1 UNK         1 GROUP             0       ****    0 ROOT    
