@<TRIPOS>MOLECULE
3R8
117   119    1
SMALL
USER_CHARGES


@<TRIPOS>ATOM
      1 CA         15.1627  -29.9940  -41.5564 C.3       0 UNK        -0.2013 
      2 C          15.3443  -28.6336  -42.2094 C.2       0 UNK         0.4866 
      3 O          15.0399  -27.6130  -41.5920 O.2       0 UNK        -0.5176 
      4 N          15.8242  -28.6108  -43.4593 N.am      1 UNK        -0.4884 
      5 CA         15.9880  -27.3914  -44.2634 C.3       1 UNK         0.0853 
      6 C6         15.9437  -27.6586  -45.7932 C.3       10 UNK        -0.0849 
      7 S7         14.6377  -28.8552  -46.2772 S.3       10 UNK        -0.2776 
      8 C8         15.5182  -30.2705  -47.0386 C.3       10 UNK         0.0316 
      9 C9         16.9114  -30.5163  -46.4729 C.ar      10 UNK        -0.0863 
     10 C10        17.0892  -31.0973  -45.2135 C.ar      10 UNK        -0.1009 
     11 C11        18.3753  -31.2581  -44.6841 C.ar      10 UNK        -0.0712 
     12 C12        19.4857  -30.8493  -45.4309 C.ar      10 UNK        -0.0894 
     13 C13        19.3182  -30.2889  -46.7000 C.ar      10 UNK        -0.0745 
     14 C14        18.0307  -30.1363  -47.2177 C.ar      10 UNK        -0.0972 
     15 C15        20.5148  -29.8546  -47.5313 C.3       10 UNK         0.0209 
     16 S16        20.5755  -28.0409  -47.7090 S.3       10 UNK        -0.2568 
     17 C17        22.0522  -27.5824  -46.7451 C.3       10 UNK        -0.0983 
     18 CA         21.7663  -26.4509  -45.7282 C.3       3 UNK         0.0876 
     19 N          20.8458  -26.8841  -44.6651 N.am      3 UNK        -0.4424 
     20 C          20.3683  -26.0976  -43.6897 C.2       2 UNK         0.4918 
     21 O          20.6145  -24.8936  -43.5953 O.2       2 UNK        -0.4875 
     22 CA         19.4658  -26.7868  -42.6505 C.3       2 UNK         0.0481 
     23 CB         19.1644  -25.8895  -41.4324 C.3       2 UNK        -0.1831 
     24 N          18.2185  -27.2979  -43.2266 N.am      2 UNK        -0.4498 
     25 C          17.2605  -26.6094  -43.8721 C.2       1 UNK         0.5027 
     26 O          17.3309  -25.4108  -44.1458 O.2       1 UNK        -0.4969 
     27 C          23.1013  -25.8943  -45.1853 C.2       3 UNK         0.5005 
     28 O          23.6462  -24.9492  -45.7585 O.2       3 UNK        -0.5279 
     29 N          23.5933  -26.4853  -44.0922 N.am      4 UNK        -0.4463 
     30 CA         24.7947  -26.1113  -43.3569 C.3       4 UNK         0.0283 
     31 CB         26.0542  -26.5522  -44.1287 C.3       4 UNK        -0.1875 
     32 C          24.7240  -26.8060  -41.9945 C.2       4 UNK         0.4949 
     33 O          23.9587  -27.7614  -41.8406 O.2       4 UNK        -0.5039 
     34 N          25.5600  -26.3680  -41.0440 N.am      5 UNK        -0.4663 
     35 CA         25.6896  -26.9807  -39.7130 C.3       5 UNK         0.0242 
     36 CB         26.6657  -26.1545  -38.8607 C.3       5 UNK        -0.1982 
     37 C          26.1272  -28.4574  -39.7584 C.2       5 UNK         0.5017 
     38 O          25.7136  -29.2412  -38.9043 O.2       5 UNK        -0.5012 
     39 N          26.9038  -28.8150  -40.7915 N.am      6 UNK        -0.4439 
     40 CA         27.3379  -30.1771  -41.1089 C.3       6 UNK         0.0297 
     41 CB         28.3777  -30.1186  -42.2399 C.3       6 UNK        -0.2006 
     42 C          26.1927  -31.1388  -41.4845 C.2       6 UNK         0.4892 
     43 O          26.3843  -32.3506  -41.3776 O.2       6 UNK        -0.5089 
     44 N          25.0318  -30.6078  -41.9036 N.am      7 UNK        -0.4243 
     45 CA         23.8282  -31.3985  -42.1815 C.3       7 UNK         0.0196 
     46 CB         22.8747  -30.5992  -43.0853 C.3       7 UNK        -0.2007 
     47 C          23.0974  -31.8398  -40.9013 C.2       7 UNK         0.5020 
     48 O          22.2776  -32.7545  -40.9723 O.2       7 UNK        -0.5147 
     49 N          23.3780  -31.1737  -39.7697 N.am      8 UNK        -0.4734 
     50 CA         22.8721  -31.3944  -38.4051 C.3       8 UNK         0.0238 
     51 CB         23.2721  -32.7924  -37.8931 C.3       8 UNK        -0.1912 
     52 C          21.3664  -31.1414  -38.1860 C.2       8 UNK         0.5038 
     53 O          20.9757  -30.8784  -37.0473 O.2       8 UNK        -0.5046 
     54 N          20.5517  -31.2316  -39.2426 N.am      9 UNK        -0.4200 
     55 CA         19.1024  -31.0077  -39.2288 C.3       9 UNK         0.0839 
     56 C          18.6896  -29.5458  -38.8910 C.2       9 UNK         0.5513 
     57 N          17.4749  -29.3499  -38.3957 N.am      9 UNK        -0.7519 
     58 O          19.4409  -28.5938  -39.0914 O.2       9 UNK        -0.4960 
     59 C59        18.4431  -31.5413  -40.5282 C.3       10 UNK        -0.0876 
     60 S60        18.8450  -30.6019  -42.0447 S.3       10 UNK        -0.2414 
     61 C61        18.5657  -31.8781  -43.3085 C.3       10 UNK         0.0169 
     62 H62        15.6500  -30.7869  -42.1228 H         1 UNK         0.0903 
     63 H63        14.1024  -30.2323  -41.4784 H         1 UNK         0.0903 
     64 H64        15.5818  -29.9823  -40.5515 H         1 UNK         0.0903 
     65 H65        16.0444  -29.4725  -43.9378 H         1 UNK         0.3096 
     66 H66        15.1442  -26.7361  -44.0336 H         1 UNK         0.1121 
     67 H67        15.7393  -26.7224  -46.3159 H         1 UNK         0.0849 
     68 H68        16.9187  -27.9709  -46.1622 H         1 UNK         0.0849 
     69 H69        14.9130  -31.1696  -46.9135 H         1 UNK         0.0865 
     70 H70        15.5739  -30.0998  -48.1149 H         1 UNK         0.0865 
     71 H71        16.2260  -31.4156  -44.6449 H         1 UNK         0.1346 
     72 H72        20.4791  -30.9742  -45.0266 H         1 UNK         0.1412 
     73 H73        17.9024  -29.6909  -48.1952 H         1 UNK         0.1426 
     74 H74        21.4441  -30.2426  -47.1129 H         1 UNK         0.0716 
     75 H75        20.4309  -30.2956  -48.5256 H         1 UNK         0.0716 
     76 H76        22.8106  -27.2703  -47.4665 H         1 UNK         0.0695 
     77 H77        22.4639  -28.4540  -46.2336 H         1 UNK         0.0695 
     78 H78        21.2796  -25.6281  -46.2567 H         1 UNK         0.0983 
     79 H79        20.5497  -27.8485  -44.6994 H         1 UNK         0.3095 
     80 H80        20.0162  -27.6551  -42.2842 H         1 UNK         0.0454 
     81 H81        18.5703  -26.4211  -40.6890 H         1 UNK         0.0851 
     82 H82        18.6201  -24.9875  -41.7137 H         1 UNK         0.0851 
     83 H83        20.0871  -25.5753  -40.9433 H         1 UNK         0.0851 
     84 H84        18.0422  -28.2812  -43.0682 H         1 UNK         0.2976 
     85 H85        23.0725  -27.2335  -43.6496 H         1 UNK         0.3116 
     86 H86        24.8023  -25.0302  -43.2040 H         1 UNK         0.0646 
     87 H87        26.1149  -26.0698  -45.1042 H         1 UNK         0.0847 
     88 H88        26.9634  -26.2878  -43.5877 H         1 UNK         0.0847 
     89 H89        26.0704  -27.6310  -44.2902 H         1 UNK         0.0847 
     90 H90        26.1567  -25.5767  -41.2421 H         1 UNK         0.3040 
     91 H91        24.7066  -26.9512  -39.2372 H         1 UNK         0.1015 
     92 H92        27.6633  -26.1250  -39.3007 H         1 UNK         0.0786 
     93 H93        26.7635  -26.5776  -37.8597 H         1 UNK         0.0786 
     94 H94        26.3190  -25.1276  -38.7428 H         1 UNK         0.0786 
     95 H95        27.1869  -28.0890  -41.4331 H         1 UNK         0.3172 
     96 H96        27.8226  -30.5839  -40.2189 H         1 UNK         0.0595 
     97 H97        27.9572  -29.6995  -43.1550 H         1 UNK         0.0839 
     98 H98        28.7495  -31.1158  -42.4804 H         1 UNK         0.0839 
     99 H99        29.2405  -29.5150  -41.9574 H         1 UNK         0.0839 
    100 H100       24.9274  -29.5999  -41.9422 H         1 UNK         0.2998 
    101 H101       24.1235  -32.3021  -42.7193 H         1 UNK         0.0822 
    102 H102       22.4542  -29.7344  -42.5716 H         1 UNK         0.0787 
    103 H103       22.0364  -31.2245  -43.3917 H         1 UNK         0.0787 
    104 H104       23.3727  -30.2511  -43.9903 H         1 UNK         0.0787 
    105 H105       24.0614  -30.4287  -39.8375 H         1 UNK         0.3055 
    106 H106       23.3890  -30.6598  -37.7847 H         1 UNK         0.1106 
    107 H107       24.3486  -32.9478  -37.9663 H         1 UNK         0.0828 
    108 H108       22.9980  -32.9169  -36.8447 H         1 UNK         0.0828 
    109 H109       22.7787  -33.5879  -38.4523 H         1 UNK         0.0828 
    110 H110       20.9590  -31.5019  -40.1293 H         1 UNK         0.2931 
    111 H111       18.7225  -31.6257  -38.4124 H         1 UNK         0.0412 
    112 H112       17.1836  -28.4098  -38.1784 H         1 UNK         0.3472 
    113 H113       16.8543  -30.1217  -38.2089 H         1 UNK         0.3472 
    114 H114       18.7368  -32.5823  -40.6741 H         1 UNK         0.0970 
    115 H115       17.3598  -31.5653  -40.4129 H         1 UNK         0.0970 
    116 H116       19.4134  -32.5651  -43.3194 H         1 UNK         0.0612 
    117 H117       17.6892  -32.4705  -43.0412 H         1 UNK         0.0612 
@<TRIPOS>BOND
     1    1    2 1    
     2    1   62 1    
     3    1   63 1    
     4    1   64 1    
     5    2    3 2    
     6    2    4 am   BACKBONE|DICT|INTERRES
     7    4    5 1    
     8    4   65 1    
     9    5    6 1    
    10    5   25 1    
    11    5   66 1    
    12    6    7 1    
    13    6   67 1    
    14    6   68 1    
    15    7    8 1    
    16    8    9 1    
    17    8   69 1    
    18    8   70 1    
    19    9   10 ar   
    20    9   14 ar   
    21   10   11 ar   
    22   10   71 1    
    23   11   12 ar   
    24   11   61 1    
    25   12   13 ar   
    26   12   72 1    
    27   13   14 ar   
    28   13   15 1    
    29   14   73 1    
    30   15   16 1    
    31   15   74 1    
    32   15   75 1    
    33   16   17 1    
    34   17   18 1    
    35   17   76 1    
    36   17   77 1    
    37   18   19 1    
    38   18   27 1    
    39   18   78 1    
    40   19   20 am   BACKBONE|DICT|INTERRES
    41   19   79 1    
    42   20   21 2    
    43   20   22 1    
    44   22   23 1    
    45   22   24 1    
    46   22   80 1    
    47   23   81 1    
    48   23   82 1    
    49   23   83 1    
    50   24   25 am   BACKBONE|DICT|INTERRES
    51   24   84 1    
    52   25   26 2    
    53   27   28 2    
    54   27   29 am   BACKBONE|DICT|INTERRES
    55   29   30 1    
    56   29   85 1    
    57   30   31 1    
    58   30   32 1    
    59   30   86 1    
    60   31   87 1    
    61   31   88 1    
    62   31   89 1    
    63   32   33 2    
    64   32   34 am   BACKBONE|DICT|INTERRES
    65   34   35 1    
    66   34   90 1    
    67   35   36 1    
    68   35   37 1    
    69   35   91 1    
    70   36   92 1    
    71   36   93 1    
    72   36   94 1    
    73   37   38 2    
    74   37   39 am   BACKBONE|DICT|INTERRES
    75   39   40 1    
    76   39   95 1    
    77   40   41 1    
    78   40   42 1    
    79   40   96 1    
    80   41   97 1    
    81   41   98 1    
    82   41   99 1    
    83   42   43 2    
    84   42   44 am   BACKBONE|DICT|INTERRES
    85   44   45 1    
    86   44  100 1    
    87   45   46 1    
    88   45   47 1    
    89   45  101 1    
    90   46  102 1    
    91   46  103 1    
    92   46  104 1    
    93   47   48 2    
    94   47   49 am   BACKBONE|DICT|INTERRES
    95   49   50 1    
    96   49  105 1    
    97   50   51 1    
    98   50   52 1    
    99   50  106 1    
   100   51  107 1    
   101   51  108 1    
   102   51  109 1    
   103   52   53 2    
   104   52   54 am   BACKBONE|DICT|INTERRES
   105   54   55 1    
   106   54  110 1    
   107   55   56 1    
   108   55   59 1    
   109   55  111 1    
   110   56   57 am   BACKBONE|DICT|INTERRES
   111   56   58 2    
   112   57  112 1    
   113   57  113 1    
   114   59   60 1    
   115   59  114 1    
   116   59  115 1    
   117   60   61 1    
   118   61  116 1    
   119   61  117 1    
@<TRIPOS>SUBSTRUCTURE
     1 UNK         1 GROUP             0       ****    0 ROOT    
