@<TRIPOS>MOLECULE
3R8
117   119    1
SMALL
USER_CHARGES


@<TRIPOS>ATOM
      1 CA         13.9987  -22.5208  -46.7246 C.3       0 UNK        -0.2013 
      2 C          15.0561  -23.5543  -47.0835 C.2       0 UNK         0.4866 
      3 O          15.3913  -23.7045  -48.2591 O.2       0 UNK        -0.5176 
      4 N          15.5840  -24.2643  -46.0820 N.am      1 UNK        -0.4884 
      5 CA         16.6141  -25.2909  -46.2333 C.3       1 UNK         0.0853 
      6 C6         16.0535  -26.6490  -46.7478 C.3       10 UNK        -0.0849 
      7 S7         14.7346  -27.4022  -45.7210 S.3       10 UNK        -0.2776 
      8 C8         15.0405  -29.1863  -45.9394 C.3       10 UNK         0.0316 
      9 C9         16.3267  -29.6459  -45.2645 C.ar      10 UNK        -0.0863 
     10 C10        16.3439  -29.9494  -43.8993 C.ar      10 UNK        -0.1009 
     11 C11        17.5181  -30.3942  -43.2801 C.ar      10 UNK        -0.0712 
     12 C12        18.6823  -30.5284  -44.0462 C.ar      10 UNK        -0.0894 
     13 C13        18.6838  -30.2064  -45.4073 C.ar      10 UNK        -0.0745 
     14 C14        17.4986  -29.7847  -46.0118 C.ar      10 UNK        -0.0972 
     15 C15        19.9562  -30.3072  -46.2368 C.3       10 UNK         0.0209 
     16 S16        20.9755  -28.8007  -46.1000 S.3       10 UNK        -0.2568 
     17 C17        21.7838  -29.0567  -44.4832 C.3       10 UNK        -0.0983 
     18 CA         21.4134  -28.0171  -43.3865 C.3       3 UNK         0.0876 
     19 N          19.9700  -27.7273  -43.3546 N.am      3 UNK        -0.4424 
     20 C          19.3873  -26.6536  -42.8061 C.2       2 UNK         0.4918 
     21 O          20.0171  -25.7327  -42.2814 O.2       2 UNK        -0.4875 
     22 CA         17.8498  -26.6406  -42.8117 C.3       2 UNK         0.0481 
     23 CB         17.2608  -25.6471  -41.7884 C.3       2 UNK        -0.1831 
     24 N          17.2866  -26.4123  -44.1451 N.am      2 UNK        -0.4498 
     25 C          17.4305  -25.3332  -44.9274 C.2       1 UNK         0.5027 
     26 O          18.1372  -24.3645  -44.6441 O.2       1 UNK        -0.4969 
     27 C          21.9327  -28.4492  -41.9872 C.2       3 UNK         0.5005 
     28 O          22.5341  -29.5183  -41.8450 O.2       3 UNK        -0.5279 
     29 N          21.6275  -27.6386  -40.9657 N.am      4 UNK        -0.4463 
     30 CA         21.7755  -27.9398  -39.5406 C.3       4 UNK         0.0283 
     31 CB         20.7604  -27.0962  -38.7525 C.3       4 UNK        -0.1875 
     32 C          23.1930  -27.7334  -38.9878 C.2       4 UNK         0.4949 
     33 O          23.4684  -28.1720  -37.8713 O.2       4 UNK        -0.5039 
     34 N          24.0817  -27.0923  -39.7573 N.am      5 UNK        -0.4663 
     35 CA         25.4781  -26.8183  -39.3927 C.3       5 UNK         0.0242 
     36 CB         25.9679  -25.6042  -40.2048 C.3       5 UNK        -0.1982 
     37 C          26.3931  -28.0516  -39.5621 C.2       5 UNK         0.5017 
     38 O          27.4961  -27.9252  -40.0955 O.2       5 UNK        -0.5012 
     39 N          25.8984  -29.2290  -39.1487 N.am      6 UNK        -0.4439 
     40 CA         26.4859  -30.5684  -39.2991 C.3       6 UNK         0.0297 
     41 CB         27.7972  -30.6882  -38.4940 C.3       6 UNK        -0.2006 
     42 C          26.6559  -31.0212  -40.7660 C.2       6 UNK         0.4892 
     43 O          27.3842  -31.9815  -41.0221 O.2       6 UNK        -0.5089 
     44 N          25.9912  -30.3300  -41.7022 N.am      7 UNK        -0.4243 
     45 CA         26.0674  -30.5799  -43.1409 C.3       7 UNK         0.0196 
     46 CB         25.6830  -29.2982  -43.8954 C.3       7 UNK        -0.2007 
     47 C          25.2101  -31.7787  -43.5742 C.2       7 UNK         0.5020 
     48 O          25.6250  -32.5228  -44.4633 O.2       7 UNK        -0.5147 
     49 N          24.0587  -31.9697  -42.9198 N.am      8 UNK        -0.4734 
     50 CA         23.2213  -33.1643  -43.0527 C.3       8 UNK         0.0238 
     51 CB         22.3385  -33.0993  -44.3123 C.3       8 UNK        -0.1912 
     52 C          22.3681  -33.3697  -41.7980 C.2       8 UNK         0.5038 
     53 O          22.2762  -34.4984  -41.3139 O.2       8 UNK        -0.5046 
     54 N          21.7768  -32.2812  -41.2923 N.am      9 UNK        -0.4200 
     55 CA         21.0197  -32.2473  -40.0360 C.3       9 UNK         0.0839 
     56 C          21.9243  -31.8002  -38.8546 C.2       9 UNK         0.5513 
     57 N          21.4416  -31.9277  -37.6265 N.am      9 UNK        -0.7519 
     58 O          23.0490  -31.3350  -39.0305 O.2       9 UNK        -0.4960 
     59 C59        19.7501  -31.3646  -40.1758 C.3       10 UNK        -0.0876 
     60 S60        18.5177  -32.1211  -41.2915 S.3       10 UNK        -0.2414 
     61 C61        17.5164  -30.6736  -41.7777 C.3       10 UNK         0.0169 
     62 H62        14.3268  -21.5271  -47.0281 H         1 UNK         0.0903 
     63 H63        13.0657  -22.7445  -47.2413 H         1 UNK         0.0903 
     64 H64        13.7957  -22.4989  -45.6541 H         1 UNK         0.0903 
     65 H65        15.2977  -24.0843  -45.1289 H         1 UNK         0.3096 
     66 H66        17.3237  -24.9388  -46.9864 H         1 UNK         0.1121 
     67 H67        16.8791  -27.3445  -46.8835 H         1 UNK         0.0849 
     68 H68        15.6407  -26.5085  -47.7480 H         1 UNK         0.0849 
     69 H69        14.1965  -29.7398  -45.5248 H         1 UNK         0.0865 
     70 H70        15.0586  -29.4228  -47.0047 H         1 UNK         0.0865 
     71 H71        15.4388  -29.8347  -43.3179 H         1 UNK         0.1346 
     72 H72        19.5910  -30.8718  -43.5745 H         1 UNK         0.1412 
     73 H73        17.4928  -29.5580  -47.0694 H         1 UNK         0.1426 
     74 H74        19.7022  -30.4537  -47.2878 H         1 UNK         0.0716 
     75 H75        20.5346  -31.1852  -45.9507 H         1 UNK         0.0716 
     76 H76        21.5770  -30.0696  -44.1458 H         1 UNK         0.0695 
     77 H77        22.8566  -29.0338  -44.6663 H         1 UNK         0.0695 
     78 H78        21.9275  -27.0867  -43.6375 H         1 UNK         0.0983 
     79 H79        19.3796  -28.4243  -43.7883 H         1 UNK         0.3095 
     80 H80        17.5249  -27.6350  -42.5075 H         1 UNK         0.0454 
     81 H81        17.6218  -25.8659  -40.7827 H         1 UNK         0.0851 
     82 H82        17.5358  -24.6158  -42.0119 H         1 UNK         0.0851 
     83 H83        16.1728  -25.7050  -41.7612 H         1 UNK         0.0851 
     84 H84        16.6659  -27.1379  -44.4856 H         1 UNK         0.2976 
     85 H85        21.1307  -26.7815  -41.1990 H         1 UNK         0.3116 
     86 H86        21.5284  -28.9891  -39.3842 H         1 UNK         0.0646 
     87 H87        20.8103  -27.3181  -37.6854 H         1 UNK         0.0847 
     88 H88        19.7392  -27.2999  -39.0750 H         1 UNK         0.0847 
     89 H89        20.9440  -26.0278  -38.8724 H         1 UNK         0.0847 
     90 H90        23.7783  -26.7804  -40.6682 H         1 UNK         0.3040 
     91 H91        25.5159  -26.5458  -38.3354 H         1 UNK         0.1015 
     92 H92        25.3294  -24.7352  -40.0444 H         1 UNK         0.0786 
     93 H93        25.9867  -25.8155  -41.2747 H         1 UNK         0.0786 
     94 H94        26.9783  -25.3163  -39.9107 H         1 UNK         0.0786 
     95 H95        24.9809  -29.2048  -38.7113 H         1 UNK         0.3172 
     96 H96        25.7674  -31.2592  -38.8566 H         1 UNK         0.0595 
     97 H97        27.6576  -30.3775  -37.4587 H         1 UNK         0.0839 
     98 H98        28.5941  -30.0803  -38.9233 H         1 UNK         0.0839 
     99 H99        28.1524  -31.7192  -38.4749 H         1 UNK         0.0839 
    100 H100       25.3939  -29.5753  -41.3980 H         1 UNK         0.2998 
    101 H101       27.1022  -30.8181  -43.3977 H         1 UNK         0.0822 
    102 H102       25.5620  -29.4844  -44.9636 H         1 UNK         0.0787 
    103 H103       24.7525  -28.8760  -43.5202 H         1 UNK         0.0787 
    104 H104       26.4546  -28.5360  -43.7847 H         1 UNK         0.0787 
    105 H105       23.7958  -31.3008  -42.2048 H         1 UNK         0.3055 
    106 H106       23.8791  -34.0327  -43.1385 H         1 UNK         0.1106 
    107 H107       22.9224  -32.8950  -45.2096 H         1 UNK         0.0828 
    108 H108       21.8242  -34.0481  -44.4698 H         1 UNK         0.0828 
    109 H109       21.5717  -32.3330  -44.2238 H         1 UNK         0.0828 
    110 H110       21.9652  -31.3719  -41.7006 H         1 UNK         0.2931 
    111 H111       20.6902  -33.2593  -39.7920 H         1 UNK         0.0412 
    112 H112       22.0133  -31.6383  -36.8483 H         1 UNK         0.3472 
    113 H113       20.5293  -32.3224  -37.4581 H         1 UNK         0.3472 
    114 H114       20.0162  -30.3743  -40.5460 H         1 UNK         0.0970 
    115 H115       19.2655  -31.2118  -39.2099 H         1 UNK         0.0970 
    116 H116       16.4966  -30.8496  -41.4321 H         1 UNK         0.0612 
    117 H117       17.8622  -29.7807  -41.2564 H         1 UNK         0.0612 
@<TRIPOS>BOND
     1    1    2 1    
     2    1   62 1    
     3    1   63 1    
     4    1   64 1    
     5    2    3 2    
     6    2    4 am   BACKBONE|DICT|INTERRES
     7    4    5 1    
     8    4   65 1    
     9    5    6 1    
    10    5   25 1    
    11    5   66 1    
    12    6    7 1    
    13    6   67 1    
    14    6   68 1    
    15    7    8 1    
    16    8    9 1    
    17    8   69 1    
    18    8   70 1    
    19    9   10 ar   
    20    9   14 ar   
    21   10   11 ar   
    22   10   71 1    
    23   11   12 ar   
    24   11   61 1    
    25   12   13 ar   
    26   12   72 1    
    27   13   14 ar   
    28   13   15 1    
    29   14   73 1    
    30   15   16 1    
    31   15   74 1    
    32   15   75 1    
    33   16   17 1    
    34   17   18 1    
    35   17   76 1    
    36   17   77 1    
    37   18   19 1    
    38   18   27 1    
    39   18   78 1    
    40   19   20 am   BACKBONE|DICT|INTERRES
    41   19   79 1    
    42   20   21 2    
    43   20   22 1    
    44   22   23 1    
    45   22   24 1    
    46   22   80 1    
    47   23   81 1    
    48   23   82 1    
    49   23   83 1    
    50   24   25 am   BACKBONE|DICT|INTERRES
    51   24   84 1    
    52   25   26 2    
    53   27   28 2    
    54   27   29 am   BACKBONE|DICT|INTERRES
    55   29   30 1    
    56   29   85 1    
    57   30   31 1    
    58   30   32 1    
    59   30   86 1    
    60   31   87 1    
    61   31   88 1    
    62   31   89 1    
    63   32   33 2    
    64   32   34 am   BACKBONE|DICT|INTERRES
    65   34   35 1    
    66   34   90 1    
    67   35   36 1    
    68   35   37 1    
    69   35   91 1    
    70   36   92 1    
    71   36   93 1    
    72   36   94 1    
    73   37   38 2    
    74   37   39 am   BACKBONE|DICT|INTERRES
    75   39   40 1    
    76   39   95 1    
    77   40   41 1    
    78   40   42 1    
    79   40   96 1    
    80   41   97 1    
    81   41   98 1    
    82   41   99 1    
    83   42   43 2    
    84   42   44 am   BACKBONE|DICT|INTERRES
    85   44   45 1    
    86   44  100 1    
    87   45   46 1    
    88   45   47 1    
    89   45  101 1    
    90   46  102 1    
    91   46  103 1    
    92   46  104 1    
    93   47   48 2    
    94   47   49 am   BACKBONE|DICT|INTERRES
    95   49   50 1    
    96   49  105 1    
    97   50   51 1    
    98   50   52 1    
    99   50  106 1    
   100   51  107 1    
   101   51  108 1    
   102   51  109 1    
   103   52   53 2    
   104   52   54 am   BACKBONE|DICT|INTERRES
   105   54   55 1    
   106   54  110 1    
   107   55   56 1    
   108   55   59 1    
   109   55  111 1    
   110   56   57 am   BACKBONE|DICT|INTERRES
   111   56   58 2    
   112   57  112 1    
   113   57  113 1    
   114   59   60 1    
   115   59  114 1    
   116   59  115 1    
   117   60   61 1    
   118   61  116 1    
   119   61  117 1    
@<TRIPOS>SUBSTRUCTURE
     1 UNK         1 GROUP             0       ****    0 ROOT    
