@<TRIPOS>MOLECULE
3R8
117   119    1
SMALL
USER_CHARGES


@<TRIPOS>ATOM
      1 CA         16.1598  -26.6138  -48.6303 C.3       0 UNK        -0.2013 
      2 C          14.9124  -26.8355  -47.7772 C.2       0 UNK         0.4866 
      3 O          13.8031  -26.6623  -48.2788 O.2       0 UNK        -0.5176 
      4 N          15.0281  -27.2298  -46.5013 N.am      1 UNK        -0.4884 
      5 CA         16.2664  -27.4138  -45.7319 C.3       1 UNK         0.0853 
      6 C6         16.0081  -28.1475  -44.3919 C.3       10 UNK        -0.0849 
      7 S7         15.2501  -29.7879  -44.6289 S.3       10 UNK        -0.2776 
      8 C8         15.0292  -30.3239  -42.9010 C.3       10 UNK         0.0316 
      9 C9         16.3584  -30.6246  -42.2219 C.ar      10 UNK        -0.0863 
     10 C10        17.1452  -31.6867  -42.6758 C.ar      10 UNK        -0.1009 
     11 C11        18.3781  -31.9671  -42.0789 C.ar      10 UNK        -0.0712 
     12 C12        18.7928  -31.2066  -40.9820 C.ar      10 UNK        -0.0894 
     13 C13        18.0132  -30.1471  -40.5103 C.ar      10 UNK        -0.0745 
     14 C14        16.7989  -29.8541  -41.1403 C.ar      10 UNK        -0.0972 
     15 C15        18.4752  -29.3448  -39.3012 C.3       10 UNK         0.0209 
     16 S16        19.9997  -28.4026  -39.6280 S.3       10 UNK        -0.2568 
     17 C17        19.3871  -27.0214  -40.6481 C.3       10 UNK        -0.0983 
     18 CA         20.3463  -26.6813  -41.8157 C.3       3 UNK         0.0876 
     19 N          19.6492  -25.9353  -42.8668 N.am      3 UNK        -0.4424 
     20 C          20.1701  -25.4858  -44.0183 C.2       2 UNK         0.4918 
     21 O          21.3585  -25.5627  -44.3332 O.2       2 UNK        -0.4875 
     22 CA         19.1439  -24.9607  -45.0279 C.3       2 UNK         0.0481 
     23 CB         19.7828  -24.3726  -46.2998 C.3       2 UNK        -0.1831 
     24 N          18.2891  -26.0891  -45.3870 N.am      2 UNK        -0.4498 
     25 C          16.9563  -26.0627  -45.4568 C.2       1 UNK         0.5027 
     26 O          16.2775  -25.0471  -45.2841 O.2       1 UNK        -0.4969 
     27 C          21.6236  -25.9638  -41.3278 C.2       3 UNK         0.5005 
     28 O          21.5484  -24.8194  -40.8724 O.2       3 UNK        -0.5279 
     29 N          22.7613  -26.6555  -41.4446 N.am      4 UNK        -0.4463 
     30 CA         24.1120  -26.1998  -41.1367 C.3       4 UNK         0.0283 
     31 CB         24.5528  -25.1194  -42.1479 C.3       4 UNK        -0.1875 
     32 C          25.0428  -27.4202  -41.1974 C.2       4 UNK         0.4949 
     33 O          24.5907  -28.5134  -41.5551 O.2       4 UNK        -0.5039 
     34 N          26.3225  -27.2027  -40.8592 N.am      5 UNK        -0.4663 
     35 CA         27.4440  -28.1491  -40.9667 C.3       5 UNK         0.0242 
     36 CB         27.8012  -28.3840  -42.4500 C.3       5 UNK        -0.1982 
     37 C          27.2182  -29.4600  -40.1884 C.2       5 UNK         0.5017 
     38 O          27.4063  -30.5463  -40.7378 O.2       5 UNK        -0.5012 
     39 N          26.8042  -29.3168  -38.9201 N.am      6 UNK        -0.4439 
     40 CA         26.4469  -30.3902  -37.9823 C.3       6 UNK         0.0297 
     41 CB         27.6742  -31.2598  -37.6309 C.3       6 UNK        -0.2006 
     42 C          25.2350  -31.2128  -38.4652 C.2       6 UNK         0.4892 
     43 O          25.2596  -32.4436  -38.4101 O.2       6 UNK        -0.5089 
     44 N          24.1966  -30.4926  -38.9158 N.am      7 UNK        -0.4243 
     45 CA         22.9147  -30.9904  -39.4240 C.3       7 UNK         0.0196 
     46 CB         22.1162  -31.7070  -38.3132 C.3       7 UNK        -0.2007 
     47 C          23.0668  -31.8280  -40.7065 C.2       7 UNK         0.5020 
     48 O          22.5561  -32.9453  -40.7856 O.2       7 UNK        -0.5147 
     49 N          23.7391  -31.2495  -41.7099 N.am      8 UNK        -0.4734 
     50 CA         23.9281  -31.8306  -43.0459 C.3       8 UNK         0.0238 
     51 CB         25.2665  -31.3258  -43.6120 C.3       8 UNK        -0.1912 
     52 C          22.7673  -31.5181  -44.0152 C.2       8 UNK         0.5038 
     53 O          22.9130  -31.7390  -45.2177 O.2       8 UNK        -0.5046 
     54 N          21.6611  -30.9804  -43.4853 N.am      9 UNK        -0.4200 
     55 CA         20.4616  -30.4954  -44.1903 C.3       9 UNK         0.0839 
     56 C          20.6425  -29.1278  -44.9091 C.2       9 UNK         0.5513 
     57 N          21.8085  -28.4975  -44.8518 N.am      9 UNK        -0.7519 
     58 O          19.6860  -28.5930  -45.4667 O.2       9 UNK        -0.4960 
     59 C59        19.7743  -31.5483  -45.1115 C.3       10 UNK        -0.0876 
     60 S60        19.3480  -33.2023  -44.4343 S.3       10 UNK        -0.2414 
     61 C61        19.2895  -33.0685  -42.6105 C.3       10 UNK         0.0169 
     62 H62        16.6597  -25.6869  -48.3505 H         1 UNK         0.0903 
     63 H63        16.8645  -27.4389  -48.5372 H         1 UNK         0.0903 
     64 H64        15.8889  -26.5373  -49.6832 H         1 UNK         0.0903 
     65 H65        14.1814  -27.3742  -45.9704 H         1 UNK         0.3096 
     66 H66        16.9458  -28.0333  -46.3210 H         1 UNK         0.1121 
     67 H67        16.9456  -28.2884  -43.8491 H         1 UNK         0.0849 
     68 H68        15.3603  -27.5540  -43.7432 H         1 UNK         0.0849 
     69 H69        14.4135  -31.2244  -42.8876 H         1 UNK         0.0865 
     70 H70        14.4693  -29.5642  -42.3534 H         1 UNK         0.0865 
     71 H71        16.8061  -32.2765  -43.5164 H         1 UNK         0.1346 
     72 H72        19.7352  -31.4274  -40.5013 H         1 UNK         0.1412 
     73 H73        16.1910  -29.0353  -40.7800 H         1 UNK         0.1426 
     74 H74        18.6628  -30.0326  -38.4754 H         1 UNK         0.0716 
     75 H75        17.6953  -28.6631  -38.9580 H         1 UNK         0.0716 
     76 H76        19.2110  -26.1532  -40.0100 H         1 UNK         0.0695 
     77 H77        18.4108  -27.3035  -41.0450 H         1 UNK         0.0695 
     78 H78        20.6431  -27.6219  -42.2831 H         1 UNK         0.0983 
     79 H79        18.6604  -25.7998  -42.7207 H         1 UNK         0.3095 
     80 H80        18.5690  -24.1763  -44.5311 H         1 UNK         0.0454 
     81 H81        20.3674  -25.1181  -46.8403 H         1 UNK         0.0851 
     82 H82        20.4511  -23.5464  -46.0544 H         1 UNK         0.0851 
     83 H83        19.0240  -23.9860  -46.9800 H         1 UNK         0.0851 
     84 H84        18.7740  -26.9807  -45.4930 H         1 UNK         0.2976 
     85 H85        22.7448  -27.6061  -41.7936 H         1 UNK         0.3116 
     86 H86        24.1296  -25.7964  -40.1226 H         1 UNK         0.0646 
     87 H87        24.5373  -25.5000  -43.1702 H         1 UNK         0.0847 
     88 H88        25.5645  -24.7669  -41.9454 H         1 UNK         0.0847 
     89 H89        23.9030  -24.2453  -42.1123 H         1 UNK         0.0847 
     90 H90        26.5741  -26.2733  -40.5501 H         1 UNK         0.3040 
     91 H91        28.3054  -27.6693  -40.4987 H         1 UNK         0.1015 
     92 H92        26.9897  -28.8719  -42.9886 H         1 UNK         0.0786 
     93 H93        28.6837  -29.0177  -42.5466 H         1 UNK         0.0786 
     94 H94        28.0214  -27.4451  -42.9577 H         1 UNK         0.0786 
     95 H95        26.6801  -28.3740  -38.5765 H         1 UNK         0.3172 
     96 H96        26.1279  -29.8968  -37.0629 H         1 UNK         0.0595 
     97 H97        27.4336  -31.9697  -36.8386 H         1 UNK         0.0839 
     98 H98        28.5053  -30.6502  -37.2766 H         1 UNK         0.0839 
     99 H99        28.0229  -31.8386  -38.4866 H         1 UNK         0.0839 
    100 H100       24.3136  -29.4901  -38.9513 H         1 UNK         0.2998 
    101 H101       22.3464  -30.1067  -39.7128 H         1 UNK         0.0822 
    102 H102       21.1211  -31.9846  -38.6608 H         1 UNK         0.0787 
    103 H103       22.6084  -32.6223  -37.9832 H         1 UNK         0.0787 
    104 H104       21.9846  -31.0636  -37.4433 H         1 UNK         0.0787 
    105 H105       24.1274  -30.3175  -41.5699 H         1 UNK         0.3055 
    106 H106       23.9853  -32.9179  -42.9584 H         1 UNK         0.1106 
    107 H107       25.5015  -31.8077  -44.5618 H         1 UNK         0.0828 
    108 H108       25.2438  -30.2503  -43.7881 H         1 UNK         0.0828 
    109 H109       26.0913  -31.5381  -42.9318 H         1 UNK         0.0828 
    110 H110       21.6618  -30.8338  -42.4884 H         1 UNK         0.2931 
    111 H111       19.7614  -30.2429  -43.3991 H         1 UNK         0.0412 
    112 H112       22.6072  -28.9320  -44.4211 H         1 UNK         0.3472 
    113 H113       21.8871  -27.5697  -45.2428 H         1 UNK         0.3472 
    114 H114       18.8372  -31.1325  -45.4869 H         1 UNK         0.0970 
    115 H115       20.3860  -31.7135  -45.9997 H         1 UNK         0.0970 
    116 H116       20.3056  -32.9452  -42.2384 H         1 UNK         0.0612 
    117 H117       18.9394  -34.0209  -42.2114 H         1 UNK         0.0612 
@<TRIPOS>BOND
     1    1    2 1    
     2    1   62 1    
     3    1   63 1    
     4    1   64 1    
     5    2    3 2    
     6    2    4 am   BACKBONE|DICT|INTERRES
     7    4    5 1    
     8    4   65 1    
     9    5    6 1    
    10    5   25 1    
    11    5   66 1    
    12    6    7 1    
    13    6   67 1    
    14    6   68 1    
    15    7    8 1    
    16    8    9 1    
    17    8   69 1    
    18    8   70 1    
    19    9   10 ar   
    20    9   14 ar   
    21   10   11 ar   
    22   10   71 1    
    23   11   12 ar   
    24   11   61 1    
    25   12   13 ar   
    26   12   72 1    
    27   13   14 ar   
    28   13   15 1    
    29   14   73 1    
    30   15   16 1    
    31   15   74 1    
    32   15   75 1    
    33   16   17 1    
    34   17   18 1    
    35   17   76 1    
    36   17   77 1    
    37   18   19 1    
    38   18   27 1    
    39   18   78 1    
    40   19   20 am   BACKBONE|DICT|INTERRES
    41   19   79 1    
    42   20   21 2    
    43   20   22 1    
    44   22   23 1    
    45   22   24 1    
    46   22   80 1    
    47   23   81 1    
    48   23   82 1    
    49   23   83 1    
    50   24   25 am   BACKBONE|DICT|INTERRES
    51   24   84 1    
    52   25   26 2    
    53   27   28 2    
    54   27   29 am   BACKBONE|DICT|INTERRES
    55   29   30 1    
    56   29   85 1    
    57   30   31 1    
    58   30   32 1    
    59   30   86 1    
    60   31   87 1    
    61   31   88 1    
    62   31   89 1    
    63   32   33 2    
    64   32   34 am   BACKBONE|DICT|INTERRES
    65   34   35 1    
    66   34   90 1    
    67   35   36 1    
    68   35   37 1    
    69   35   91 1    
    70   36   92 1    
    71   36   93 1    
    72   36   94 1    
    73   37   38 2    
    74   37   39 am   BACKBONE|DICT|INTERRES
    75   39   40 1    
    76   39   95 1    
    77   40   41 1    
    78   40   42 1    
    79   40   96 1    
    80   41   97 1    
    81   41   98 1    
    82   41   99 1    
    83   42   43 2    
    84   42   44 am   BACKBONE|DICT|INTERRES
    85   44   45 1    
    86   44  100 1    
    87   45   46 1    
    88   45   47 1    
    89   45  101 1    
    90   46  102 1    
    91   46  103 1    
    92   46  104 1    
    93   47   48 2    
    94   47   49 am   BACKBONE|DICT|INTERRES
    95   49   50 1    
    96   49  105 1    
    97   50   51 1    
    98   50   52 1    
    99   50  106 1    
   100   51  107 1    
   101   51  108 1    
   102   51  109 1    
   103   52   53 2    
   104   52   54 am   BACKBONE|DICT|INTERRES
   105   54   55 1    
   106   54  110 1    
   107   55   56 1    
   108   55   59 1    
   109   55  111 1    
   110   56   57 am   BACKBONE|DICT|INTERRES
   111   56   58 2    
   112   57  112 1    
   113   57  113 1    
   114   59   60 1    
   115   59  114 1    
   116   59  115 1    
   117   60   61 1    
   118   61  116 1    
   119   61  117 1    
@<TRIPOS>SUBSTRUCTURE
     1 UNK         1 GROUP             0       ****    0 ROOT    
