@<TRIPOS>MOLECULE
3R8
117   119    1
SMALL
USER_CHARGES


@<TRIPOS>ATOM
      1 CA         17.5785  -24.6868  -38.9693 C.3       0 UNK        -0.2013 
      2 C          17.6770  -24.5950  -40.4848 C.2       0 UNK         0.4866 
      3 O          17.4602  -23.5222  -41.0493 O.2       0 UNK        -0.5176 
      4 N          17.9914  -25.7152  -41.1466 N.am      1 UNK        -0.4884 
      5 CA         18.1877  -25.8148  -42.5954 C.3       1 UNK         0.0853 
      6 C6         18.3492  -27.2854  -43.0564 C.3       10 UNK        -0.0849 
      7 S7         16.8640  -28.2982  -42.7609 S.3       10 UNK        -0.2776 
      8 C8         17.5984  -29.8987  -42.2672 C.3       10 UNK         0.0316 
      9 C9         18.5197  -30.5417  -43.3077 C.ar      10 UNK        -0.0863 
     10 C10        19.5860  -31.3318  -42.8683 C.ar      10 UNK        -0.1009 
     11 C11        20.4385  -31.9623  -43.7792 C.ar      10 UNK        -0.0712 
     12 C12        20.2323  -31.7820  -45.1492 C.ar      10 UNK        -0.0894 
     13 C13        19.1726  -30.9957  -45.6093 C.ar      10 UNK        -0.0745 
     14 C14        18.3107  -30.3937  -44.6853 C.ar      10 UNK        -0.0972 
     15 C15        18.9484  -30.8172  -47.1058 C.3       10 UNK         0.0209 
     16 S16        20.1565  -29.6812  -47.8667 S.3       10 UNK        -0.2568 
     17 C17        19.6876  -28.0818  -47.1197 C.3       10 UNK        -0.0983 
     18 CA         20.8830  -27.1986  -46.6801 C.3       3 UNK         0.0876 
     19 N          20.3989  -25.9322  -46.1293 N.am      3 UNK        -0.4424 
     20 C          21.1508  -24.9017  -45.7129 C.2       2 UNK         0.4918 
     21 O          22.3713  -24.8331  -45.8600 O.2       2 UNK        -0.4875 
     22 CA         20.4060  -23.7776  -44.9678 C.3       2 UNK         0.0481 
     23 CB         19.9056  -22.7112  -45.9545 C.3       2 UNK        -0.1831 
     24 N          19.2768  -24.3099  -44.1964 N.am      2 UNK        -0.4498 
     25 C          19.4179  -25.0100  -43.0609 C.2       1 UNK         0.5027 
     26 O          20.4775  -25.0983  -42.4363 O.2       1 UNK        -0.4969 
     27 C          21.8092  -27.8975  -45.6604 C.2       3 UNK         0.5005 
     28 O          21.4352  -28.0410  -44.4945 O.2       3 UNK        -0.5279 
     29 N          23.0186  -28.2554  -46.1177 N.am      4 UNK        -0.4463 
     30 CA         24.1274  -28.8689  -45.3720 C.3       4 UNK         0.0283 
     31 CB         23.7107  -30.2336  -44.7895 C.3       4 UNK        -0.1875 
     32 C          24.7747  -27.9756  -44.2931 C.2       4 UNK         0.4949 
     33 O          25.7326  -28.4228  -43.6616 O.2       4 UNK        -0.5039 
     34 N          24.2660  -26.7499  -44.0915 N.am      5 UNK        -0.4663 
     35 CA         24.6755  -25.7009  -43.1426 C.3       5 UNK         0.0242 
     36 CB         26.0947  -25.1926  -43.4605 C.3       5 UNK        -0.1982 
     37 C          24.5448  -26.0630  -41.6493 C.2       5 UNK         0.5017 
     38 O          24.1003  -25.2249  -40.8650 O.2       5 UNK        -0.5012 
     39 N          24.9397  -27.2861  -41.2780 N.am      6 UNK        -0.4439 
     40 CA         24.9010  -27.8269  -39.9181 C.3       6 UNK         0.0297 
     41 CB         25.7980  -29.0741  -39.8519 C.3       6 UNK        -0.2006 
     42 C          23.4831  -28.1677  -39.4282 C.2       6 UNK         0.4892 
     43 O          23.2706  -28.2019  -38.2157 O.2       6 UNK        -0.5089 
     44 N          22.5580  -28.4260  -40.3679 N.am      7 UNK        -0.4243 
     45 CA         21.1543  -28.8021  -40.1506 C.3       7 UNK         0.0196 
     46 CB         20.3612  -27.6146  -39.5667 C.3       7 UNK        -0.2007 
     47 C          20.9945  -30.0931  -39.3202 C.2       7 UNK         0.5020 
     48 O          20.1515  -30.1517  -38.4235 O.2       7 UNK        -0.5147 
     49 N          21.8264  -31.0970  -39.6302 N.am      8 UNK        -0.4734 
     50 CA         21.8340  -32.4190  -38.9992 C.3       8 UNK         0.0238 
     51 CB         23.2778  -32.9647  -39.0237 C.3       8 UNK        -0.1912 
     52 C          20.7936  -33.3435  -39.6662 C.2       8 UNK         0.5038 
     53 O          19.6159  -32.9864  -39.7130 O.2       8 UNK        -0.5046 
     54 N          21.2345  -34.5004  -40.1829 N.am      9 UNK        -0.4200 
     55 CA         20.4203  -35.4818  -40.9262 C.3       9 UNK         0.0839 
     56 C          19.2945  -36.1660  -40.0883 C.2       9 UNK         0.5513 
     57 N          19.3758  -36.1770  -38.7630 N.am      9 UNK        -0.7519 
     58 O          18.3520  -36.7281  -40.6408 O.2       9 UNK        -0.4960 
     59 C59        19.9161  -34.9254  -42.2920 C.3       10 UNK        -0.0876 
     60 S60        21.2775  -34.6060  -43.4679 S.3       10 UNK        -0.2414 
     61 C61        21.5930  -32.8217  -43.2839 C.3       10 UNK         0.0169 
     62 H62        16.5807  -24.3984  -38.6396 H         1 UNK         0.0903 
     63 H63        17.7769  -25.6952  -38.6066 H         1 UNK         0.0903 
     64 H64        18.2988  -24.0130  -38.5060 H         1 UNK         0.0903 
     65 H65        18.1434  -26.5693  -40.6325 H         1 UNK         0.3096 
     66 H66        17.2990  -25.3963  -43.0734 H         1 UNK         0.1121 
     67 H67        19.2108  -27.7451  -42.5680 H         1 UNK         0.0849 
     68 H68        18.5584  -27.3345  -44.1257 H         1 UNK         0.0849 
     69 H69        18.1356  -29.7522  -41.3286 H         1 UNK         0.0865 
     70 H70        16.7898  -30.5971  -42.0487 H         1 UNK         0.0865 
     71 H71        19.7462  -31.4671  -41.8089 H         1 UNK         0.1346 
     72 H72        20.8957  -32.2573  -45.8588 H         1 UNK         0.1412 
     73 H73        17.4796  -29.8024  -45.0428 H         1 UNK         0.1426 
     74 H74        17.9390  -30.4541  -47.3062 H         1 UNK         0.0716 
     75 H75        19.0237  -31.7883  -47.5971 H         1 UNK         0.0716 
     76 H76        19.0252  -28.2562  -46.2728 H         1 UNK         0.0695 
     77 H77        19.0878  -27.5453  -47.8565 H         1 UNK         0.0695 
     78 H78        21.4662  -26.9538  -47.5705 H         1 UNK         0.0983 
     79 H79        19.4080  -25.8861  -45.9550 H         1 UNK         0.3095 
     80 H80        21.1101  -23.3024  -44.2812 H         1 UNK         0.0454 
     81 H81        19.1944  -23.1206  -46.6730 H         1 UNK         0.0851 
     82 H82        20.7353  -22.2888  -46.5230 H         1 UNK         0.0851 
     83 H83        19.4197  -21.8861  -45.4335 H         1 UNK         0.0851 
     84 H84        18.3628  -24.2390  -44.6214 H         1 UNK         0.2976 
     85 H85        23.2242  -28.0631  -47.0890 H         1 UNK         0.3116 
     86 H86        24.9099  -29.0545  -46.1093 H         1 UNK         0.0646 
     87 H87        22.9721  -30.1253  -43.9949 H         1 UNK         0.0847 
     88 H88        23.2841  -30.8774  -45.5585 H         1 UNK         0.0847 
     89 H89        24.5671  -30.7594  -44.3656 H         1 UNK         0.0847 
     90 H90        23.4621  -26.5015  -44.6550 H         1 UNK         0.3040 
     91 H91        23.9850  -24.8728  -43.3148 H         1 UNK         0.1015 
     92 H92        26.3629  -24.3568  -42.8128 H         1 UNK         0.0786 
     93 H93        26.1669  -24.8403  -44.4895 H         1 UNK         0.0786 
     94 H94        26.8484  -25.9676  -43.3174 H         1 UNK         0.0786 
     95 H95        25.3199  -27.8822  -42.0127 H         1 UNK         0.3172 
     96 H96        25.3110  -27.0738  -39.2419 H         1 UNK         0.0595 
     97 H97        25.4532  -29.8573  -40.5284 H         1 UNK         0.0839 
     98 H98        25.8101  -29.4946  -38.8452 H         1 UNK         0.0839 
     99 H99        26.8291  -28.8355  -40.1138 H         1 UNK         0.0839 
    100 H100       22.8475  -28.3518  -41.3331 H         1 UNK         0.2998 
    101 H101       20.7425  -29.0214  -41.1368 H         1 UNK         0.0822 
    102 H102       19.2962  -27.8430  -39.5216 H         1 UNK         0.0787 
    103 H103       20.4853  -26.7205  -40.1775 H         1 UNK         0.0787 
    104 H104       20.6835  -27.3718  -38.5537 H         1 UNK         0.0787 
    105 H105       22.4861  -30.9509  -40.3796 H         1 UNK         0.3055 
    106 H106       21.5345  -32.3165  -37.9535 H         1 UNK         0.1106 
    107 H107       23.9588  -32.2823  -38.5140 H         1 UNK         0.0828 
    108 H108       23.3512  -33.9219  -38.5056 H         1 UNK         0.0828 
    109 H109       23.6517  -33.1000  -40.0396 H         1 UNK         0.0828 
    110 H110       22.2126  -34.7302  -40.0887 H         1 UNK         0.2931 
    111 H111       21.1036  -36.3012  -41.1526 H         1 UNK         0.0412 
    112 H112       20.1487  -35.7332  -38.2937 H         1 UNK         0.3472 
    113 H113       18.6519  -36.6305  -38.2275 H         1 UNK         0.3472 
    114 H114       19.2628  -35.6491  -42.7820 H         1 UNK         0.0970 
    115 H115       19.3066  -34.0325  -42.1549 H         1 UNK         0.0970 
    116 H116       22.4894  -32.5830  -43.8553 H         1 UNK         0.0612 
    117 H117       21.8322  -32.5929  -42.2467 H         1 UNK         0.0612 
@<TRIPOS>BOND
     1    1    2 1    
     2    1   62 1    
     3    1   63 1    
     4    1   64 1    
     5    2    3 2    
     6    2    4 am   BACKBONE|DICT|INTERRES
     7    4    5 1    
     8    4   65 1    
     9    5    6 1    
    10    5   25 1    
    11    5   66 1    
    12    6    7 1    
    13    6   67 1    
    14    6   68 1    
    15    7    8 1    
    16    8    9 1    
    17    8   69 1    
    18    8   70 1    
    19    9   10 ar   
    20    9   14 ar   
    21   10   11 ar   
    22   10   71 1    
    23   11   12 ar   
    24   11   61 1    
    25   12   13 ar   
    26   12   72 1    
    27   13   14 ar   
    28   13   15 1    
    29   14   73 1    
    30   15   16 1    
    31   15   74 1    
    32   15   75 1    
    33   16   17 1    
    34   17   18 1    
    35   17   76 1    
    36   17   77 1    
    37   18   19 1    
    38   18   27 1    
    39   18   78 1    
    40   19   20 am   BACKBONE|DICT|INTERRES
    41   19   79 1    
    42   20   21 2    
    43   20   22 1    
    44   22   23 1    
    45   22   24 1    
    46   22   80 1    
    47   23   81 1    
    48   23   82 1    
    49   23   83 1    
    50   24   25 am   BACKBONE|DICT|INTERRES
    51   24   84 1    
    52   25   26 2    
    53   27   28 2    
    54   27   29 am   BACKBONE|DICT|INTERRES
    55   29   30 1    
    56   29   85 1    
    57   30   31 1    
    58   30   32 1    
    59   30   86 1    
    60   31   87 1    
    61   31   88 1    
    62   31   89 1    
    63   32   33 2    
    64   32   34 am   BACKBONE|DICT|INTERRES
    65   34   35 1    
    66   34   90 1    
    67   35   36 1    
    68   35   37 1    
    69   35   91 1    
    70   36   92 1    
    71   36   93 1    
    72   36   94 1    
    73   37   38 2    
    74   37   39 am   BACKBONE|DICT|INTERRES
    75   39   40 1    
    76   39   95 1    
    77   40   41 1    
    78   40   42 1    
    79   40   96 1    
    80   41   97 1    
    81   41   98 1    
    82   41   99 1    
    83   42   43 2    
    84   42   44 am   BACKBONE|DICT|INTERRES
    85   44   45 1    
    86   44  100 1    
    87   45   46 1    
    88   45   47 1    
    89   45  101 1    
    90   46  102 1    
    91   46  103 1    
    92   46  104 1    
    93   47   48 2    
    94   47   49 am   BACKBONE|DICT|INTERRES
    95   49   50 1    
    96   49  105 1    
    97   50   51 1    
    98   50   52 1    
    99   50  106 1    
   100   51  107 1    
   101   51  108 1    
   102   51  109 1    
   103   52   53 2    
   104   52   54 am   BACKBONE|DICT|INTERRES
   105   54   55 1    
   106   54  110 1    
   107   55   56 1    
   108   55   59 1    
   109   55  111 1    
   110   56   57 am   BACKBONE|DICT|INTERRES
   111   56   58 2    
   112   57  112 1    
   113   57  113 1    
   114   59   60 1    
   115   59  114 1    
   116   59  115 1    
   117   60   61 1    
   118   61  116 1    
   119   61  117 1    
@<TRIPOS>SUBSTRUCTURE
     1 UNK         1 GROUP             0       ****    0 ROOT    
