@<TRIPOS>MOLECULE
3R8
117   119    1
SMALL
USER_CHARGES


@<TRIPOS>ATOM
      1 CA         15.0215  -28.8900  -44.7361 C.3       0 UNK        -0.2013 
      2 C          15.9294  -28.0118  -45.5828 C.2       0 UNK         0.4866 
      3 O          15.4458  -27.3030  -46.4668 O.2       0 UNK        -0.5176 
      4 N          17.2392  -28.0591  -45.3160 N.am      1 UNK        -0.4884 
      5 CA         18.2675  -27.2410  -45.9707 C.3       1 UNK         0.0853 
      6 C6         19.5872  -28.0327  -46.2061 C.3       10 UNK        -0.0849 
      7 S7         19.3379  -29.6458  -47.0308 S.3       10 UNK        -0.2776 
      8 C8         19.8637  -30.8330  -45.7485 C.3       10 UNK         0.0316 
      9 C9         18.9255  -30.8418  -44.5500 C.ar      10 UNK        -0.0863 
     10 C10        17.7700  -31.6286  -44.5652 C.ar      10 UNK        -0.1009 
     11 C11        16.9171  -31.6587  -43.4573 C.ar      10 UNK        -0.0712 
     12 C12        17.2094  -30.8677  -42.3412 C.ar      10 UNK        -0.0894 
     13 C13        18.3566  -30.0715  -42.3197 C.ar      10 UNK        -0.0745 
     14 C14        19.2191  -30.0770  -43.4178 C.ar      10 UNK        -0.0972 
     15 C15        18.6732  -29.1983  -41.1181 C.3       10 UNK         0.0209 
     16 S16        18.2463  -27.4664  -41.4657 S.3       10 UNK        -0.2568 
     17 C17        19.5484  -26.5954  -40.5329 C.3       10 UNK        -0.0983 
     18 CA         20.8685  -26.4621  -41.3452 C.3       3 UNK         0.0876 
     19 N          20.7015  -25.8000  -42.6465 N.am      3 UNK        -0.4424 
     20 C          20.2158  -24.5763  -42.9049 C.2       2 UNK         0.4918 
     21 O          19.8421  -23.7682  -42.0541 O.2       2 UNK        -0.4875 
     22 CA         20.0958  -24.2098  -44.3979 C.3       2 UNK         0.0481 
     23 CB         21.4244  -23.6401  -44.9210 C.3       2 UNK        -0.1831 
     24 N          19.6867  -25.3513  -45.2284 N.am      2 UNK        -0.4498 
     25 C          18.4781  -25.9345  -45.1640 C.2       1 UNK         0.5027 
     26 O          17.5548  -25.4723  -44.4883 O.2       1 UNK        -0.4969 
     27 C          22.0040  -25.8532  -40.4931 C.2       3 UNK         0.5005 
     28 O          22.4834  -24.7504  -40.7694 O.2       3 UNK        -0.5279 
     29 N          22.4318  -26.6110  -39.4711 N.am      4 UNK        -0.4463 
     30 CA         23.4455  -26.3081  -38.4466 C.3       4 UNK         0.0283 
     31 CB         23.0672  -25.0621  -37.6224 C.3       4 UNK        -0.1875 
     32 C          24.8882  -26.2064  -38.9726 C.2       4 UNK         0.4949 
     33 O          25.7926  -26.7865  -38.3701 O.2       4 UNK        -0.5039 
     34 N          25.0877  -25.5021  -40.0913 N.am      5 UNK        -0.4663 
     35 CA         26.3537  -25.3621  -40.8115 C.3       5 UNK         0.0242 
     36 CB         26.2678  -24.1233  -41.7220 C.3       5 UNK        -0.1982 
     37 C          26.6783  -26.6481  -41.5930 C.2       5 UNK         0.5017 
     38 O          26.5826  -26.6655  -42.8209 O.2       5 UNK        -0.5012 
     39 N          26.9822  -27.7230  -40.8524 N.am      6 UNK        -0.4439 
     40 CA         27.2715  -29.1023  -41.2770 C.3       6 UNK         0.0297 
     41 CB         28.4866  -29.1597  -42.2235 C.3       6 UNK        -0.2006 
     42 C          26.0720  -29.8699  -41.8694 C.2       6 UNK         0.4892 
     43 O          26.0127  -31.0898  -41.7103 O.2       6 UNK        -0.5089 
     44 N          25.1474  -29.1642  -42.5316 N.am      7 UNK        -0.4243 
     45 CA         23.9122  -29.6923  -43.1069 C.3       7 UNK         0.0196 
     46 CB         23.2394  -28.5855  -43.9353 C.3       7 UNK        -0.2007 
     47 C          22.9545  -30.2250  -42.0276 C.2       7 UNK         0.5020 
     48 O          22.6856  -29.5259  -41.0476 O.2       7 UNK        -0.5147 
     49 N          22.4328  -31.4329  -42.2526 N.am      8 UNK        -0.4734 
     50 CA         21.4778  -32.1348  -41.4000 C.3       8 UNK         0.0238 
     51 CB         22.2130  -32.8036  -40.2238 C.3       8 UNK        -0.1912 
     52 C          20.7399  -33.1700  -42.2582 C.2       8 UNK         0.5038 
     53 O          21.2430  -33.5405  -43.3235 O.2       8 UNK        -0.5046 
     54 N          19.5731  -33.6195  -41.7794 N.am      9 UNK        -0.4200 
     55 CA         18.7106  -34.5900  -42.4765 C.3       9 UNK         0.0839 
     56 C          19.2100  -36.0651  -42.4341 C.2       9 UNK         0.5513 
     57 N          20.2226  -36.4032  -41.6445 N.am      9 UNK        -0.7519 
     58 O          18.6716  -36.9187  -43.1339 O.2       9 UNK        -0.4960 
     59 C59        17.2222  -34.4613  -42.0291 C.3       10 UNK        -0.0876 
     60 S60        16.0908  -34.3244  -43.4572 S.3       10 UNK        -0.2414 
     61 C61        15.6796  -32.5468  -43.4607 C.3       10 UNK         0.0169 
     62 H62        15.4481  -29.0650  -43.7490 H         1 UNK         0.0903 
     63 H63        14.0505  -28.4147  -44.5992 H         1 UNK         0.0903 
     64 H64        14.8671  -29.8519  -45.2235 H         1 UNK         0.0903 
     65 H65        17.5724  -28.6678  -44.5801 H         1 UNK         0.3096 
     66 H66        17.8997  -26.9325  -46.9519 H         1 UNK         0.1121 
     67 H67        20.2601  -27.4606  -46.8469 H         1 UNK         0.0849 
     68 H68        20.1236  -28.1813  -45.2702 H         1 UNK         0.0849 
     69 H69        19.8984  -31.8313  -46.1876 H         1 UNK         0.0865 
     70 H70        20.8851  -30.6117  -45.4369 H         1 UNK         0.0865 
     71 H71        17.5413  -32.2326  -45.4327 H         1 UNK         0.1346 
     72 H72        16.5449  -30.8728  -41.4879 H         1 UNK         0.1412 
     73 H73        20.1154  -29.4748  -43.3862 H         1 UNK         0.1426 
     74 H74        19.7338  -29.2838  -40.8804 H         1 UNK         0.0716 
     75 H75        18.1302  -29.5337  -40.2333 H         1 UNK         0.0716 
     76 H76        19.7105  -27.1295  -39.5950 H         1 UNK         0.0695 
     77 H77        19.1670  -25.6126  -40.2519 H         1 UNK         0.0695 
     78 H78        21.1993  -27.4698  -41.5937 H         1 UNK         0.0983 
     79 H79        20.9880  -26.3474  -43.4416 H         1 UNK         0.3095 
     80 H80        19.3351  -23.4318  -44.4917 H         1 UNK         0.0454 
     81 H81        22.2300  -24.3737  -44.8744 H         1 UNK         0.0851 
     82 H82        21.7367  -22.7788  -44.3286 H         1 UNK         0.0851 
     83 H83        21.3338  -23.3040  -45.9540 H         1 UNK         0.0851 
     84 H84        20.3883  -25.7410  -45.8408 H         1 UNK         0.2976 
     85 H85        22.0418  -27.5423  -39.3985 H         1 UNK         0.3116 
     86 H86        23.4279  -27.1607  -37.7656 H         1 UNK         0.0646 
     87 H87        22.0766  -25.1649  -37.1797 H         1 UNK         0.0847 
     88 H88        23.7727  -24.9090  -36.8047 H         1 UNK         0.0847 
     89 H89        23.0721  -24.1538  -38.2256 H         1 UNK         0.0847 
     90 H90        24.2638  -25.0767  -40.5136 H         1 UNK         0.3040 
     91 H91        27.1587  -25.1972  -40.0917 H         1 UNK         0.1015 
     92 H92        26.1019  -23.2161  -41.1407 H         1 UNK         0.0786 
     93 H93        25.4564  -24.2083  -42.4463 H         1 UNK         0.0786 
     94 H94        27.1937  -23.9844  -42.2818 H         1 UNK         0.0786 
     95 H95        26.9107  -27.5931  -39.8467 H         1 UNK         0.3172 
     96 H96        27.5476  -29.6300  -40.3628 H         1 UNK         0.0595 
     97 H97        28.2840  -28.6774  -43.1801 H         1 UNK         0.0839 
     98 H98        28.7627  -30.1931  -42.4371 H         1 UNK         0.0839 
     99 H99        29.3582  -28.6770  -41.7815 H         1 UNK         0.0839 
    100 H100       25.3259  -28.1733  -42.6510 H         1 UNK         0.2998 
    101 H101       24.1831  -30.5107  -43.7776 H         1 UNK         0.0822 
    102 H102       22.3109  -28.9386  -44.3822 H         1 UNK         0.0787 
    103 H103       23.0060  -27.7132  -43.3248 H         1 UNK         0.0787 
    104 H104       23.8840  -28.2566  -44.7508 H         1 UNK         0.0787 
    105 H105       22.6547  -31.9353  -43.1045 H         1 UNK         0.3055 
    106 H106       20.7475  -31.4211  -41.0164 H         1 UNK         0.1106 
    107 H107       22.7292  -32.0668  -39.6080 H         1 UNK         0.0828 
    108 H108       21.5179  -33.3349  -39.5728 H         1 UNK         0.0828 
    109 H109       22.9543  -33.5243  -40.5715 H         1 UNK         0.0828 
    110 H110       19.2429  -33.2885  -40.8855 H         1 UNK         0.2931 
    111 H111       18.7666  -34.3150  -43.5319 H         1 UNK         0.0412 
    112 H112       20.6761  -35.7126  -41.0691 H         1 UNK         0.3472 
    113 H113       20.5385  -37.3605  -41.6288 H         1 UNK         0.3472 
    114 H114       16.9061  -35.3112  -41.4208 H         1 UNK         0.0970 
    115 H115       17.0735  -33.5938  -41.3853 H         1 UNK         0.0970 
    116 H116       15.0814  -32.3257  -44.3455 H         1 UNK         0.0612 
    117 H117       15.0450  -32.3311  -42.5998 H         1 UNK         0.0612 
@<TRIPOS>BOND
     1    1    2 1    
     2    1   62 1    
     3    1   63 1    
     4    1   64 1    
     5    2    3 2    
     6    2    4 am   BACKBONE|DICT|INTERRES
     7    4    5 1    
     8    4   65 1    
     9    5    6 1    
    10    5   25 1    
    11    5   66 1    
    12    6    7 1    
    13    6   67 1    
    14    6   68 1    
    15    7    8 1    
    16    8    9 1    
    17    8   69 1    
    18    8   70 1    
    19    9   10 ar   
    20    9   14 ar   
    21   10   11 ar   
    22   10   71 1    
    23   11   12 ar   
    24   11   61 1    
    25   12   13 ar   
    26   12   72 1    
    27   13   14 ar   
    28   13   15 1    
    29   14   73 1    
    30   15   16 1    
    31   15   74 1    
    32   15   75 1    
    33   16   17 1    
    34   17   18 1    
    35   17   76 1    
    36   17   77 1    
    37   18   19 1    
    38   18   27 1    
    39   18   78 1    
    40   19   20 am   BACKBONE|DICT|INTERRES
    41   19   79 1    
    42   20   21 2    
    43   20   22 1    
    44   22   23 1    
    45   22   24 1    
    46   22   80 1    
    47   23   81 1    
    48   23   82 1    
    49   23   83 1    
    50   24   25 am   BACKBONE|DICT|INTERRES
    51   24   84 1    
    52   25   26 2    
    53   27   28 2    
    54   27   29 am   BACKBONE|DICT|INTERRES
    55   29   30 1    
    56   29   85 1    
    57   30   31 1    
    58   30   32 1    
    59   30   86 1    
    60   31   87 1    
    61   31   88 1    
    62   31   89 1    
    63   32   33 2    
    64   32   34 am   BACKBONE|DICT|INTERRES
    65   34   35 1    
    66   34   90 1    
    67   35   36 1    
    68   35   37 1    
    69   35   91 1    
    70   36   92 1    
    71   36   93 1    
    72   36   94 1    
    73   37   38 2    
    74   37   39 am   BACKBONE|DICT|INTERRES
    75   39   40 1    
    76   39   95 1    
    77   40   41 1    
    78   40   42 1    
    79   40   96 1    
    80   41   97 1    
    81   41   98 1    
    82   41   99 1    
    83   42   43 2    
    84   42   44 am   BACKBONE|DICT|INTERRES
    85   44   45 1    
    86   44  100 1    
    87   45   46 1    
    88   45   47 1    
    89   45  101 1    
    90   46  102 1    
    91   46  103 1    
    92   46  104 1    
    93   47   48 2    
    94   47   49 am   BACKBONE|DICT|INTERRES
    95   49   50 1    
    96   49  105 1    
    97   50   51 1    
    98   50   52 1    
    99   50  106 1    
   100   51  107 1    
   101   51  108 1    
   102   51  109 1    
   103   52   53 2    
   104   52   54 am   BACKBONE|DICT|INTERRES
   105   54   55 1    
   106   54  110 1    
   107   55   56 1    
   108   55   59 1    
   109   55  111 1    
   110   56   57 am   BACKBONE|DICT|INTERRES
   111   56   58 2    
   112   57  112 1    
   113   57  113 1    
   114   59   60 1    
   115   59  114 1    
   116   59  115 1    
   117   60   61 1    
   118   61  116 1    
   119   61  117 1    
@<TRIPOS>SUBSTRUCTURE
     1 UNK         1 GROUP             0       ****    0 ROOT    
