@<TRIPOS>MOLECULE
3R8
117   119    1
SMALL
USER_CHARGES


@<TRIPOS>ATOM
      1 CA         17.7157  -30.3086  -47.2396 C.3       0 UNK        -0.2013 
      2 C          17.6886  -28.9347  -47.9020 C.2       0 UNK         0.4866 
      3 O          17.7817  -28.8553  -49.1252 O.2       0 UNK        -0.5176 
      4 N          17.5714  -27.8278  -47.1579 N.am      1 UNK        -0.4884 
      5 CA         17.4830  -27.7288  -45.6973 C.3       1 UNK         0.0853 
      6 C6         16.0676  -27.3012  -45.2210 C.3       10 UNK        -0.0849 
      7 S7         14.8592  -28.6577  -45.3999 S.3       10 UNK        -0.2776 
      8 C8         14.5061  -29.1110  -43.6636 C.3       10 UNK         0.0316 
      9 C9         15.7577  -29.3673  -42.8274 C.ar      10 UNK        -0.0863 
     10 C10        16.7390  -30.2622  -43.2621 C.ar      10 UNK        -0.1009 
     11 C11        17.9032  -30.4587  -42.5150 C.ar      10 UNK        -0.0712 
     12 C12        18.0603  -29.7993  -41.2923 C.ar      10 UNK        -0.0894 
     13 C13        17.0754  -28.9175  -40.8316 C.ar      10 UNK        -0.0745 
     14 C14        15.9321  -28.7032  -41.6091 C.ar      10 UNK        -0.0972 
     15 C15        17.2136  -28.2006  -39.4901 C.3       10 UNK         0.0209 
     16 S16        18.8539  -27.4576  -39.1921 S.3       10 UNK        -0.2568 
     17 C17        19.0539  -26.3381  -40.6193 C.3       10 UNK        -0.0983 
     18 CA         20.4481  -26.5230  -41.2724 C.3       3 UNK         0.0876 
     19 N          20.3920  -26.3555  -42.7238 N.am      3 UNK        -0.4424 
     20 C          21.3739  -26.6614  -43.5803 C.2       2 UNK         0.4918 
     21 O          22.4665  -27.1140  -43.2341 O.2       2 UNK        -0.4875 
     22 CA         21.0647  -26.4408  -45.0765 C.3       2 UNK         0.0481 
     23 CB         22.2286  -26.8797  -45.9846 C.3       2 UNK        -0.1831 
     24 N          19.8476  -27.1437  -45.4969 N.am      2 UNK        -0.4498 
     25 C          18.5887  -26.7697  -45.2269 C.2       1 UNK         0.5027 
     26 O          18.3045  -25.7233  -44.6399 O.2       1 UNK        -0.4969 
     27 C          21.5004  -25.5918  -40.6355 C.2       3 UNK         0.5005 
     28 O          21.7909  -24.5242  -41.1834 O.2       3 UNK        -0.5279 
     29 N          22.0619  -26.0199  -39.4969 N.am      4 UNK        -0.4463 
     30 CA         23.1318  -25.3911  -38.7048 C.3       4 UNK         0.0283 
     31 CB         22.7599  -23.9668  -38.2480 C.3       4 UNK        -0.1875 
     32 C          24.5126  -25.4226  -39.3857 C.2       4 UNK         0.4949 
     33 O          25.5063  -25.6782  -38.7055 O.2       4 UNK        -0.5039 
     34 N          24.5566  -25.2159  -40.7090 N.am      5 UNK        -0.4663 
     35 CA         25.7242  -25.4627  -41.5608 C.3       5 UNK         0.0242 
     36 CB         25.4658  -24.8870  -42.9624 C.3       5 UNK        -0.1982 
     37 C          26.0675  -26.9616  -41.6396 C.2       5 UNK         0.5017 
     38 O          27.2464  -27.3160  -41.6697 O.2       5 UNK        -0.5012 
     39 N          25.0297  -27.8043  -41.6261 N.am      6 UNK        -0.4439 
     40 CA         25.0878  -29.2491  -41.4602 C.3       6 UNK         0.0297 
     41 CB         25.0212  -29.9206  -42.8405 C.3       6 UNK        -0.2006 
     42 C          23.8993  -29.6624  -40.5830 C.2       6 UNK         0.4892 
     43 O          22.8693  -28.9847  -40.5943 O.2       6 UNK        -0.5089 
     44 N          24.0569  -30.7631  -39.8392 N.am      7 UNK        -0.4243 
     45 CA         23.0002  -31.3245  -38.9929 C.3       7 UNK         0.0196 
     46 CB         23.6284  -32.0654  -37.8001 C.3       7 UNK        -0.2007 
     47 C          22.0771  -32.2561  -39.7918 C.2       7 UNK         0.5020 
     48 O          20.8566  -32.1251  -39.7094 O.2       7 UNK        -0.5147 
     49 N          22.6829  -33.1822  -40.5473 N.am      8 UNK        -0.4734 
     50 CA         21.9820  -34.1989  -41.3396 C.3       8 UNK         0.0238 
     51 CB         22.7978  -35.5028  -41.2949 C.3       8 UNK        -0.1912 
     52 C          21.7367  -33.7734  -42.7978 C.2       8 UNK         0.5038 
     53 O          21.0188  -34.4806  -43.5064 O.2       8 UNK        -0.5046 
     54 N          22.3348  -32.6500  -43.2195 N.am      9 UNK        -0.4200 
     55 CA         22.3408  -32.1296  -44.5980 C.3       9 UNK         0.0839 
     56 C          23.1027  -33.0577  -45.5959 C.2       9 UNK         0.5513 
     57 N          22.9803  -32.8351  -46.8983 N.am      9 UNK        -0.7519 
     58 O          23.8542  -33.9495  -45.2054 O.2       9 UNK        -0.4960 
     59 C59        20.9268  -31.7025  -45.0907 C.3       10 UNK        -0.0876 
     60 S60        20.1752  -30.4039  -44.0522 S.3       10 UNK        -0.2414 
     61 C61        18.9985  -31.3636  -43.0496 C.3       10 UNK         0.0169 
     62 H62        18.5867  -30.4128  -46.5959 H         1 UNK         0.0903 
     63 H63        16.8161  -30.4769  -46.6502 H         1 UNK         0.0903 
     64 H64        17.7659  -31.0947  -47.9927 H         1 UNK         0.0903 
     65 H65        17.5809  -26.9359  -47.6342 H         1 UNK         0.3096 
     66 H66        17.7252  -28.6795  -45.2241 H         1 UNK         0.1121 
     67 H67        16.0811  -26.9840  -44.1765 H         1 UNK         0.0849 
     68 H68        15.7148  -26.4380  -45.7880 H         1 UNK         0.0849 
     69 H69        13.9018  -28.3185  -43.2192 H         1 UNK         0.0865 
     70 H70        13.8861  -30.0084  -43.6532 H         1 UNK         0.0865 
     71 H71        16.6117  -30.7803  -44.2025 H         1 UNK         0.1346 
     72 H72        18.9561  -29.9633  -40.7080 H         1 UNK         0.1412 
     73 H73        15.1705  -28.0187  -41.2606 H         1 UNK         0.1426 
     74 H74        17.0067  -28.9156  -38.6930 H         1 UNK         0.0716 
     75 H75        16.4646  -27.4126  -39.3968 H         1 UNK         0.0716 
     76 H76        18.8800  -25.3081  -40.3009 H         1 UNK         0.0695 
     77 H77        18.2660  -26.5526  -41.3425 H         1 UNK         0.0695 
     78 H78        20.7754  -27.5538  -41.1197 H         1 UNK         0.0983 
     79 H79        19.5405  -25.9627  -43.1092 H         1 UNK         0.3095 
     80 H80        20.9163  -25.3687  -45.2209 H         1 UNK         0.0454 
     81 H81        22.4399  -27.9451  -45.8821 H         1 UNK         0.0851 
     82 H82        23.1438  -26.3414  -45.7342 H         1 UNK         0.0851 
     83 H83        22.0136  -26.6777  -47.0339 H         1 UNK         0.0851 
     84 H84        19.9902  -28.0254  -45.9676 H         1 UNK         0.2976 
     85 H85        21.7730  -26.9313  -39.1643 H         1 UNK         0.3116 
     86 H86        23.2177  -26.0044  -37.8063 H         1 UNK         0.0646 
     87 H87        22.7057  -23.2670  -39.0821 H         1 UNK         0.0847 
     88 H88        23.5050  -23.5782  -37.5527 H         1 UNK         0.0847 
     89 H89        21.7988  -23.9527  -37.7342 H         1 UNK         0.0847 
     90 H90        23.6843  -24.9686  -41.1684 H         1 UNK         0.3040 
     91 H91        26.5819  -24.9462  -41.1242 H         1 UNK         0.1015 
     92 H92        24.6068  -25.3585  -43.4415 H         1 UNK         0.0786 
     93 H93        26.3280  -25.0427  -43.6123 H         1 UNK         0.0786 
     94 H94        25.2798  -23.8137  -42.9221 H         1 UNK         0.0786 
     95 H95        24.0867  -27.4287  -41.6225 H         1 UNK         0.3172 
     96 H96        26.0135  -29.5313  -40.9541 H         1 UNK         0.0595 
     97 H97        25.0192  -31.0076  -42.7556 H         1 UNK         0.0839 
     98 H98        25.8790  -29.6449  -43.4540 H         1 UNK         0.0839 
     99 H99        24.1203  -29.6220  -43.3780 H         1 UNK         0.0839 
    100 H100       24.9403  -31.2526  -39.8638 H         1 UNK         0.2998 
    101 H101       22.3873  -30.5133  -38.5922 H         1 UNK         0.0822 
    102 H102       22.8568  -32.4906  -37.1565 H         1 UNK         0.0787 
    103 H103       24.2746  -32.8843  -38.1183 H         1 UNK         0.0787 
    104 H104       24.2235  -31.3895  -37.1856 H         1 UNK         0.0787 
    105 H105       23.6916  -33.2267  -40.5449 H         1 UNK         0.3055 
    106 H106       21.0028  -34.3972  -40.8969 H         1 UNK         0.1106 
    107 H107       22.2881  -36.3021  -41.8351 H         1 UNK         0.0828 
    108 H108       23.7818  -35.3806  -41.7495 H         1 UNK         0.0828 
    109 H109       22.9397  -35.8480  -40.2707 H         1 UNK         0.0828 
    110 H110       22.8941  -32.1409  -42.5541 H         1 UNK         0.2931 
    111 H111       22.9493  -31.2275  -44.5562 H         1 UNK         0.0412 
    112 H112       22.4045  -32.0901  -47.2561 H         1 UNK         0.3472 
    113 H113       23.4897  -33.4227  -47.5403 H         1 UNK         0.3472 
    114 H114       20.9823  -31.2846  -46.0960 H         1 UNK         0.0970 
    115 H115       20.2619  -32.5636  -45.1680 H         1 UNK         0.0970 
    116 H116       19.5289  -31.8435  -42.2265 H         1 UNK         0.0612 
    117 H117       18.5571  -32.1628  -43.6466 H         1 UNK         0.0612 
@<TRIPOS>BOND
     1    1    2 1    
     2    1   62 1    
     3    1   63 1    
     4    1   64 1    
     5    2    3 2    
     6    2    4 am   BACKBONE|DICT|INTERRES
     7    4    5 1    
     8    4   65 1    
     9    5    6 1    
    10    5   25 1    
    11    5   66 1    
    12    6    7 1    
    13    6   67 1    
    14    6   68 1    
    15    7    8 1    
    16    8    9 1    
    17    8   69 1    
    18    8   70 1    
    19    9   10 ar   
    20    9   14 ar   
    21   10   11 ar   
    22   10   71 1    
    23   11   12 ar   
    24   11   61 1    
    25   12   13 ar   
    26   12   72 1    
    27   13   14 ar   
    28   13   15 1    
    29   14   73 1    
    30   15   16 1    
    31   15   74 1    
    32   15   75 1    
    33   16   17 1    
    34   17   18 1    
    35   17   76 1    
    36   17   77 1    
    37   18   19 1    
    38   18   27 1    
    39   18   78 1    
    40   19   20 am   BACKBONE|DICT|INTERRES
    41   19   79 1    
    42   20   21 2    
    43   20   22 1    
    44   22   23 1    
    45   22   24 1    
    46   22   80 1    
    47   23   81 1    
    48   23   82 1    
    49   23   83 1    
    50   24   25 am   BACKBONE|DICT|INTERRES
    51   24   84 1    
    52   25   26 2    
    53   27   28 2    
    54   27   29 am   BACKBONE|DICT|INTERRES
    55   29   30 1    
    56   29   85 1    
    57   30   31 1    
    58   30   32 1    
    59   30   86 1    
    60   31   87 1    
    61   31   88 1    
    62   31   89 1    
    63   32   33 2    
    64   32   34 am   BACKBONE|DICT|INTERRES
    65   34   35 1    
    66   34   90 1    
    67   35   36 1    
    68   35   37 1    
    69   35   91 1    
    70   36   92 1    
    71   36   93 1    
    72   36   94 1    
    73   37   38 2    
    74   37   39 am   BACKBONE|DICT|INTERRES
    75   39   40 1    
    76   39   95 1    
    77   40   41 1    
    78   40   42 1    
    79   40   96 1    
    80   41   97 1    
    81   41   98 1    
    82   41   99 1    
    83   42   43 2    
    84   42   44 am   BACKBONE|DICT|INTERRES
    85   44   45 1    
    86   44  100 1    
    87   45   46 1    
    88   45   47 1    
    89   45  101 1    
    90   46  102 1    
    91   46  103 1    
    92   46  104 1    
    93   47   48 2    
    94   47   49 am   BACKBONE|DICT|INTERRES
    95   49   50 1    
    96   49  105 1    
    97   50   51 1    
    98   50   52 1    
    99   50  106 1    
   100   51  107 1    
   101   51  108 1    
   102   51  109 1    
   103   52   53 2    
   104   52   54 am   BACKBONE|DICT|INTERRES
   105   54   55 1    
   106   54  110 1    
   107   55   56 1    
   108   55   59 1    
   109   55  111 1    
   110   56   57 am   BACKBONE|DICT|INTERRES
   111   56   58 2    
   112   57  112 1    
   113   57  113 1    
   114   59   60 1    
   115   59  114 1    
   116   59  115 1    
   117   60   61 1    
   118   61  116 1    
   119   61  117 1    
@<TRIPOS>SUBSTRUCTURE
     1 UNK         1 GROUP             0       ****    0 ROOT    
