@<TRIPOS>MOLECULE
3R8
117   119    1
SMALL
USER_CHARGES


@<TRIPOS>ATOM
      1 CA         14.1651  -24.1410  -45.3644 C.3       0 UNK        -0.2013 
      2 C          15.5792  -24.2449  -44.8124 C.2       0 UNK         0.4866 
      3 O          16.1647  -23.2245  -44.4506 O.2       0 UNK        -0.5176 
      4 N          16.1197  -25.4705  -44.7475 N.am      1 UNK        -0.4884 
      5 CA         17.4610  -25.8250  -44.2637 C.3       1 UNK         0.0853 
      6 C6         17.6476  -25.6193  -42.7321 C.3       10 UNK        -0.0849 
      7 S7         16.8472  -26.9362  -41.7527 S.3       10 UNK        -0.2776 
      8 C8         18.2752  -27.7059  -40.9044 C.3       10 UNK         0.0316 
      9 C9         18.8982  -28.8636  -41.6819 C.ar      10 UNK        -0.0863 
     10 C10        19.0288  -30.1172  -41.0770 C.ar      10 UNK        -0.1009 
     11 C11        19.6552  -31.1730  -41.7467 C.ar      10 UNK        -0.0712 
     12 C12        20.1142  -30.9815  -43.0551 C.ar      10 UNK        -0.0894 
     13 C13        19.9632  -29.7438  -43.6869 C.ar      10 UNK        -0.0745 
     14 C14        19.3846  -28.6854  -42.9805 C.ar      10 UNK        -0.0972 
     15 C15        20.3680  -29.5601  -45.1467 C.3       10 UNK         0.0209 
     16 S16        22.1610  -29.3499  -45.4059 S.3       10 UNK        -0.2568 
     17 C17        22.5429  -27.8263  -44.4815 C.3       10 UNK        -0.0983 
     18 CA         22.6435  -26.5498  -45.3529 C.3       3 UNK         0.0876 
     19 N          21.3701  -26.2572  -46.0182 N.am      3 UNK        -0.4424 
     20 C          21.1488  -25.2912  -46.9199 C.2       2 UNK         0.4918 
     21 O          22.0360  -24.5847  -47.3982 O.2       2 UNK        -0.4875 
     22 CA         19.6813  -25.0501  -47.3383 C.3       2 UNK         0.0481 
     23 CB         19.4094  -25.6877  -48.7101 C.3       2 UNK        -0.1831 
     24 N          18.6705  -25.5243  -46.3778 N.am      2 UNK        -0.4498 
     25 C          18.5756  -25.1483  -45.0923 C.2       1 UNK         0.5027 
     26 O          19.3483  -24.3474  -44.5617 O.2       1 UNK        -0.4969 
     27 C          23.1413  -25.3871  -44.4620 C.2       3 UNK         0.5005 
     28 O          24.3495  -25.2782  -44.2496 O.2       3 UNK        -0.5279 
     29 N          22.2103  -24.5786  -43.9229 N.am      4 UNK        -0.4463 
     30 CA         22.4142  -23.5004  -42.9419 C.3       4 UNK         0.0283 
     31 CB         23.2868  -22.3706  -43.5283 C.3       4 UNK        -0.1875 
     32 C          22.9198  -23.9816  -41.5624 C.2       4 UNK         0.4949 
     33 O          23.3880  -23.1654  -40.7676 O.2       4 UNK        -0.5039 
     34 N          22.7953  -25.2846  -41.2892 N.am      5 UNK        -0.4663 
     35 CA         23.1935  -25.9878  -40.0727 C.3       5 UNK         0.0242 
     36 CB         24.7307  -26.0667  -39.9783 C.3       5 UNK        -0.1982 
     37 C          22.5856  -27.3948  -40.1373 C.2       5 UNK         0.5017 
     38 O          22.1618  -27.8196  -41.2140 O.2       5 UNK        -0.5012 
     39 N          22.5773  -28.1147  -39.0091 N.am      6 UNK        -0.4439 
     40 CA         22.1032  -29.5001  -38.9126 C.3       6 UNK         0.0297 
     41 CB         21.6797  -29.7891  -37.4605 C.3       6 UNK        -0.2006 
     42 C          23.1552  -30.4990  -39.4370 C.2       6 UNK         0.4892 
     43 O          23.6879  -31.2981  -38.6647 O.2       6 UNK        -0.5089 
     44 N          23.4698  -30.4034  -40.7336 N.am      7 UNK        -0.4243 
     45 CA         24.4578  -31.2338  -41.4173 C.3       7 UNK         0.0196 
     46 CB         24.9654  -30.4897  -42.6633 C.3       7 UNK        -0.2007 
     47 C          23.8503  -32.5936  -41.7917 C.2       7 UNK         0.5020 
     48 O          22.9461  -32.6419  -42.6254 O.2       7 UNK        -0.5147 
     49 N          24.3746  -33.6681  -41.1883 N.am      8 UNK        -0.4734 
     50 CA         23.9502  -35.0637  -41.3533 C.3       8 UNK         0.0238 
     51 CB         24.1788  -35.5559  -42.8031 C.3       8 UNK        -0.1912 
     52 C          22.5286  -35.3030  -40.8029 C.2       8 UNK         0.5038 
     53 O          22.3018  -35.0257  -39.6240 O.2       8 UNK        -0.5046 
     54 N          21.6263  -35.8514  -41.6298 N.am      9 UNK        -0.4200 
     55 CA         20.2820  -36.3426  -41.2638 C.3       9 UNK         0.0839 
     56 C          20.2929  -37.6177  -40.3631 C.2       9 UNK         0.5513 
     57 N          21.3925  -38.3573  -40.2741 N.am      9 UNK        -0.7519 
     58 O          19.2820  -37.9663  -39.7580 O.2       9 UNK        -0.4960 
     59 C59        19.3259  -35.2402  -40.7182 C.3       10 UNK        -0.0876 
     60 S60        19.0352  -33.8792  -41.8978 S.3       10 UNK        -0.2414 
     61 C61        19.8601  -32.5051  -41.0384 C.3       10 UNK         0.0169 
     62 H62        14.1536  -23.5046  -46.2490 H         1 UNK         0.0903 
     63 H63        13.7609  -25.1143  -45.6421 H         1 UNK         0.0903 
     64 H64        13.5035  -23.7002  -44.6192 H         1 UNK         0.0903 
     65 H65        15.5634  -26.2547  -45.0607 H         1 UNK         0.3096 
     66 H66        17.5572  -26.8912  -44.4703 H         1 UNK         0.1121 
     67 H67        18.7043  -25.5944  -42.4612 H         1 UNK         0.0849 
     68 H68        17.2508  -24.6532  -42.4169 H         1 UNK         0.0849 
     69 H69        19.0433  -26.9631  -40.6849 H         1 UNK         0.0865 
     70 H70        17.9252  -28.0573  -39.9326 H         1 UNK         0.0865 
     71 H71        18.6718  -30.2636  -40.0668 H         1 UNK         0.1346 
     72 H72        20.5858  -31.8000  -43.5818 H         1 UNK         0.1412 
     73 H73        19.3179  -27.7177  -43.4451 H         1 UNK         0.1426 
     74 H74        19.8389  -28.7142  -45.5861 H         1 UNK         0.0716 
     75 H75        20.0436  -30.4343  -45.7132 H         1 UNK         0.0716 
     76 H76        23.4863  -28.0056  -43.9617 H         1 UNK         0.0695 
     77 H77        21.7999  -27.6853  -43.6999 H         1 UNK         0.0695 
     78 H78        23.3959  -26.7105  -46.1280 H         1 UNK         0.0983 
     79 H79        20.5835  -26.8121  -45.7250 H         1 UNK         0.3095 
     80 H80        19.5510  -23.9703  -47.4341 H         1 UNK         0.0454 
     81 H81        20.1228  -25.3320  -49.4550 H         1 UNK         0.0851 
     82 H82        18.4137  -25.4367  -49.0761 H         1 UNK         0.0851 
     83 H83        19.4919  -26.7747  -48.6745 H         1 UNK         0.0851 
     84 H84        17.9813  -26.1686  -46.7397 H         1 UNK         0.2976 
     85 H85        21.2401  -24.7158  -44.1938 H         1 UNK         0.3116 
     86 H86        21.4228  -23.0823  -42.7610 H         1 UNK         0.0646 
     87 H87        24.3227  -22.6840  -43.6601 H         1 UNK         0.0847 
     88 H88        23.2947  -21.5008  -42.8705 H         1 UNK         0.0847 
     89 H89        22.9097  -22.0393  -44.4957 H         1 UNK         0.0847 
     90 H90        22.3715  -25.8958  -41.9768 H         1 UNK         0.3040 
     91 H91        22.7857  -25.4634  -39.2061 H         1 UNK         0.1015 
     92 H92        25.1585  -26.5725  -40.8451 H         1 UNK         0.0786 
     93 H93        25.0463  -26.6158  -39.0904 H         1 UNK         0.0786 
     94 H94        25.1806  -25.0759  -39.9160 H         1 UNK         0.0786 
     95 H95        22.9797  -27.7165  -38.1725 H         1 UNK         0.3172 
     96 H96        21.2166  -29.6115  -39.5370 H         1 UNK         0.0595 
     97 H97        22.5138  -29.6840  -36.7656 H         1 UNK         0.0839 
     98 H98        21.2993  -30.8068  -37.3617 H         1 UNK         0.0839 
     99 H99        20.8854  -29.1161  -37.1375 H         1 UNK         0.0839 
    100 H100       22.9707  -29.7190  -41.2929 H         1 UNK         0.2998 
    101 H101       25.3100  -31.3883  -40.7516 H         1 UNK         0.0822 
    102 H102       25.4008  -29.5249  -42.4022 H         1 UNK         0.0787 
    103 H103       25.7349  -31.0683  -43.1756 H         1 UNK         0.0787 
    104 H104       24.1622  -30.3126  -43.3787 H         1 UNK         0.0787 
    105 H105       25.0808  -33.5141  -40.4811 H         1 UNK         0.3055 
    106 H106       24.6080  -35.6528  -40.7119 H         1 UNK         0.1106 
    107 H107       23.9916  -36.6268  -42.8917 H         1 UNK         0.0828 
    108 H108       23.5391  -35.0458  -43.5241 H         1 UNK         0.0828 
    109 H109       25.2116  -35.3918  -43.1110 H         1 UNK         0.0828 
    110 H110       21.9030  -36.0249  -42.5847 H         1 UNK         0.2931 
    111 H111       19.8505  -36.6898  -42.2033 H         1 UNK         0.0412 
    112 H112       21.3834  -39.1849  -39.6982 H         1 UNK         0.3472 
    113 H113       22.2259  -38.1045  -40.7796 H         1 UNK         0.3472 
    114 H114       18.3452  -35.6662  -40.4991 H         1 UNK         0.0970 
    115 H115       19.6904  -34.8491  -39.7676 H         1 UNK         0.0970 
    116 H116       20.9262  -32.7125  -40.9596 H         1 UNK         0.0612 
    117 H117       19.4829  -32.4534  -40.0159 H         1 UNK         0.0612 
@<TRIPOS>BOND
     1    1    2 1    
     2    1   62 1    
     3    1   63 1    
     4    1   64 1    
     5    2    3 2    
     6    2    4 am   BACKBONE|DICT|INTERRES
     7    4    5 1    
     8    4   65 1    
     9    5    6 1    
    10    5   25 1    
    11    5   66 1    
    12    6    7 1    
    13    6   67 1    
    14    6   68 1    
    15    7    8 1    
    16    8    9 1    
    17    8   69 1    
    18    8   70 1    
    19    9   10 ar   
    20    9   14 ar   
    21   10   11 ar   
    22   10   71 1    
    23   11   12 ar   
    24   11   61 1    
    25   12   13 ar   
    26   12   72 1    
    27   13   14 ar   
    28   13   15 1    
    29   14   73 1    
    30   15   16 1    
    31   15   74 1    
    32   15   75 1    
    33   16   17 1    
    34   17   18 1    
    35   17   76 1    
    36   17   77 1    
    37   18   19 1    
    38   18   27 1    
    39   18   78 1    
    40   19   20 am   BACKBONE|DICT|INTERRES
    41   19   79 1    
    42   20   21 2    
    43   20   22 1    
    44   22   23 1    
    45   22   24 1    
    46   22   80 1    
    47   23   81 1    
    48   23   82 1    
    49   23   83 1    
    50   24   25 am   BACKBONE|DICT|INTERRES
    51   24   84 1    
    52   25   26 2    
    53   27   28 2    
    54   27   29 am   BACKBONE|DICT|INTERRES
    55   29   30 1    
    56   29   85 1    
    57   30   31 1    
    58   30   32 1    
    59   30   86 1    
    60   31   87 1    
    61   31   88 1    
    62   31   89 1    
    63   32   33 2    
    64   32   34 am   BACKBONE|DICT|INTERRES
    65   34   35 1    
    66   34   90 1    
    67   35   36 1    
    68   35   37 1    
    69   35   91 1    
    70   36   92 1    
    71   36   93 1    
    72   36   94 1    
    73   37   38 2    
    74   37   39 am   BACKBONE|DICT|INTERRES
    75   39   40 1    
    76   39   95 1    
    77   40   41 1    
    78   40   42 1    
    79   40   96 1    
    80   41   97 1    
    81   41   98 1    
    82   41   99 1    
    83   42   43 2    
    84   42   44 am   BACKBONE|DICT|INTERRES
    85   44   45 1    
    86   44  100 1    
    87   45   46 1    
    88   45   47 1    
    89   45  101 1    
    90   46  102 1    
    91   46  103 1    
    92   46  104 1    
    93   47   48 2    
    94   47   49 am   BACKBONE|DICT|INTERRES
    95   49   50 1    
    96   49  105 1    
    97   50   51 1    
    98   50   52 1    
    99   50  106 1    
   100   51  107 1    
   101   51  108 1    
   102   51  109 1    
   103   52   53 2    
   104   52   54 am   BACKBONE|DICT|INTERRES
   105   54   55 1    
   106   54  110 1    
   107   55   56 1    
   108   55   59 1    
   109   55  111 1    
   110   56   57 am   BACKBONE|DICT|INTERRES
   111   56   58 2    
   112   57  112 1    
   113   57  113 1    
   114   59   60 1    
   115   59  114 1    
   116   59  115 1    
   117   60   61 1    
   118   61  116 1    
   119   61  117 1    
@<TRIPOS>SUBSTRUCTURE
     1 UNK         1 GROUP             0       ****    0 ROOT    
