@<TRIPOS>MOLECULE
3R8
117   119    1
SMALL
USER_CHARGES


@<TRIPOS>ATOM
      1 CA         18.7480  -26.4963  -48.8921 C.3       0 UNK        -0.2013 
      2 C          18.6404  -27.2145  -47.5558 C.2       0 UNK         0.4866 
      3 O          19.1228  -28.3393  -47.4240 O.2       0 UNK        -0.5176 
      4 N          18.0181  -26.5727  -46.5590 N.am      1 UNK        -0.4884 
      5 CA         17.8077  -27.0953  -45.2022 C.3       1 UNK         0.0853 
      6 C6         16.5668  -26.4487  -44.5361 C.3       10 UNK        -0.0849 
      7 S7         15.0436  -26.9435  -45.4206 S.3       10 UNK        -0.2776 
      8 C8         14.2647  -28.1591  -44.3012 C.3       10 UNK         0.0316 
      9 C9         15.2562  -29.1382  -43.6839 C.ar      10 UNK        -0.0863 
     10 C10        15.9197  -30.0858  -44.4710 C.ar      10 UNK        -0.1009 
     11 C11        16.8588  -30.9515  -43.8979 C.ar      10 UNK        -0.0712 
     12 C12        17.0992  -30.8914  -42.5222 C.ar      10 UNK        -0.0894 
     13 C13        16.4484  -29.9441  -41.7308 C.ar      10 UNK        -0.0745 
     14 C14        15.5241  -29.0759  -42.3141 C.ar      10 UNK        -0.0972 
     15 C15        16.7568  -29.8314  -40.2490 C.3       10 UNK         0.0209 
     16 S16        17.9872  -28.5270  -39.9509 S.3       10 UNK        -0.2568 
     17 C17        19.5636  -29.4463  -40.0805 C.3       10 UNK        -0.0983 
     18 CA         20.7673  -28.6393  -40.6355 C.3       3 UNK         0.0876 
     19 N          20.7187  -28.4649  -42.0929 N.am      3 UNK        -0.4424 
     20 C          21.7453  -27.9947  -42.8194 C.2       2 UNK         0.4918 
     21 O          22.8587  -27.7758  -42.3395 O.2       2 UNK        -0.4875 
     22 CA         21.5029  -27.6432  -44.2993 C.3       2 UNK         0.0481 
     23 CB         22.3819  -28.4921  -45.2304 C.3       2 UNK        -0.1831 
     24 N          20.1152  -27.7282  -44.7560 N.am      2 UNK        -0.4498 
     25 C          19.0960  -26.9510  -44.3681 C.2       1 UNK         0.5027 
     26 O          19.1644  -26.1433  -43.4388 O.2       1 UNK        -0.4969 
     27 C          20.9884  -27.2976  -39.8955 C.2       3 UNK         0.5005 
     28 O          21.6302  -27.2849  -38.8450 O.2       3 UNK        -0.5279 
     29 N          20.5247  -26.1853  -40.4913 N.am      4 UNK        -0.4463 
     30 CA         20.7616  -24.8152  -40.0260 C.3       4 UNK         0.0283 
     31 CB         19.8937  -23.8494  -40.8477 C.3       4 UNK        -0.1875 
     32 C          22.2425  -24.3924  -40.0876 C.2       4 UNK         0.4949 
     33 O          22.6499  -23.5170  -39.3246 O.2       4 UNK        -0.5039 
     34 N          23.0224  -25.0346  -40.9682 N.am      5 UNK        -0.4663 
     35 CA         24.4751  -24.8840  -41.0819 C.3       5 UNK         0.0242 
     36 CB         24.8561  -24.9230  -42.5732 C.3       5 UNK        -0.1982 
     37 C          25.2349  -25.9677  -40.2899 C.2       5 UNK         0.5017 
     38 O          26.4607  -26.0268  -40.3906 O.2       5 UNK        -0.5012 
     39 N          24.5068  -26.8104  -39.5379 N.am      6 UNK        -0.4439 
     40 CA         24.9785  -27.9611  -38.7586 C.3       6 UNK         0.0297 
     41 CB         25.9146  -27.5128  -37.6155 C.3       6 UNK        -0.2006 
     42 C          25.5791  -29.0934  -39.6168 C.2       6 UNK         0.4892 
     43 O          26.3891  -29.8714  -39.1084 O.2       6 UNK        -0.5089 
     44 N          25.1713  -29.1844  -40.8903 N.am      7 UNK        -0.4243 
     45 CA         25.5774  -30.2487  -41.8064 C.3       7 UNK         0.0196 
     46 CB         25.5678  -29.7024  -43.2410 C.3       7 UNK        -0.2007 
     47 C          24.6326  -31.4530  -41.6890 C.2       7 UNK         0.5020 
     48 O          23.4852  -31.3093  -41.2562 O.2       7 UNK        -0.5147 
     49 N          25.1189  -32.6206  -42.1253 N.am      8 UNK        -0.4734 
     50 CA         24.3789  -33.8846  -42.1650 C.3       8 UNK         0.0238 
     51 CB         25.3862  -35.0499  -42.1981 C.3       8 UNK        -0.1912 
     52 C          23.3867  -33.9269  -43.3441 C.2       8 UNK         0.5038 
     53 O          23.5832  -34.6922  -44.2903 O.2       8 UNK        -0.5046 
     54 N          22.3547  -33.0785  -43.2714 N.am      9 UNK        -0.4200 
     55 CA         21.2315  -33.0048  -44.2152 C.3       9 UNK         0.0839 
     56 C          20.4312  -34.3367  -44.2814 C.2       9 UNK         0.5513 
     57 N          20.0717  -34.7923  -45.4733 N.am      9 UNK        -0.7519 
     58 O          20.1051  -34.9343  -43.2578 O.2       9 UNK        -0.4960 
     59 C59        20.3152  -31.8052  -43.8613 C.3       10 UNK        -0.0876 
     60 S60        19.2534  -31.2803  -45.2521 S.3       10 UNK        -0.2414 
     61 C61        17.6235  -31.9388  -44.7669 C.3       10 UNK         0.0169 
     62 H62        18.2658  -27.0842  -49.6727 H         1 UNK         0.0903 
     63 H63        18.2762  -25.5141  -48.8673 H         1 UNK         0.0903 
     64 H64        19.7951  -26.3636  -49.1630 H         1 UNK         0.0903 
     65 H65        17.6519  -25.6457  -46.7239 H         1 UNK         0.3096 
     66 H66        17.6214  -28.1680  -45.2759 H         1 UNK         0.1121 
     67 H67        16.4913  -26.7239  -43.4833 H         1 UNK         0.0849 
     68 H68        16.6452  -25.3602  -44.5510 H         1 UNK         0.0849 
     69 H69        13.7265  -27.6160  -43.5227 H         1 UNK         0.0865 
     70 H70        13.5084  -28.7161  -44.8559 H         1 UNK         0.0865 
     71 H71        15.7276  -30.1255  -45.5348 H         1 UNK         0.1346 
     72 H72        17.8028  -31.5693  -42.0636 H         1 UNK         0.1412 
     73 H73        15.0282  -28.3369  -41.6992 H         1 UNK         0.1426 
     74 H74        17.1067  -30.7826  -39.8447 H         1 UNK         0.0716 
     75 H75        15.8445  -29.5861  -39.7031 H         1 UNK         0.0716 
     76 H76        19.8056  -29.8098  -39.0802 H         1 UNK         0.0695 
     77 H77        19.4173  -30.3415  -40.6856 H         1 UNK         0.0695 
     78 H78        21.6591  -29.2395  -40.4370 H         1 UNK         0.0983 
     79 H79        19.8223  -28.5938  -42.5383 H         1 UNK         0.3095 
     80 H80        21.8070  -26.6017  -44.4212 H         1 UNK         0.0454 
     81 H81        22.2420  -29.5606  -45.0658 H         1 UNK         0.0851 
     82 H82        22.1680  -28.2857  -46.2794 H         1 UNK         0.0851 
     83 H83        23.4364  -28.2644  -45.0780 H         1 UNK         0.0851 
     84 H84        19.9448  -28.3251  -45.5607 H         1 UNK         0.2976 
     85 H85        20.0045  -26.2845  -41.3562 H         1 UNK         0.3116 
     86 H86        20.4463  -24.7583  -38.9821 H         1 UNK         0.0646 
     87 H87        20.0214  -22.8213  -40.5059 H         1 UNK         0.0847 
     88 H88        18.8346  -24.0912  -40.7566 H         1 UNK         0.0847 
     89 H89        20.1526  -23.8760  -41.9071 H         1 UNK         0.0847 
     90 H90        22.6136  -25.7662  -41.5362 H         1 UNK         0.3040 
     91 H91        24.7816  -23.9168  -40.6774 H         1 UNK         0.1015 
     92 H92        24.3204  -24.1610  -43.1397 H         1 UNK         0.0786 
     93 H93        24.6374  -25.8919  -43.0234 H         1 UNK         0.0786 
     94 H94        25.9218  -24.7352  -42.7105 H         1 UNK         0.0786 
     95 H95        23.5026  -26.6708  -39.5098 H         1 UNK         0.3172 
     96 H96        24.0880  -28.3884  -38.2962 H         1 UNK         0.0595 
     97 H97        25.4620  -26.7210  -37.0188 H         1 UNK         0.0839 
     98 H98        26.8697  -27.1462  -37.9926 H         1 UNK         0.0839 
     99 H99        26.1311  -28.3407  -36.9393 H         1 UNK         0.0839 
    100 H100       24.4540  -28.5522  -41.2286 H         1 UNK         0.2998 
    101 H101       26.5933  -30.5692  -41.5646 H         1 UNK         0.0822 
    102 H102       26.1595  -28.7908  -43.3275 H         1 UNK         0.0787 
    103 H103       25.9814  -30.4281  -43.9423 H         1 UNK         0.0787 
    104 H104       24.5541  -29.4793  -43.5665 H         1 UNK         0.0787 
    105 H105       26.0552  -32.6414  -42.5044 H         1 UNK         0.3055 
    106 H106       23.7941  -33.9802  -41.2468 H         1 UNK         0.1106 
    107 H107       24.8703  -36.0111  -42.2109 H         1 UNK         0.0828 
    108 H108       26.0242  -35.0111  -43.0819 H         1 UNK         0.0828 
    109 H109       26.0303  -35.0430  -41.3186 H         1 UNK         0.0828 
    110 H110       22.3230  -32.4573  -42.4706 H         1 UNK         0.2931 
    111 H111       21.6739  -32.8176  -45.1960 H         1 UNK         0.0412 
    112 H112       20.3180  -34.2929  -46.3139 H         1 UNK         0.3472 
    113 H113       19.5426  -35.6480  -45.5348 H         1 UNK         0.3472 
    114 H114       19.7238  -32.0251  -42.9742 H         1 UNK         0.0970 
    115 H115       20.9251  -30.9421  -43.5950 H         1 UNK         0.0970 
    116 H116       17.0547  -32.1538  -45.6727 H         1 UNK         0.0612 
    117 H117       17.7387  -32.8922  -44.2494 H         1 UNK         0.0612 
@<TRIPOS>BOND
     1    1    2 1    
     2    1   62 1    
     3    1   63 1    
     4    1   64 1    
     5    2    3 2    
     6    2    4 am   BACKBONE|DICT|INTERRES
     7    4    5 1    
     8    4   65 1    
     9    5    6 1    
    10    5   25 1    
    11    5   66 1    
    12    6    7 1    
    13    6   67 1    
    14    6   68 1    
    15    7    8 1    
    16    8    9 1    
    17    8   69 1    
    18    8   70 1    
    19    9   10 ar   
    20    9   14 ar   
    21   10   11 ar   
    22   10   71 1    
    23   11   12 ar   
    24   11   61 1    
    25   12   13 ar   
    26   12   72 1    
    27   13   14 ar   
    28   13   15 1    
    29   14   73 1    
    30   15   16 1    
    31   15   74 1    
    32   15   75 1    
    33   16   17 1    
    34   17   18 1    
    35   17   76 1    
    36   17   77 1    
    37   18   19 1    
    38   18   27 1    
    39   18   78 1    
    40   19   20 am   BACKBONE|DICT|INTERRES
    41   19   79 1    
    42   20   21 2    
    43   20   22 1    
    44   22   23 1    
    45   22   24 1    
    46   22   80 1    
    47   23   81 1    
    48   23   82 1    
    49   23   83 1    
    50   24   25 am   BACKBONE|DICT|INTERRES
    51   24   84 1    
    52   25   26 2    
    53   27   28 2    
    54   27   29 am   BACKBONE|DICT|INTERRES
    55   29   30 1    
    56   29   85 1    
    57   30   31 1    
    58   30   32 1    
    59   30   86 1    
    60   31   87 1    
    61   31   88 1    
    62   31   89 1    
    63   32   33 2    
    64   32   34 am   BACKBONE|DICT|INTERRES
    65   34   35 1    
    66   34   90 1    
    67   35   36 1    
    68   35   37 1    
    69   35   91 1    
    70   36   92 1    
    71   36   93 1    
    72   36   94 1    
    73   37   38 2    
    74   37   39 am   BACKBONE|DICT|INTERRES
    75   39   40 1    
    76   39   95 1    
    77   40   41 1    
    78   40   42 1    
    79   40   96 1    
    80   41   97 1    
    81   41   98 1    
    82   41   99 1    
    83   42   43 2    
    84   42   44 am   BACKBONE|DICT|INTERRES
    85   44   45 1    
    86   44  100 1    
    87   45   46 1    
    88   45   47 1    
    89   45  101 1    
    90   46  102 1    
    91   46  103 1    
    92   46  104 1    
    93   47   48 2    
    94   47   49 am   BACKBONE|DICT|INTERRES
    95   49   50 1    
    96   49  105 1    
    97   50   51 1    
    98   50   52 1    
    99   50  106 1    
   100   51  107 1    
   101   51  108 1    
   102   51  109 1    
   103   52   53 2    
   104   52   54 am   BACKBONE|DICT|INTERRES
   105   54   55 1    
   106   54  110 1    
   107   55   56 1    
   108   55   59 1    
   109   55  111 1    
   110   56   57 am   BACKBONE|DICT|INTERRES
   111   56   58 2    
   112   57  112 1    
   113   57  113 1    
   114   59   60 1    
   115   59  114 1    
   116   59  115 1    
   117   60   61 1    
   118   61  116 1    
   119   61  117 1    
@<TRIPOS>SUBSTRUCTURE
     1 UNK         1 GROUP             0       ****    0 ROOT    
