@<TRIPOS>MOLECULE
3R8
117   119    1
SMALL
USER_CHARGES


@<TRIPOS>ATOM
      1 CA         15.8308  -22.0772  -44.8700 C.3       0 UNK        -0.2013 
      2 C          16.7446  -22.3678  -43.6819 C.2       0 UNK         0.4866 
      3 O          16.9451  -21.4879  -42.8473 O.2       0 UNK        -0.5176 
      4 N          17.3181  -23.5731  -43.5513 N.am      1 UNK        -0.4884 
      5 CA         17.2072  -24.7165  -44.4681 C.3       1 UNK         0.0853 
      6 C6         17.7206  -26.0248  -43.8125 C.3       10 UNK        -0.0849 
      7 S7         16.6980  -26.6040  -42.4180 S.3       10 UNK        -0.2776 
      8 C8         15.9595  -28.1331  -43.0942 C.3       10 UNK         0.0316 
      9 C9         16.9698  -29.2708  -43.2142 C.ar      10 UNK        -0.0863 
     10 C10        17.2612  -30.0751  -42.1071 C.ar      10 UNK        -0.1009 
     11 C11        18.1743  -31.1292  -42.2165 C.ar      10 UNK        -0.0712 
     12 C12        18.8258  -31.3553  -43.4333 C.ar      10 UNK        -0.0894 
     13 C13        18.5455  -30.5597  -44.5473 C.ar      10 UNK        -0.0745 
     14 C14        17.5951  -29.5390  -44.4371 C.ar      10 UNK        -0.0972 
     15 C15        19.2567  -30.8135  -45.8726 C.3       10 UNK         0.0209 
     16 S16        20.8218  -29.8840  -46.0145 S.3       10 UNK        -0.2568 
     17 C17        20.1917  -28.1747  -46.0545 C.3       10 UNK        -0.0983 
     18 CA         21.2412  -27.0729  -46.3493 C.3       3 UNK         0.0876 
     19 N          20.5244  -25.8421  -46.6863 N.am      3 UNK        -0.4424 
     20 C          21.0179  -24.6290  -46.9561 C.2       2 UNK         0.4918 
     21 O          22.1990  -24.4109  -47.2273 O.2       2 UNK        -0.4875 
     22 CA         20.0281  -23.4465  -46.8395 C.3       2 UNK         0.0481 
     23 CB         19.4222  -23.0808  -48.2085 C.3       2 UNK        -0.1831 
     24 N          18.9916  -23.6376  -45.8023 N.am      2 UNK        -0.4498 
     25 C          17.9702  -24.5111  -45.7934 C.2       1 UNK         0.5027 
     26 O          17.6782  -25.2209  -46.7551 O.2       1 UNK        -0.4969 
     27 C          22.1651  -26.8671  -45.1253 C.2       3 UNK         0.5005 
     28 O          21.9083  -25.9878  -44.2952 O.2       3 UNK        -0.5279 
     29 N          23.1875  -27.7225  -44.9951 N.am      4 UNK        -0.4463 
     30 CA         24.0897  -27.7969  -43.8425 C.3       4 UNK         0.0283 
     31 CB         25.3646  -28.5565  -44.2532 C.3       4 UNK        -0.1875 
     32 C          23.3932  -28.4312  -42.6215 C.2       4 UNK         0.4949 
     33 O          23.7526  -29.5336  -42.2042 O.2       4 UNK        -0.5039 
     34 N          22.3858  -27.7283  -42.0891 N.am      5 UNK        -0.4663 
     35 CA         21.5717  -28.1290  -40.9411 C.3       5 UNK         0.0242 
     36 CB         20.5008  -27.0595  -40.6791 C.3       5 UNK        -0.1982 
     37 C          22.4142  -28.3841  -39.6795 C.2       5 UNK         0.5017 
     38 O          23.4280  -27.7143  -39.4688 O.2       5 UNK        -0.5012 
     39 N          21.9926  -29.3792  -38.8902 N.am      6 UNK        -0.4439 
     40 CA         22.6531  -29.9764  -37.7212 C.3       6 UNK         0.0297 
     41 CB         22.9541  -28.9360  -36.6244 C.3       6 UNK        -0.2006 
     42 C          23.9022  -30.8110  -38.0648 C.2       6 UNK         0.4892 
     43 O          24.1054  -31.8516  -37.4401 O.2       6 UNK        -0.5089 
     44 N          24.7022  -30.3681  -39.0439 N.am      7 UNK        -0.4243 
     45 CA         25.8945  -31.0628  -39.5301 C.3       7 UNK         0.0196 
     46 CB         26.7909  -30.0768  -40.2976 C.3       7 UNK        -0.2007 
     47 C          25.5423  -32.2821  -40.3964 C.2       7 UNK         0.5020 
     48 O          26.0480  -33.3743  -40.1378 O.2       7 UNK        -0.5147 
     49 N          24.6844  -32.0797  -41.4057 N.am      8 UNK        -0.4734 
     50 CA         24.2333  -33.1302  -42.3254 C.3       8 UNK         0.0238 
     51 CB         23.8056  -32.4857  -43.6551 C.3       8 UNK        -0.1912 
     52 C          23.0844  -33.9806  -41.7585 C.2       8 UNK         0.5038 
     53 O          22.8543  -35.0832  -42.2577 O.2       8 UNK        -0.5046 
     54 N          22.3673  -33.4466  -40.7629 N.am      9 UNK        -0.4200 
     55 CA         21.1975  -34.0715  -40.1305 C.3       9 UNK         0.0839 
     56 C          21.5560  -35.3390  -39.3089 C.2       9 UNK         0.5513 
     57 N          20.6516  -36.3063  -39.2398 N.am      9 UNK        -0.7519 
     58 O          22.6196  -35.4354  -38.7007 O.2       9 UNK        -0.4960 
     59 C59        20.3982  -33.0608  -39.2655 C.3       10 UNK        -0.0876 
     60 S60        19.9697  -31.5380  -40.1741 S.3       10 UNK        -0.2414 
     61 C61        18.4522  -32.0398  -41.0312 C.3       10 UNK         0.0169 
     62 H62        15.3173  -21.1264  -44.7283 H         1 UNK         0.0903 
     63 H63        16.4037  -22.0068  -45.7939 H         1 UNK         0.0903 
     64 H64        15.0661  -22.8443  -44.9835 H         1 UNK         0.0903 
     65 H65        17.8849  -23.7411  -42.7317 H         1 UNK         0.3096 
     66 H66        16.1562  -24.8623  -44.7249 H         1 UNK         0.1121 
     67 H67        17.7587  -26.8215  -44.5528 H         1 UNK         0.0849 
     68 H68        18.7469  -25.9023  -43.4603 H         1 UNK         0.0849 
     69 H69        15.1428  -28.4438  -42.4407 H         1 UNK         0.0865 
     70 H70        15.5021  -27.9207  -44.0620 H         1 UNK         0.0865 
     71 H71        16.7696  -29.8858  -41.1625 H         1 UNK         0.1346 
     72 H72        19.5490  -32.1557  -43.5129 H         1 UNK         0.1412 
     73 H73        17.3574  -28.9410  -45.3058 H         1 UNK         0.1426 
     74 H74        18.6041  -30.5557  -46.7081 H         1 UNK         0.0716 
     75 H75        19.4723  -31.8779  -45.9767 H         1 UNK         0.0716 
     76 H76        19.7047  -27.9707  -45.1006 H         1 UNK         0.0695 
     77 H77        19.4049  -28.1473  -46.8110 H         1 UNK         0.0695 
     78 H78        21.8471  -27.3521  -47.2134 H         1 UNK         0.0983 
     79 H79        19.5199  -25.8806  -46.5654 H         1 UNK         0.3095 
     80 H80        20.6134  -22.5883  -46.5057 H         1 UNK         0.0454 
     81 H81        18.8744  -23.9114  -48.6538 H         1 UNK         0.0851 
     82 H82        20.2058  -22.8012  -48.9138 H         1 UNK         0.0851 
     83 H83        18.7418  -22.2333  -48.1282 H         1 UNK         0.0851 
     84 H84        19.1596  -23.1353  -44.9406 H         1 UNK         0.2976 
     85 H85        23.2816  -28.4588  -45.6809 H         1 UNK         0.3116 
     86 H86        24.3835  -26.7834  -43.5612 H         1 UNK         0.0646 
     87 H87        26.0684  -28.6152  -43.4222 H         1 UNK         0.0847 
     88 H88        25.8780  -28.0561  -45.0742 H         1 UNK         0.0847 
     89 H89        25.1452  -29.5772  -44.5668 H         1 UNK         0.0847 
     90 H90        22.1401  -26.8574  -42.5502 H         1 UNK         0.3040 
     91 H91        21.0718  -29.0567  -41.2248 H         1 UNK         0.1015 
     92 H92        19.8637  -27.3398  -39.8392 H         1 UNK         0.0786 
     93 H93        19.8509  -26.9327  -41.5446 H         1 UNK         0.0786 
     94 H94        20.9462  -26.0917  -40.4452 H         1 UNK         0.0786 
     95 H95        21.1587  -29.8733  -39.1876 H         1 UNK         0.3172 
     96 H96        21.9218  -30.6728  -37.3079 H         1 UNK         0.0595 
     97 H97        23.7259  -28.2285  -36.9280 H         1 UNK         0.0839 
     98 H98        23.3088  -29.4252  -35.7163 H         1 UNK         0.0839 
     99 H99        22.0623  -28.3682  -36.3595 H         1 UNK         0.0839 
    100 H100       24.4612  -29.4896  -39.4903 H         1 UNK         0.2998 
    101 H101       26.4569  -31.4219  -38.6652 H         1 UNK         0.0822 
    102 H102       27.1180  -29.2587  -39.6557 H         1 UNK         0.0787 
    103 H103       27.6870  -30.5738  -40.6714 H         1 UNK         0.0787 
    104 H104       26.2768  -29.6423  -41.1550 H         1 UNK         0.0787 
    105 H105       24.3379  -31.1368  -41.5852 H         1 UNK         0.3055 
    106 H106       25.0675  -33.8057  -42.5282 H         1 UNK         0.1106 
    107 H107       23.4990  -33.2435  -44.3773 H         1 UNK         0.0828 
    108 H108       22.9641  -31.8037  -43.5231 H         1 UNK         0.0828 
    109 H109       24.6249  -31.9252  -44.1042 H         1 UNK         0.0828 
    110 H110       22.6430  -32.5439  -40.4096 H         1 UNK         0.2931 
    111 H111       20.5455  -34.3909  -40.9460 H         1 UNK         0.0412 
    112 H112       19.7719  -36.2358  -39.7277 H         1 UNK         0.3472 
    113 H113       20.8575  -37.1316  -38.6981 H         1 UNK         0.3472 
    114 H114       19.4808  -33.5161  -38.8872 H         1 UNK         0.0970 
    115 H115       20.9778  -32.7768  -38.3852 H         1 UNK         0.0970 
    116 H116       18.5470  -33.0684  -41.3816 H         1 UNK         0.0612 
    117 H117       17.6185  -32.0272  -40.3275 H         1 UNK         0.0612 
@<TRIPOS>BOND
     1    1    2 1    
     2    1   62 1    
     3    1   63 1    
     4    1   64 1    
     5    2    3 2    
     6    2    4 am   BACKBONE|DICT|INTERRES
     7    4    5 1    
     8    4   65 1    
     9    5    6 1    
    10    5   25 1    
    11    5   66 1    
    12    6    7 1    
    13    6   67 1    
    14    6   68 1    
    15    7    8 1    
    16    8    9 1    
    17    8   69 1    
    18    8   70 1    
    19    9   10 ar   
    20    9   14 ar   
    21   10   11 ar   
    22   10   71 1    
    23   11   12 ar   
    24   11   61 1    
    25   12   13 ar   
    26   12   72 1    
    27   13   14 ar   
    28   13   15 1    
    29   14   73 1    
    30   15   16 1    
    31   15   74 1    
    32   15   75 1    
    33   16   17 1    
    34   17   18 1    
    35   17   76 1    
    36   17   77 1    
    37   18   19 1    
    38   18   27 1    
    39   18   78 1    
    40   19   20 am   BACKBONE|DICT|INTERRES
    41   19   79 1    
    42   20   21 2    
    43   20   22 1    
    44   22   23 1    
    45   22   24 1    
    46   22   80 1    
    47   23   81 1    
    48   23   82 1    
    49   23   83 1    
    50   24   25 am   BACKBONE|DICT|INTERRES
    51   24   84 1    
    52   25   26 2    
    53   27   28 2    
    54   27   29 am   BACKBONE|DICT|INTERRES
    55   29   30 1    
    56   29   85 1    
    57   30   31 1    
    58   30   32 1    
    59   30   86 1    
    60   31   87 1    
    61   31   88 1    
    62   31   89 1    
    63   32   33 2    
    64   32   34 am   BACKBONE|DICT|INTERRES
    65   34   35 1    
    66   34   90 1    
    67   35   36 1    
    68   35   37 1    
    69   35   91 1    
    70   36   92 1    
    71   36   93 1    
    72   36   94 1    
    73   37   38 2    
    74   37   39 am   BACKBONE|DICT|INTERRES
    75   39   40 1    
    76   39   95 1    
    77   40   41 1    
    78   40   42 1    
    79   40   96 1    
    80   41   97 1    
    81   41   98 1    
    82   41   99 1    
    83   42   43 2    
    84   42   44 am   BACKBONE|DICT|INTERRES
    85   44   45 1    
    86   44  100 1    
    87   45   46 1    
    88   45   47 1    
    89   45  101 1    
    90   46  102 1    
    91   46  103 1    
    92   46  104 1    
    93   47   48 2    
    94   47   49 am   BACKBONE|DICT|INTERRES
    95   49   50 1    
    96   49  105 1    
    97   50   51 1    
    98   50   52 1    
    99   50  106 1    
   100   51  107 1    
   101   51  108 1    
   102   51  109 1    
   103   52   53 2    
   104   52   54 am   BACKBONE|DICT|INTERRES
   105   54   55 1    
   106   54  110 1    
   107   55   56 1    
   108   55   59 1    
   109   55  111 1    
   110   56   57 am   BACKBONE|DICT|INTERRES
   111   56   58 2    
   112   57  112 1    
   113   57  113 1    
   114   59   60 1    
   115   59  114 1    
   116   59  115 1    
   117   60   61 1    
   118   61  116 1    
   119   61  117 1    
@<TRIPOS>SUBSTRUCTURE
     1 UNK         1 GROUP             0       ****    0 ROOT    
