@<TRIPOS>MOLECULE
3R8
117   119    1
SMALL
USER_CHARGES


@<TRIPOS>ATOM
      1 CA         19.3824  -22.9232  -44.6762 C.3       0 UNK        -0.2013 
      2 C          18.3858  -23.0145  -43.5226 C.2       0 UNK         0.4866 
      3 O          18.1812  -22.0229  -42.8252 O.2       0 UNK        -0.5176 
      4 N          17.7294  -24.1598  -43.2862 N.am      1 UNK        -0.4884 
      5 CA         17.9127  -25.4506  -43.9631 C.3       1 UNK         0.0853 
      6 C6         16.7510  -26.4346  -43.6374 C.3       10 UNK        -0.0849 
      7 S7         15.6848  -26.8049  -45.0721 S.3       10 UNK        -0.2776 
      8 C8         16.7113  -27.9025  -46.1231 C.3       10 UNK         0.0316 
      9 C9         17.0769  -29.2812  -45.5604 C.ar      10 UNK        -0.0863 
     10 C10        17.9511  -30.0853  -46.3040 C.ar      10 UNK        -0.1009 
     11 C11        18.3045  -31.3662  -45.8659 C.ar      10 UNK        -0.0712 
     12 C12        17.7791  -31.8437  -44.6645 C.ar      10 UNK        -0.0894 
     13 C13        16.9202  -31.0525  -43.9001 C.ar      10 UNK        -0.0745 
     14 C14        16.5555  -29.7845  -44.3604 C.ar      10 UNK        -0.0972 
     15 C15        16.3786  -31.5830  -42.5827 C.3       10 UNK         0.0209 
     16 S16        17.6986  -31.7739  -41.3434 S.3       10 UNK        -0.2568 
     17 C17        18.1090  -30.0441  -40.9406 C.3       10 UNK        -0.0983 
     18 CA         19.5972  -29.7183  -41.2459 C.3       3 UNK         0.0876 
     19 N          19.7837  -29.0567  -42.5444 N.am      3 UNK        -0.4424 
     20 C          20.9751  -28.7038  -43.0522 C.2       2 UNK         0.4918 
     21 O          22.0475  -29.0391  -42.5499 O.2       2 UNK        -0.4875 
     22 CA         20.9954  -27.7500  -44.2625 C.3       2 UNK         0.0481 
     23 CB         21.3260  -28.4974  -45.5586 C.3       2 UNK        -0.1831 
     24 N          19.7650  -26.9755  -44.4520 N.am      2 UNK        -0.4498 
     25 C          19.2610  -26.0921  -43.5799 C.2       1 UNK         0.5027 
     26 O          19.7803  -25.8385  -42.4898 O.2       1 UNK        -0.4969 
     27 C          20.2406  -28.9294  -40.0824 C.2       3 UNK         0.5005 
     28 O          20.8315  -29.5486  -39.1960 O.2       3 UNK        -0.5279 
     29 N          20.1569  -27.5932  -40.1287 N.am      4 UNK        -0.4463 
     30 CA         20.8223  -26.6978  -39.1863 C.3       4 UNK         0.0283 
     31 CB         19.9131  -25.4916  -38.8950 C.3       4 UNK        -0.1875 
     32 C          22.1777  -26.2355  -39.7381 C.2       4 UNK         0.4949 
     33 O          23.1842  -26.3422  -39.0388 O.2       4 UNK        -0.5039 
     34 N          22.1789  -25.7207  -40.9761 N.am      5 UNK        -0.4663 
     35 CA         23.3126  -25.0115  -41.5767 C.3       5 UNK         0.0242 
     36 CB         22.8303  -24.2350  -42.8131 C.3       5 UNK        -0.1982 
     37 C          24.5239  -25.8935  -41.9223 C.2       5 UNK         0.5017 
     38 O          25.6468  -25.3892  -41.8870 O.2       5 UNK        -0.5012 
     39 N          24.2899  -27.1724  -42.2458 N.am      6 UNK        -0.4439 
     40 CA         25.3311  -28.1498  -42.5824 C.3       6 UNK         0.0297 
     41 CB         25.0653  -28.7075  -43.9928 C.3       6 UNK        -0.2006 
     42 C          25.4248  -29.2853  -41.5472 C.2       6 UNK         0.4892 
     43 O          26.2220  -30.1987  -41.7580 O.2       6 UNK        -0.5089 
     44 N          24.6348  -29.2024  -40.4626 N.am      7 UNK        -0.4243 
     45 CA         24.4809  -30.1719  -39.3712 C.3       7 UNK         0.0196 
     46 CB         25.7950  -30.3423  -38.5811 C.3       7 UNK        -0.2007 
     47 C          23.9232  -31.5160  -39.8725 C.2       7 UNK         0.5020 
     48 O          24.6824  -32.3810  -40.3124 O.2       7 UNK        -0.5147 
     49 N          22.5912  -31.6544  -39.8169 N.am      8 UNK        -0.4734 
     50 CA         21.8054  -32.8234  -40.2426 C.3       8 UNK         0.0238 
     51 CB         22.1070  -34.0434  -39.3455 C.3       8 UNK        -0.1912 
     52 C          21.9436  -33.1419  -41.7462 C.2       8 UNK         0.5038 
     53 O          21.8148  -34.3031  -42.1374 O.2       8 UNK        -0.5046 
     54 N          22.2002  -32.1062  -42.5590 N.am      9 UNK        -0.4200 
     55 CA         22.4604  -32.1888  -44.0037 C.3       9 UNK         0.0839 
     56 C          23.8333  -32.8337  -44.3698 C.2       9 UNK         0.5513 
     57 N          24.7728  -32.9678  -43.4399 N.am      9 UNK        -0.7519 
     58 O          24.0682  -33.1974  -45.5189 O.2       9 UNK        -0.4960 
     59 C59        21.2522  -32.7773  -44.7937 C.3       10 UNK        -0.0876 
     60 S60        20.9852  -31.9579  -46.4031 S.3       10 UNK        -0.2414 
     61 C61        19.2132  -32.2541  -46.7088 C.3       10 UNK         0.0169 
     62 H62        18.9347  -23.2474  -45.6148 H         1 UNK         0.0903 
     63 H63        19.7104  -21.8927  -44.8119 H         1 UNK         0.0903 
     64 H64        20.2679  -23.5250  -44.4774 H         1 UNK         0.0903 
     65 H65        17.0927  -24.1776  -42.5027 H         1 UNK         0.3096 
     66 H66        17.9342  -25.2589  -45.0372 H         1 UNK         0.1121 
     67 H67        16.1012  -26.0222  -42.8634 H         1 UNK         0.0849 
     68 H68        17.0977  -27.3754  -43.2094 H         1 UNK         0.0849 
     69 H69        16.1629  -28.0622  -47.0528 H         1 UNK         0.0865 
     70 H70        17.6194  -27.3712  -46.4070 H         1 UNK         0.0865 
     71 H71        18.3499  -29.7201  -47.2410 H         1 UNK         0.1346 
     72 H72        18.0360  -32.8353  -44.3180 H         1 UNK         0.1412 
     73 H73        15.8556  -29.2038  -43.7777 H         1 UNK         0.1426 
     74 H74        15.9135  -32.5547  -42.7545 H         1 UNK         0.0716 
     75 H75        15.5963  -30.9351  -42.1842 H         1 UNK         0.0716 
     76 H76        17.8736  -29.9262  -39.8804 H         1 UNK         0.0695 
     77 H77        17.4377  -29.3582  -41.4591 H         1 UNK         0.0695 
     78 H78        20.1536  -30.6519  -41.3047 H         1 UNK         0.0983 
     79 H79        18.9492  -28.8034  -43.0497 H         1 UNK         0.3095 
     80 H80        21.8033  -27.0404  -44.0823 H         1 UNK         0.0454 
     81 H81        21.4777  -27.8069  -46.3881 H         1 UNK         0.0851 
     82 H82        22.2405  -29.0817  -45.4603 H         1 UNK         0.0851 
     83 H83        20.5278  -29.1821  -45.8360 H         1 UNK         0.0851 
     84 H84        19.2758  -27.1386  -45.3191 H         1 UNK         0.2976 
     85 H85        19.7124  -27.1542  -40.9271 H         1 UNK         0.3116 
     86 H86        21.0015  -27.2130  -38.2399 H         1 UNK         0.0646 
     87 H87        19.6711  -24.9310  -39.7990 H         1 UNK         0.0847 
     88 H88        20.3934  -24.8000  -38.2015 H         1 UNK         0.0847 
     89 H89        18.9750  -25.8069  -38.4383 H         1 UNK         0.0847 
     90 H90        21.3014  -25.6892  -41.4912 H         1 UNK         0.3040 
     91 H91        23.6603  -24.2797  -40.8436 H         1 UNK         0.1015 
     92 H92        23.6436  -23.6544  -43.2510 H         1 UNK         0.0786 
     93 H93        22.0371  -23.5334  -42.5540 H         1 UNK         0.0786 
     94 H94        22.4503  -24.8973  -43.5897 H         1 UNK         0.0786 
     95 H95        23.3382  -27.5239  -42.2473 H         1 UNK         0.3172 
     96 H96        26.3117  -27.6704  -42.5990 H         1 UNK         0.0595 
     97 H97        24.1663  -29.3204  -44.0230 H         1 UNK         0.0839 
     98 H98        25.8917  -29.3376  -44.3241 H         1 UNK         0.0839 
     99 H99        24.9549  -27.9079  -44.7253 H         1 UNK         0.0839 
    100 H100       24.0443  -28.3856  -40.3920 H         1 UNK         0.2998 
    101 H101       23.7479  -29.7428  -38.6853 H         1 UNK         0.0822 
    102 H102       26.1506  -29.3874  -38.1941 H         1 UNK         0.0787 
    103 H103       25.6491  -31.0057  -37.7278 H         1 UNK         0.0787 
    104 H104       26.5897  -30.7732  -39.1909 H         1 UNK         0.0787 
    105 H105       22.0405  -30.8718  -39.4617 H         1 UNK         0.3055 
    106 H106       20.7571  -32.5656  -40.0856 H         1 UNK         0.1106 
    107 H107       21.9971  -33.7968  -38.2896 H         1 UNK         0.0828 
    108 H108       21.4205  -34.8642  -39.5569 H         1 UNK         0.0828 
    109 H109       23.1185  -34.4206  -39.4991 H         1 UNK         0.0828 
    110 H110       22.3162  -31.1851  -42.1556 H         1 UNK         0.2931 
    111 H111       22.5680  -31.1464  -44.2992 H         1 UNK         0.0412 
    112 H112       24.6176  -32.6690  -42.4847 H         1 UNK         0.3472 
    113 H113       25.6593  -33.3726  -43.6949 H         1 UNK         0.3472 
    114 H114       21.3602  -33.8530  -44.9439 H         1 UNK         0.0970 
    115 H115       20.3436  -32.6539  -44.2072 H         1 UNK         0.0970 
    116 H116       18.9884  -33.3075  -46.5343 H         1 UNK         0.0612 
    117 H117       19.0114  -32.0753  -47.7659 H         1 UNK         0.0612 
@<TRIPOS>BOND
     1    1    2 1    
     2    1   62 1    
     3    1   63 1    
     4    1   64 1    
     5    2    3 2    
     6    2    4 am   BACKBONE|DICT|INTERRES
     7    4    5 1    
     8    4   65 1    
     9    5    6 1    
    10    5   25 1    
    11    5   66 1    
    12    6    7 1    
    13    6   67 1    
    14    6   68 1    
    15    7    8 1    
    16    8    9 1    
    17    8   69 1    
    18    8   70 1    
    19    9   10 ar   
    20    9   14 ar   
    21   10   11 ar   
    22   10   71 1    
    23   11   12 ar   
    24   11   61 1    
    25   12   13 ar   
    26   12   72 1    
    27   13   14 ar   
    28   13   15 1    
    29   14   73 1    
    30   15   16 1    
    31   15   74 1    
    32   15   75 1    
    33   16   17 1    
    34   17   18 1    
    35   17   76 1    
    36   17   77 1    
    37   18   19 1    
    38   18   27 1    
    39   18   78 1    
    40   19   20 am   BACKBONE|DICT|INTERRES
    41   19   79 1    
    42   20   21 2    
    43   20   22 1    
    44   22   23 1    
    45   22   24 1    
    46   22   80 1    
    47   23   81 1    
    48   23   82 1    
    49   23   83 1    
    50   24   25 am   BACKBONE|DICT|INTERRES
    51   24   84 1    
    52   25   26 2    
    53   27   28 2    
    54   27   29 am   BACKBONE|DICT|INTERRES
    55   29   30 1    
    56   29   85 1    
    57   30   31 1    
    58   30   32 1    
    59   30   86 1    
    60   31   87 1    
    61   31   88 1    
    62   31   89 1    
    63   32   33 2    
    64   32   34 am   BACKBONE|DICT|INTERRES
    65   34   35 1    
    66   34   90 1    
    67   35   36 1    
    68   35   37 1    
    69   35   91 1    
    70   36   92 1    
    71   36   93 1    
    72   36   94 1    
    73   37   38 2    
    74   37   39 am   BACKBONE|DICT|INTERRES
    75   39   40 1    
    76   39   95 1    
    77   40   41 1    
    78   40   42 1    
    79   40   96 1    
    80   41   97 1    
    81   41   98 1    
    82   41   99 1    
    83   42   43 2    
    84   42   44 am   BACKBONE|DICT|INTERRES
    85   44   45 1    
    86   44  100 1    
    87   45   46 1    
    88   45   47 1    
    89   45  101 1    
    90   46  102 1    
    91   46  103 1    
    92   46  104 1    
    93   47   48 2    
    94   47   49 am   BACKBONE|DICT|INTERRES
    95   49   50 1    
    96   49  105 1    
    97   50   51 1    
    98   50   52 1    
    99   50  106 1    
   100   51  107 1    
   101   51  108 1    
   102   51  109 1    
   103   52   53 2    
   104   52   54 am   BACKBONE|DICT|INTERRES
   105   54   55 1    
   106   54  110 1    
   107   55   56 1    
   108   55   59 1    
   109   55  111 1    
   110   56   57 am   BACKBONE|DICT|INTERRES
   111   56   58 2    
   112   57  112 1    
   113   57  113 1    
   114   59   60 1    
   115   59  114 1    
   116   59  115 1    
   117   60   61 1    
   118   61  116 1    
   119   61  117 1    
@<TRIPOS>SUBSTRUCTURE
     1 UNK         1 GROUP             0       ****    0 ROOT    
