@<TRIPOS>MOLECULE
3R8
117   119    1
SMALL
USER_CHARGES


@<TRIPOS>ATOM
      1 CA         15.1971  -27.2829  -40.1140 C.3       0 UNK        -0.2013 
      2 C          15.2983  -27.2153  -41.6304 C.2       0 UNK         0.4866 
      3 O          14.3040  -27.4352  -42.3224 O.2       0 UNK        -0.5176 
      4 N          16.4886  -26.9035  -42.1504 N.am      1 UNK        -0.4884 
      5 CA         16.7906  -26.7421  -43.5709 C.3       1 UNK         0.0853 
      6 C6         16.8774  -28.1024  -44.3159 C.3       10 UNK        -0.0849 
      7 S7         16.5885  -27.9296  -46.1104 S.3       10 UNK        -0.2776 
      8 C8         16.4418  -29.6707  -46.6237 C.3       10 UNK         0.0316 
      9 C9         17.7033  -30.4632  -46.3126 C.ar      10 UNK        -0.0863 
     10 C10        17.6821  -31.4683  -45.3407 C.ar      10 UNK        -0.1009 
     11 C11        18.8407  -32.1918  -45.0447 C.ar      10 UNK        -0.0712 
     12 C12        20.0269  -31.9000  -45.7237 C.ar      10 UNK        -0.0894 
     13 C13        20.0644  -30.8850  -46.6842 C.ar      10 UNK        -0.0745 
     14 C14        18.8950  -30.1823  -46.9880 C.ar      10 UNK        -0.0972 
     15 C15        21.3765  -30.5288  -47.3691 C.3       10 UNK         0.0209 
     16 S16        21.9766  -28.8730  -46.8944 S.3       10 UNK        -0.2568 
     17 C17        22.1406  -29.0322  -45.0822 C.3       10 UNK        -0.0983 
     18 CA         22.1547  -27.6662  -44.3507 C.3       3 UNK         0.0876 
     19 N          21.0049  -26.8330  -44.7168 N.am      3 UNK        -0.4424 
     20 C          21.0130  -25.4969  -44.8056 C.2       2 UNK         0.4918 
     21 O          21.9939  -24.8006  -44.5457 O.2       2 UNK        -0.4875 
     22 CA         19.6990  -24.8175  -45.2381 C.3       2 UNK         0.0481 
     23 CB         19.7253  -24.5270  -46.7469 C.3       2 UNK        -0.1831 
     24 N          18.4896  -25.5855  -44.9178 N.am      2 UNK        -0.4498 
     25 C          18.0860  -25.9142  -43.6837 C.2       1 UNK         0.5027 
     26 O          18.7095  -25.6052  -42.6644 O.2       1 UNK        -0.4969 
     27 C          22.2868  -27.8605  -42.8220 C.2       3 UNK         0.5005 
     28 O          23.0528  -28.7312  -42.3968 O.2       3 UNK        -0.5279 
     29 N          21.5714  -27.0701  -42.0039 N.am      4 UNK        -0.4463 
     30 CA         21.5588  -27.1015  -40.5318 C.3       4 UNK         0.0283 
     31 CB         20.3381  -26.3184  -40.0172 C.3       4 UNK        -0.1875 
     32 C          22.8751  -26.6489  -39.8545 C.2       4 UNK         0.4949 
     33 O          22.8496  -25.9008  -38.8768 O.2       4 UNK        -0.5039 
     34 N          23.9993  -27.1431  -40.3732 N.am      5 UNK        -0.4663 
     35 CA         25.3580  -26.9989  -39.8597 C.3       5 UNK         0.0242 
     36 CB         25.9087  -25.5846  -40.1245 C.3       5 UNK        -0.1982 
     37 C          26.2462  -28.0745  -40.4964 C.2       5 UNK         0.5017 
     38 O          26.9658  -28.7690  -39.7796 O.2       5 UNK        -0.5012 
     39 N          26.1543  -28.2071  -41.8290 N.am      6 UNK        -0.4439 
     40 CA         26.8712  -29.2059  -42.6252 C.3       6 UNK         0.0297 
     41 CB         26.8167  -28.8132  -44.1116 C.3       6 UNK        -0.2006 
     42 C          26.3284  -30.6300  -42.4197 C.2       6 UNK         0.4892 
     43 O          27.1137  -31.5465  -42.1752 O.2       6 UNK        -0.5089 
     44 N          25.0016  -30.7817  -42.5217 N.am      7 UNK        -0.4243 
     45 CA         24.2828  -32.0413  -42.3113 C.3       7 UNK         0.0196 
     46 CB         23.2385  -32.2102  -43.4262 C.3       7 UNK        -0.2007 
     47 C          23.6027  -32.0870  -40.9326 C.2       7 UNK         0.5020 
     48 O          23.3056  -33.1796  -40.4506 O.2       7 UNK        -0.5147 
     49 N          23.3742  -30.9091  -40.3290 N.am      8 UNK        -0.4734 
     50 CA         22.7364  -30.6788  -39.0242 C.3       8 UNK         0.0238 
     51 CB         23.5483  -31.3243  -37.8806 C.3       8 UNK        -0.1912 
     52 C          21.2426  -31.0645  -39.0024 C.2       8 UNK         0.5038 
     53 O          20.7311  -31.4877  -37.9648 O.2       8 UNK        -0.5046 
     54 N          20.5685  -30.8879  -40.1463 N.am      9 UNK        -0.4200 
     55 CA         19.1409  -31.1862  -40.3602 C.3       9 UNK         0.0839 
     56 C          18.1466  -30.1619  -39.7349 C.2       9 UNK         0.5513 
     57 N          18.5956  -29.1352  -39.0239 N.am      9 UNK        -0.7519 
     58 O          16.9373  -30.3101  -39.8871 O.2       9 UNK        -0.4960 
     59 C59        18.8379  -31.4319  -41.8621 C.3       10 UNK        -0.0876 
     60 S60        19.7899  -32.8408  -42.5216 S.3       10 UNK        -0.2414 
     61 C61        18.8158  -33.2888  -43.9909 C.3       10 UNK         0.0169 
     62 H62        14.9157  -28.2889  -39.8031 H         1 UNK         0.0903 
     63 H63        16.1415  -27.0319  -39.6318 H         1 UNK         0.0903 
     64 H64        14.4373  -26.5890  -39.7556 H         1 UNK         0.0903 
     65 H65        17.2703  -26.6630  -41.5517 H         1 UNK         0.3096 
     66 H66        15.9888  -26.1403  -44.0053 H         1 UNK         0.1121 
     67 H67        16.1194  -28.7895  -43.9369 H         1 UNK         0.0849 
     68 H68        17.8363  -28.5934  -44.1373 H         1 UNK         0.0849 
     69 H69        15.5704  -30.1151  -46.1400 H         1 UNK         0.0865 
     70 H70        16.2483  -29.7101  -47.6966 H         1 UNK         0.0865 
     71 H71        16.7642  -31.6864  -44.8120 H         1 UNK         0.1346 
     72 H72        20.9263  -32.4500  -45.4825 H         1 UNK         0.1412 
     73 H73        18.9202  -29.3941  -47.7284 H         1 UNK         0.1426 
     74 H74        21.2372  -30.5589  -48.4506 H         1 UNK         0.0716 
     75 H75        22.1490  -31.2639  -47.1375 H         1 UNK         0.0716 
     76 H76        23.0628  -29.5827  -44.8890 H         1 UNK         0.0695 
     77 H77        21.3268  -29.6445  -44.6931 H         1 UNK         0.0695 
     78 H78        23.0647  -27.1486  -44.6621 H         1 UNK         0.0983 
     79 H79        20.1613  -27.3259  -44.9690 H         1 UNK         0.3095 
     80 H80        19.6343  -23.8652  -44.7080 H         1 UNK         0.0454 
     81 H81        19.7652  -25.4454  -47.3344 H         1 UNK         0.0851 
     82 H82        20.5990  -23.9312  -47.0151 H         1 UNK         0.0851 
     83 H83        18.8452  -23.9650  -47.0598 H         1 UNK         0.0851 
     84 H84        17.9343  -25.9091  -45.6997 H         1 UNK         0.2976 
     85 H85        20.9697  -26.3771  -42.4304 H         1 UNK         0.3116 
     86 H86        21.4128  -28.1405  -40.2380 H         1 UNK         0.0646 
     87 H87        19.4095  -26.7408  -40.3984 H         1 UNK         0.0847 
     88 H88        20.3786  -25.2698  -40.3138 H         1 UNK         0.0847 
     89 H89        20.2732  -26.3488  -38.9287 H         1 UNK         0.0847 
     90 H90        23.8794  -27.7753  -41.1616 H         1 UNK         0.3040 
     91 H91        25.3416  -27.1757  -38.7817 H         1 UNK         0.1015 
     92 H92        26.9423  -25.4993  -39.7866 H         1 UNK         0.0786 
     93 H93        25.3334  -24.8277  -39.5912 H         1 UNK         0.0786 
     94 H94        25.8880  -25.3319  -41.1851 H         1 UNK         0.0786 
     95 H95        25.5672  -27.5626  -42.3371 H         1 UNK         0.3172 
     96 H96        27.9182  -29.1994  -42.3138 H         1 UNK         0.0595 
     97 H97        25.7930  -28.7632  -44.4853 H         1 UNK         0.0839 
     98 H98        27.3510  -29.5398  -44.7255 H         1 UNK         0.0839 
     99 H99        27.2841  -27.8433  -44.2829 H         1 UNK         0.0839 
    100 H100       24.4251  -29.9641  -42.6987 H         1 UNK         0.2998 
    101 H101       24.9758  -32.8837  -42.3658 H         1 UNK         0.0822 
    102 H102       23.6951  -32.1530  -44.4143 H         1 UNK         0.0787 
    103 H103       22.7473  -33.1812  -43.3520 H         1 UNK         0.0787 
    104 H104       22.4609  -31.4483  -43.3682 H         1 UNK         0.0787 
    105 H105       23.6088  -30.0795  -40.8580 H         1 UNK         0.3055 
    106 H106       22.7659  -29.6021  -38.8565 H         1 UNK         0.1106 
    107 H107       23.5046  -32.4132  -37.9136 H         1 UNK         0.0828 
    108 H108       23.1649  -31.0162  -36.9071 H         1 UNK         0.0828 
    109 H109       24.5965  -31.0282  -37.9224 H         1 UNK         0.0828 
    110 H110       21.0761  -30.5614  -40.9543 H         1 UNK         0.2931 
    111 H111       18.9338  -32.1231  -39.8393 H         1 UNK         0.0412 
    112 H112       19.5785  -29.0343  -38.8391 H         1 UNK         0.3472 
    113 H113       17.9337  -28.5035  -38.6038 H         1 UNK         0.3472 
    114 H114       19.0601  -30.5427  -42.4550 H         1 UNK         0.0970 
    115 H115       17.7770  -31.6426  -42.0112 H         1 UNK         0.0970 
    116 H116       19.2269  -34.2041  -44.4187 H         1 UNK         0.0612 
    117 H117       17.7935  -33.5227  -43.6894 H         1 UNK         0.0612 
@<TRIPOS>BOND
     1    1    2 1    
     2    1   62 1    
     3    1   63 1    
     4    1   64 1    
     5    2    3 2    
     6    2    4 am   BACKBONE|DICT|INTERRES
     7    4    5 1    
     8    4   65 1    
     9    5    6 1    
    10    5   25 1    
    11    5   66 1    
    12    6    7 1    
    13    6   67 1    
    14    6   68 1    
    15    7    8 1    
    16    8    9 1    
    17    8   69 1    
    18    8   70 1    
    19    9   10 ar   
    20    9   14 ar   
    21   10   11 ar   
    22   10   71 1    
    23   11   12 ar   
    24   11   61 1    
    25   12   13 ar   
    26   12   72 1    
    27   13   14 ar   
    28   13   15 1    
    29   14   73 1    
    30   15   16 1    
    31   15   74 1    
    32   15   75 1    
    33   16   17 1    
    34   17   18 1    
    35   17   76 1    
    36   17   77 1    
    37   18   19 1    
    38   18   27 1    
    39   18   78 1    
    40   19   20 am   BACKBONE|DICT|INTERRES
    41   19   79 1    
    42   20   21 2    
    43   20   22 1    
    44   22   23 1    
    45   22   24 1    
    46   22   80 1    
    47   23   81 1    
    48   23   82 1    
    49   23   83 1    
    50   24   25 am   BACKBONE|DICT|INTERRES
    51   24   84 1    
    52   25   26 2    
    53   27   28 2    
    54   27   29 am   BACKBONE|DICT|INTERRES
    55   29   30 1    
    56   29   85 1    
    57   30   31 1    
    58   30   32 1    
    59   30   86 1    
    60   31   87 1    
    61   31   88 1    
    62   31   89 1    
    63   32   33 2    
    64   32   34 am   BACKBONE|DICT|INTERRES
    65   34   35 1    
    66   34   90 1    
    67   35   36 1    
    68   35   37 1    
    69   35   91 1    
    70   36   92 1    
    71   36   93 1    
    72   36   94 1    
    73   37   38 2    
    74   37   39 am   BACKBONE|DICT|INTERRES
    75   39   40 1    
    76   39   95 1    
    77   40   41 1    
    78   40   42 1    
    79   40   96 1    
    80   41   97 1    
    81   41   98 1    
    82   41   99 1    
    83   42   43 2    
    84   42   44 am   BACKBONE|DICT|INTERRES
    85   44   45 1    
    86   44  100 1    
    87   45   46 1    
    88   45   47 1    
    89   45  101 1    
    90   46  102 1    
    91   46  103 1    
    92   46  104 1    
    93   47   48 2    
    94   47   49 am   BACKBONE|DICT|INTERRES
    95   49   50 1    
    96   49  105 1    
    97   50   51 1    
    98   50   52 1    
    99   50  106 1    
   100   51  107 1    
   101   51  108 1    
   102   51  109 1    
   103   52   53 2    
   104   52   54 am   BACKBONE|DICT|INTERRES
   105   54   55 1    
   106   54  110 1    
   107   55   56 1    
   108   55   59 1    
   109   55  111 1    
   110   56   57 am   BACKBONE|DICT|INTERRES
   111   56   58 2    
   112   57  112 1    
   113   57  113 1    
   114   59   60 1    
   115   59  114 1    
   116   59  115 1    
   117   60   61 1    
   118   61  116 1    
   119   61  117 1    
@<TRIPOS>SUBSTRUCTURE
     1 UNK         1 GROUP             0       ****    0 ROOT    
