@<TRIPOS>MOLECULE
3R8
117   119    1
SMALL
USER_CHARGES


@<TRIPOS>ATOM
      1 CA         15.4912  -22.8520  -44.3655 C.3       0 UNK        -0.2013 
      2 C          16.1351  -24.2297  -44.3285 C.2       0 UNK         0.4866 
      3 O          17.1896  -24.4270  -44.9332 O.2       0 UNK        -0.5176 
      4 N          15.5066  -25.1829  -43.6274 N.am      1 UNK        -0.4884 
      5 CA         15.9896  -26.5549  -43.4448 C.3       1 UNK         0.0853 
      6 C6         14.8725  -27.4966  -42.9239 C.3       10 UNK        -0.0849 
      7 S7         13.8199  -28.0669  -44.3007 S.3       10 UNK        -0.2776 
      8 C8         14.5024  -29.7303  -44.6280 C.3       10 UNK         0.0316 
      9 C9         16.0108  -29.7092  -44.8504 C.ar      10 UNK        -0.0863 
     10 C10        16.8744  -30.1811  -43.8557 C.ar      10 UNK        -0.1009 
     11 C11        18.2585  -30.1279  -44.0366 C.ar      10 UNK        -0.0712 
     12 C12        18.7791  -29.6164  -45.2274 C.ar      10 UNK        -0.0894 
     13 C13        17.9294  -29.1486  -46.2325 C.ar      10 UNK        -0.0745 
     14 C14        16.5444  -29.2011  -46.0399 C.ar      10 UNK        -0.0972 
     15 C15        18.5047  -28.5978  -47.5291 C.3       10 UNK         0.0209 
     16 S16        19.0675  -26.8756  -47.3456 S.3       10 UNK        -0.2568 
     17 C17        20.8447  -27.0909  -46.9769 C.3       10 UNK        -0.0983 
     18 CA         21.3932  -25.9945  -46.0224 C.3       3 UNK         0.0876 
     19 N          20.6652  -25.9482  -44.7425 N.am      3 UNK        -0.4424 
     20 C          20.7482  -26.8225  -43.7260 C.2       2 UNK         0.4918 
     21 O          21.5520  -27.7521  -43.6699 O.2       2 UNK        -0.4875 
     22 CA         19.7412  -26.6260  -42.5914 C.3       2 UNK         0.0481 
     23 CB         20.0520  -25.3450  -41.7910 C.3       2 UNK        -0.1831 
     24 N          18.4077  -26.5865  -43.1810 N.am      2 UNK        -0.4498 
     25 C          17.2359  -26.5759  -42.5398 C.2       1 UNK         0.5027 
     26 O          17.1092  -26.5671  -41.3138 O.2       1 UNK        -0.4969 
     27 C          22.9336  -26.0643  -45.8623 C.2       3 UNK         0.5005 
     28 O          23.6135  -26.6568  -46.7021 O.2       3 UNK        -0.5279 
     29 N          23.4507  -25.4782  -44.7687 N.am      4 UNK        -0.4463 
     30 CA         24.8474  -25.5054  -44.3075 C.3       4 UNK         0.0283 
     31 CB         25.7732  -24.7723  -45.3018 C.3       4 UNK        -0.1875 
     32 C          25.3747  -26.9131  -43.9437 C.2       4 UNK         0.4949 
     33 O          26.5884  -27.0895  -43.8319 O.2       4 UNK        -0.5039 
     34 N          24.4700  -27.8806  -43.7405 N.am      5 UNK        -0.4663 
     35 CA         24.7711  -29.2752  -43.4032 C.3       5 UNK         0.0242 
     36 CB         24.1229  -30.1783  -44.4686 C.3       5 UNK        -0.1982 
     37 C          24.2719  -29.6500  -41.9967 C.2       5 UNK         0.5017 
     38 O          24.3017  -30.8311  -41.6482 O.2       5 UNK        -0.5012 
     39 N          23.7918  -28.6604  -41.2292 N.am      6 UNK        -0.4439 
     40 CA         23.1803  -28.8010  -39.9041 C.3       6 UNK         0.0297 
     41 CB         22.8093  -27.4057  -39.3772 C.3       6 UNK        -0.2006 
     42 C          24.0560  -29.5451  -38.8789 C.2       6 UNK         0.4892 
     43 O          25.2844  -29.5188  -38.9761 O.2       6 UNK        -0.5089 
     44 N          23.3852  -30.1987  -37.9219 N.am      7 UNK        -0.4243 
     45 CA         23.9000  -31.0944  -36.8757 C.3       7 UNK         0.0196 
     46 CB         25.0694  -30.4883  -36.0738 C.3       7 UNK        -0.2007 
     47 C          24.2282  -32.5006  -37.4033 C.2       7 UNK         0.5020 
     48 O          23.9115  -33.4765  -36.7227 O.2       7 UNK        -0.5147 
     49 N          24.7997  -32.5982  -38.6117 N.am      8 UNK        -0.4734 
     50 CA         24.8690  -33.8458  -39.3776 C.3       8 UNK         0.0238 
     51 CB         25.9794  -33.7585  -40.4385 C.3       8 UNK        -0.1912 
     52 C          23.4973  -34.1423  -40.0053 C.2       8 UNK         0.5038 
     53 O          22.9293  -35.2079  -39.7640 O.2       8 UNK        -0.5046 
     54 N          22.9754  -33.1625  -40.7516 N.am      9 UNK        -0.4200 
     55 CA         21.5853  -33.0852  -41.2062 C.3       9 UNK         0.0839 
     56 C          20.6632  -32.6450  -40.0369 C.2       9 UNK         0.5513 
     57 N          19.5240  -33.2986  -39.8594 N.am      9 UNK        -0.7519 
     58 O          20.9612  -31.6972  -39.3115 O.2       9 UNK        -0.4960 
     59 C59        21.4909  -32.1217  -42.4139 C.3       10 UNK        -0.0876 
     60 S60        19.9206  -32.2178  -43.3343 S.3       10 UNK        -0.2414 
     61 C61        19.2039  -30.5920  -42.9426 C.3       10 UNK         0.0169 
     62 H62        16.1702  -22.1099  -43.9466 H         1 UNK         0.0903 
     63 H63        15.2706  -22.5695  -45.3946 H         1 UNK         0.0903 
     64 H64        14.5611  -22.8198  -43.7983 H         1 UNK         0.0903 
     65 H65        14.6480  -24.9566  -43.1458 H         1 UNK         0.3096 
     66 H66        16.3075  -26.9178  -44.4245 H         1 UNK         0.1121 
     67 H67        14.2523  -26.9940  -42.1798 H         1 UNK         0.0849 
     68 H68        15.2812  -28.3705  -42.4139 H         1 UNK         0.0849 
     69 H69        14.2453  -30.3899  -43.7975 H         1 UNK         0.0865 
     70 H70        14.0119  -30.1485  -45.5082 H         1 UNK         0.0865 
     71 H71        16.4714  -30.5741  -42.9322 H         1 UNK         0.1346 
     72 H72        19.8508  -29.5830  -45.3632 H         1 UNK         0.1412 
     73 H73        15.8786  -28.8329  -46.8090 H         1 UNK         0.1426 
     74 H74        17.7483  -28.6301  -48.3148 H         1 UNK         0.0716 
     75 H75        19.3240  -29.2286  -47.8774 H         1 UNK         0.0716 
     76 H76        21.0264  -28.0797  -46.5558 H         1 UNK         0.0695 
     77 H77        21.3695  -27.0685  -47.9337 H         1 UNK         0.0695 
     78 H78        21.2093  -25.0315  -46.5017 H         1 UNK         0.0983 
     79 H79        19.9810  -25.2066  -44.6740 H         1 UNK         0.3095 
     80 H80        19.8045  -27.4889  -41.9256 H         1 UNK         0.0454 
     81 H81        21.1012  -25.3058  -41.4976 H         1 UNK         0.0851 
     82 H82        19.8416  -24.4435  -42.3673 H         1 UNK         0.0851 
     83 H83        19.4632  -25.2961  -40.8752 H         1 UNK         0.0851 
     84 H84        18.3879  -26.5922  -44.1937 H         1 UNK         0.2976 
     85 H85        22.8011  -25.0135  -44.1495 H         1 UNK         0.3116 
     86 H86        24.8612  -24.9388  -43.3753 H         1 UNK         0.0646 
     87 H87        26.7740  -24.6467  -44.8866 H         1 UNK         0.0847 
     88 H88        25.3965  -23.7770  -45.5368 H         1 UNK         0.0847 
     89 H89        25.8796  -25.3212  -46.2378 H         1 UNK         0.0847 
     90 H90        23.4819  -27.6651  -43.8494 H         1 UNK         0.3040 
     91 H91        25.8487  -29.4511  -43.4116 H         1 UNK         0.1015 
     92 H92        24.4749  -29.9242  -45.4686 H         1 UNK         0.0786 
     93 H93        23.0355  -30.0876  -44.4648 H         1 UNK         0.0786 
     94 H94        24.3660  -31.2279  -44.2983 H         1 UNK         0.0786 
     95 H95        23.8392  -27.7272  -41.6079 H         1 UNK         0.3172 
     96 H96        22.2609  -29.3730  -40.0432 H         1 UNK         0.0595 
     97 H97        22.1032  -26.9073  -40.0399 H         1 UNK         0.0839 
     98 H98        23.6877  -26.7671  -39.2748 H         1 UNK         0.0839 
     99 H99        22.3363  -27.4671  -38.3960 H         1 UNK         0.0839 
    100 H100       22.3750  -30.1925  -37.9936 H         1 UNK         0.2998 
    101 H101       23.0684  -31.2165  -36.1796 H         1 UNK         0.0822 
    102 H102       25.2964  -31.1037  -35.2024 H         1 UNK         0.0787 
    103 H103       25.9841  -30.4231  -36.6633 H         1 UNK         0.0787 
    104 H104       24.8284  -29.4888  -35.7119 H         1 UNK         0.0787 
    105 H105       25.0422  -31.7398  -39.0931 H         1 UNK         0.3055 
    106 H106       25.1134  -34.6686  -38.7015 H         1 UNK         0.1106 
    107 H107       25.8203  -32.9386  -41.1388 H         1 UNK         0.0828 
    108 H108       26.9553  -33.6139  -39.9749 H         1 UNK         0.0828 
    109 H109       26.0320  -34.6788  -41.0216 H         1 UNK         0.0828 
    110 H110       23.5281  -32.3235  -40.9117 H         1 UNK         0.2931 
    111 H111       21.2874  -34.0812  -41.5407 H         1 UNK         0.0412 
    112 H112       19.2655  -34.0639  -40.4628 H         1 UNK         0.3472 
    113 H113       18.9090  -33.0187  -39.1116 H         1 UNK         0.3472 
    114 H114       22.2804  -32.3582  -43.1289 H         1 UNK         0.0970 
    115 H115       21.6839  -31.0960  -42.0980 H         1 UNK         0.0970 
    116 H116       19.9925  -29.8474  -42.8339 H         1 UNK         0.0612 
    117 H117       18.6955  -30.6452  -41.9786 H         1 UNK         0.0612 
@<TRIPOS>BOND
     1    1    2 1    
     2    1   62 1    
     3    1   63 1    
     4    1   64 1    
     5    2    3 2    
     6    2    4 am   BACKBONE|DICT|INTERRES
     7    4    5 1    
     8    4   65 1    
     9    5    6 1    
    10    5   25 1    
    11    5   66 1    
    12    6    7 1    
    13    6   67 1    
    14    6   68 1    
    15    7    8 1    
    16    8    9 1    
    17    8   69 1    
    18    8   70 1    
    19    9   10 ar   
    20    9   14 ar   
    21   10   11 ar   
    22   10   71 1    
    23   11   12 ar   
    24   11   61 1    
    25   12   13 ar   
    26   12   72 1    
    27   13   14 ar   
    28   13   15 1    
    29   14   73 1    
    30   15   16 1    
    31   15   74 1    
    32   15   75 1    
    33   16   17 1    
    34   17   18 1    
    35   17   76 1    
    36   17   77 1    
    37   18   19 1    
    38   18   27 1    
    39   18   78 1    
    40   19   20 am   BACKBONE|DICT|INTERRES
    41   19   79 1    
    42   20   21 2    
    43   20   22 1    
    44   22   23 1    
    45   22   24 1    
    46   22   80 1    
    47   23   81 1    
    48   23   82 1    
    49   23   83 1    
    50   24   25 am   BACKBONE|DICT|INTERRES
    51   24   84 1    
    52   25   26 2    
    53   27   28 2    
    54   27   29 am   BACKBONE|DICT|INTERRES
    55   29   30 1    
    56   29   85 1    
    57   30   31 1    
    58   30   32 1    
    59   30   86 1    
    60   31   87 1    
    61   31   88 1    
    62   31   89 1    
    63   32   33 2    
    64   32   34 am   BACKBONE|DICT|INTERRES
    65   34   35 1    
    66   34   90 1    
    67   35   36 1    
    68   35   37 1    
    69   35   91 1    
    70   36   92 1    
    71   36   93 1    
    72   36   94 1    
    73   37   38 2    
    74   37   39 am   BACKBONE|DICT|INTERRES
    75   39   40 1    
    76   39   95 1    
    77   40   41 1    
    78   40   42 1    
    79   40   96 1    
    80   41   97 1    
    81   41   98 1    
    82   41   99 1    
    83   42   43 2    
    84   42   44 am   BACKBONE|DICT|INTERRES
    85   44   45 1    
    86   44  100 1    
    87   45   46 1    
    88   45   47 1    
    89   45  101 1    
    90   46  102 1    
    91   46  103 1    
    92   46  104 1    
    93   47   48 2    
    94   47   49 am   BACKBONE|DICT|INTERRES
    95   49   50 1    
    96   49  105 1    
    97   50   51 1    
    98   50   52 1    
    99   50  106 1    
   100   51  107 1    
   101   51  108 1    
   102   51  109 1    
   103   52   53 2    
   104   52   54 am   BACKBONE|DICT|INTERRES
   105   54   55 1    
   106   54  110 1    
   107   55   56 1    
   108   55   59 1    
   109   55  111 1    
   110   56   57 am   BACKBONE|DICT|INTERRES
   111   56   58 2    
   112   57  112 1    
   113   57  113 1    
   114   59   60 1    
   115   59  114 1    
   116   59  115 1    
   117   60   61 1    
   118   61  116 1    
   119   61  117 1    
@<TRIPOS>SUBSTRUCTURE
     1 UNK         1 GROUP             0       ****    0 ROOT    
