@<TRIPOS>MOLECULE
3R8
117   119    1
SMALL
USER_CHARGES


@<TRIPOS>ATOM
      1 CA         19.8458  -28.6514  -41.9394 C.3       0 UNK        -0.2013 
      2 C          18.6856  -27.6711  -41.9288 C.2       0 UNK         0.4866 
      3 O          18.5798  -26.8609  -41.0081 O.2       0 UNK        -0.5176 
      4 N          17.8050  -27.7455  -42.9360 N.am      1 UNK        -0.4884 
      5 CA         16.5979  -26.9154  -43.0542 C.3       1 UNK         0.0853 
      6 C6         15.6328  -27.4091  -44.1624 C.3       10 UNK        -0.0849 
      7 S7         15.1983  -29.1762  -44.0299 S.3       10 UNK        -0.2776 
      8 C8         15.9253  -29.8468  -45.5611 C.3       10 UNK         0.0316 
      9 C9         17.4340  -30.0130  -45.4473 C.ar      10 UNK        -0.0863 
     10 C10        17.9603  -31.1759  -44.8806 C.ar      10 UNK        -0.1009 
     11 C11        19.3418  -31.3583  -44.7812 C.ar      10 UNK        -0.0712 
     12 C12        20.2025  -30.3662  -45.2609 C.ar      10 UNK        -0.0894 
     13 C13        19.6895  -29.1849  -45.8095 C.ar      10 UNK        -0.0745 
     14 C14        18.3035  -29.0216  -45.9138 C.ar      10 UNK        -0.0972 
     15 C15        20.6276  -28.0870  -46.2961 C.3       10 UNK         0.0209 
     16 S16        21.7163  -27.4871  -44.9641 S.3       10 UNK        -0.2568 
     17 C17        22.3313  -25.9125  -45.6642 C.3       10 UNK        -0.0983 
     18 CA         22.1081  -24.6777  -44.7439 C.3       3 UNK         0.0876 
     19 N          20.7092  -24.4874  -44.3737 N.am      3 UNK        -0.4424 
     20 C          19.7787  -23.9316  -45.1528 C.2       2 UNK         0.4918 
     21 O          19.9976  -23.5341  -46.2984 O.2       2 UNK        -0.4875 
     22 CA         18.3674  -23.8374  -44.5564 C.3       2 UNK         0.0481 
     23 CB         17.3418  -23.2336  -45.5408 C.3       2 UNK        -0.1831 
     24 N          17.9433  -25.1665  -44.1196 N.am      2 UNK        -0.4498 
     25 C          16.9229  -25.4271  -43.2921 C.2       1 UNK         0.5027 
     26 O          16.2378  -24.5600  -42.7472 O.2       1 UNK        -0.4969 
     27 C          22.9449  -24.7487  -43.4560 C.2       3 UNK         0.5005 
     28 O          22.4064  -25.0704  -42.3934 O.2       3 UNK        -0.5279 
     29 N          24.2486  -24.4714  -43.5836 N.am      4 UNK        -0.4463 
     30 CA         25.2496  -24.6634  -42.5272 C.3       4 UNK         0.0283 
     31 CB         26.2664  -23.5106  -42.5908 C.3       4 UNK        -0.1875 
     32 C          25.9682  -26.0220  -42.6499 C.2       4 UNK         0.4949 
     33 O          26.7512  -26.3723  -41.7674 O.2       4 UNK        -0.5039 
     34 N          25.7131  -26.7538  -43.7444 N.am      5 UNK        -0.4663 
     35 CA         26.3385  -28.0358  -44.0800 C.3       5 UNK         0.0242 
     36 CB         26.1314  -28.2996  -45.5813 C.3       5 UNK        -0.1982 
     37 C          25.8167  -29.2261  -43.2553 C.2       5 UNK         0.5017 
     38 O          26.4486  -30.2834  -43.2706 O.2       5 UNK        -0.5012 
     39 N          24.6814  -29.0517  -42.5720 N.am      6 UNK        -0.4439 
     40 CA         24.0244  -30.0558  -41.7446 C.3       6 UNK         0.0297 
     41 CB         23.0742  -30.8958  -42.6192 C.3       6 UNK        -0.2006 
     42 C          23.2611  -29.3527  -40.6168 C.2       6 UNK         0.4892 
     43 O          23.0969  -28.1312  -40.6502 O.2       6 UNK        -0.5089 
     44 N          22.7894  -30.1515  -39.6562 N.am      7 UNK        -0.4243 
     45 CA         21.8979  -29.7338  -38.5775 C.3       7 UNK         0.0196 
     46 CB         22.7042  -29.3255  -37.3299 C.3       7 UNK        -0.2007 
     47 C          20.9085  -30.8686  -38.2963 C.2       7 UNK         0.5020 
     48 O          19.7138  -30.7084  -38.5420 O.2       7 UNK        -0.5147 
     49 N          21.4284  -32.0093  -37.8205 N.am      8 UNK        -0.4734 
     50 CA         20.6418  -33.2187  -37.5493 C.3       8 UNK         0.0238 
     51 CB         21.3664  -34.0621  -36.4868 C.3       8 UNK        -0.1912 
     52 C          20.3685  -34.0635  -38.8074 C.2       8 UNK         0.5038 
     53 O          19.4049  -34.8302  -38.8112 O.2       8 UNK        -0.5046 
     54 N          21.2261  -33.9240  -39.8298 N.am      9 UNK        -0.4200 
     55 CA         21.2013  -34.6603  -41.1088 C.3       9 UNK         0.0839 
     56 C          21.5260  -36.1819  -40.9846 C.2       9 UNK         0.5513 
     57 N          22.1099  -36.6469  -39.8864 N.am      9 UNK        -0.7519 
     58 O          21.2784  -36.9522  -41.9090 O.2       9 UNK        -0.4960 
     59 C59        19.9210  -34.3890  -41.9517 C.3       10 UNK        -0.0876 
     60 S60        19.6792  -32.6220  -42.3469 S.3       10 UNK        -0.2414 
     61 C61        19.8878  -32.6324  -44.1564 C.3       10 UNK         0.0169 
     62 H62        19.7310  -29.4070  -42.7133 H         1 UNK         0.0903 
     63 H63        20.7808  -28.1201  -42.1134 H         1 UNK         0.0903 
     64 H64        19.9149  -29.1654  -40.9817 H         1 UNK         0.0903 
     65 H65        17.9180  -28.4577  -43.6467 H         1 UNK         0.3096 
     66 H66        16.0708  -26.9780  -42.0993 H         1 UNK         0.1121 
     67 H67        14.6994  -26.8439  -44.1179 H         1 UNK         0.0849 
     68 H68        16.0452  -27.2098  -45.1526 H         1 UNK         0.0849 
     69 H69        15.4682  -30.8159  -45.7675 H         1 UNK         0.0865 
     70 H70        15.6674  -29.2115  -46.4099 H         1 UNK         0.0865 
     71 H71        17.2930  -31.9425  -44.5099 H         1 UNK         0.1346 
     72 H72        21.2730  -30.5005  -45.1909 H         1 UNK         0.1412 
     73 H73        17.9010  -28.1220  -46.3590 H         1 UNK         0.1426 
     74 H74        20.0535  -27.2483  -46.6931 H         1 UNK         0.0716 
     75 H75        21.2375  -28.4662  -47.1170 H         1 UNK         0.0716 
     76 H76        23.3896  -26.0334  -45.8997 H         1 UNK         0.0695 
     77 H77        21.8477  -25.7318  -46.6250 H         1 UNK         0.0695 
     78 H78        22.4349  -23.7840  -45.2809 H         1 UNK         0.0983 
     79 H79        20.4930  -24.7680  -43.4248 H         1 UNK         0.3095 
     80 H80        18.4346  -23.1863  -43.6825 H         1 UNK         0.0454 
     81 H81        17.6628  -22.2499  -45.8859 H         1 UNK         0.0851 
     82 H82        17.2124  -23.8633  -46.4217 H         1 UNK         0.0851 
     83 H83        16.3645  -23.1028  -45.0769 H         1 UNK         0.0851 
     84 H84        18.4756  -25.9437  -44.4870 H         1 UNK         0.2976 
     85 H85        24.6007  -24.1725  -44.4832 H         1 UNK         0.3116 
     86 H86        24.7692  -24.6375  -41.5467 H         1 UNK         0.0646 
     87 H87        27.0074  -23.5984  -41.7949 H         1 UNK         0.0847 
     88 H88        25.7779  -22.5437  -42.4688 H         1 UNK         0.0847 
     89 H89        26.8072  -23.4975  -43.5379 H         1 UNK         0.0847 
     90 H90        25.0396  -26.3994  -44.4054 H         1 UNK         0.3040 
     91 H91        27.4109  -27.9563  -43.8873 H         1 UNK         0.1015 
     92 H92        26.5595  -27.5019  -46.1887 H         1 UNK         0.0786 
     93 H93        25.0733  -28.3855  -45.8335 H         1 UNK         0.0786 
     94 H94        26.6146  -29.2292  -45.8859 H         1 UNK         0.0786 
     95 H95        24.2527  -28.1347  -42.5416 H         1 UNK         0.3172 
     96 H96        24.7770  -30.7038  -41.2901 H         1 UNK         0.0595 
     97 H97        23.6030  -31.3652  -43.4488 H         1 UNK         0.0839 
     98 H98        22.2744  -30.2833  -43.0362 H         1 UNK         0.0839 
     99 H99        22.6059  -31.6951  -42.0452 H         1 UNK         0.0839 
    100 H100       22.9688  -31.1414  -39.7265 H         1 UNK         0.2998 
    101 H101       21.3117  -28.8706  -38.9020 H         1 UNK         0.0822 
    102 H102       23.3103  -28.4417  -37.5300 H         1 UNK         0.0787 
    103 H103       22.0409  -29.0807  -36.4992 H         1 UNK         0.0787 
    104 H104       23.3754  -30.1163  -36.9940 H         1 UNK         0.0787 
    105 H105       22.4133  -32.0464  -37.5987 H         1 UNK         0.3055 
    106 H106       19.6708  -32.9249  -37.1429 H         1 UNK         0.1106 
    107 H107       22.3531  -34.3821  -36.8234 H         1 UNK         0.0828 
    108 H108       21.4925  -33.5057  -35.5578 H         1 UNK         0.0828 
    109 H109       20.7968  -34.9614  -36.2470 H         1 UNK         0.0828 
    110 H110       21.9990  -33.2913  -39.7084 H         1 UNK         0.2931 
    111 H111       22.0400  -34.2592  -41.6791 H         1 UNK         0.0412 
    112 H112       22.3258  -37.6296  -39.8216 H         1 UNK         0.3472 
    113 H113       22.3339  -36.0298  -39.1229 H         1 UNK         0.3472 
    114 H114       19.9555  -34.9540  -42.8843 H         1 UNK         0.0970 
    115 H115       19.0339  -34.7484  -41.4287 H         1 UNK         0.0970 
    116 H116       19.3598  -33.4853  -44.5854 H         1 UNK         0.0612 
    117 H117       20.9441  -32.7645  -44.3954 H         1 UNK         0.0612 
@<TRIPOS>BOND
     1    1    2 1    
     2    1   62 1    
     3    1   63 1    
     4    1   64 1    
     5    2    3 2    
     6    2    4 am   BACKBONE|DICT|INTERRES
     7    4    5 1    
     8    4   65 1    
     9    5    6 1    
    10    5   25 1    
    11    5   66 1    
    12    6    7 1    
    13    6   67 1    
    14    6   68 1    
    15    7    8 1    
    16    8    9 1    
    17    8   69 1    
    18    8   70 1    
    19    9   10 ar   
    20    9   14 ar   
    21   10   11 ar   
    22   10   71 1    
    23   11   12 ar   
    24   11   61 1    
    25   12   13 ar   
    26   12   72 1    
    27   13   14 ar   
    28   13   15 1    
    29   14   73 1    
    30   15   16 1    
    31   15   74 1    
    32   15   75 1    
    33   16   17 1    
    34   17   18 1    
    35   17   76 1    
    36   17   77 1    
    37   18   19 1    
    38   18   27 1    
    39   18   78 1    
    40   19   20 am   BACKBONE|DICT|INTERRES
    41   19   79 1    
    42   20   21 2    
    43   20   22 1    
    44   22   23 1    
    45   22   24 1    
    46   22   80 1    
    47   23   81 1    
    48   23   82 1    
    49   23   83 1    
    50   24   25 am   BACKBONE|DICT|INTERRES
    51   24   84 1    
    52   25   26 2    
    53   27   28 2    
    54   27   29 am   BACKBONE|DICT|INTERRES
    55   29   30 1    
    56   29   85 1    
    57   30   31 1    
    58   30   32 1    
    59   30   86 1    
    60   31   87 1    
    61   31   88 1    
    62   31   89 1    
    63   32   33 2    
    64   32   34 am   BACKBONE|DICT|INTERRES
    65   34   35 1    
    66   34   90 1    
    67   35   36 1    
    68   35   37 1    
    69   35   91 1    
    70   36   92 1    
    71   36   93 1    
    72   36   94 1    
    73   37   38 2    
    74   37   39 am   BACKBONE|DICT|INTERRES
    75   39   40 1    
    76   39   95 1    
    77   40   41 1    
    78   40   42 1    
    79   40   96 1    
    80   41   97 1    
    81   41   98 1    
    82   41   99 1    
    83   42   43 2    
    84   42   44 am   BACKBONE|DICT|INTERRES
    85   44   45 1    
    86   44  100 1    
    87   45   46 1    
    88   45   47 1    
    89   45  101 1    
    90   46  102 1    
    91   46  103 1    
    92   46  104 1    
    93   47   48 2    
    94   47   49 am   BACKBONE|DICT|INTERRES
    95   49   50 1    
    96   49  105 1    
    97   50   51 1    
    98   50   52 1    
    99   50  106 1    
   100   51  107 1    
   101   51  108 1    
   102   51  109 1    
   103   52   53 2    
   104   52   54 am   BACKBONE|DICT|INTERRES
   105   54   55 1    
   106   54  110 1    
   107   55   56 1    
   108   55   59 1    
   109   55  111 1    
   110   56   57 am   BACKBONE|DICT|INTERRES
   111   56   58 2    
   112   57  112 1    
   113   57  113 1    
   114   59   60 1    
   115   59  114 1    
   116   59  115 1    
   117   60   61 1    
   118   61  116 1    
   119   61  117 1    
@<TRIPOS>SUBSTRUCTURE
     1 UNK         1 GROUP             0       ****    0 ROOT    
