@<TRIPOS>MOLECULE
3R8
117   119    1
SMALL
USER_CHARGES


@<TRIPOS>ATOM
      1 CA         23.2738  -23.3123  -48.0967 C.3       0 UNK        -0.2013 
      2 C          22.6716  -24.0539  -46.9125 C.2       0 UNK         0.4866 
      3 O          22.6799  -23.5337  -45.7966 O.2       0 UNK        -0.5176 
      4 N          22.1558  -25.2681  -47.1444 N.am      1 UNK        -0.4884 
      5 CA         21.4795  -26.0921  -46.1386 C.3       1 UNK         0.0853 
      6 C6         21.3512  -27.5580  -46.6214 C.3       10 UNK        -0.0849 
      7 S7         20.8376  -28.6973  -45.2917 S.3       10 UNK        -0.2776 
      8 C8         19.3453  -29.4409  -46.0207 C.3       10 UNK         0.0316 
      9 C9         18.5948  -30.2732  -44.9929 C.ar      10 UNK        -0.0863 
     10 C10        19.0354  -31.5586  -44.6664 C.ar      10 UNK        -0.1009 
     11 C11        18.3548  -32.3199  -43.7116 C.ar      10 UNK        -0.0712 
     12 C12        17.2320  -31.7836  -43.0748 C.ar      10 UNK        -0.0894 
     13 C13        16.7740  -30.5019  -43.3961 C.ar      10 UNK        -0.0745 
     14 C14        17.4543  -29.7597  -44.3703 C.ar      10 UNK        -0.0972 
     15 C15        15.5211  -29.9606  -42.7100 C.3       10 UNK         0.0209 
     16 S16        15.5526  -28.1619  -42.4056 S.3       10 UNK        -0.2568 
     17 C17        16.7272  -28.0160  -41.0154 C.3       10 UNK        -0.0983 
     18 CA         18.2226  -27.8906  -41.4336 C.3       3 UNK         0.0876 
     19 N          18.4832  -26.9540  -42.5381 N.am      3 UNK        -0.4424 
     20 C          18.2073  -25.6428  -42.5922 C.2       2 UNK         0.4918 
     21 O          17.7225  -25.0053  -41.6559 O.2       2 UNK        -0.4875 
     22 CA         18.5578  -24.9257  -43.9065 C.3       2 UNK         0.0481 
     23 CB         18.6507  -23.3943  -43.7517 C.3       2 UNK        -0.1831 
     24 N          19.8020  -25.4536  -44.4690 N.am      2 UNK        -0.4498 
     25 C          20.1097  -25.4808  -45.7711 C.2       1 UNK         0.5027 
     26 O          19.3646  -25.0720  -46.6657 O.2       1 UNK        -0.4969 
     27 C          19.1238  -27.6136  -40.2120 C.2       3 UNK         0.5005 
     28 O          19.9960  -28.4222  -39.8949 O.2       3 UNK        -0.5279 
     29 N          18.9137  -26.4623  -39.5608 N.am      4 UNK        -0.4463 
     30 CA         19.6801  -25.9909  -38.4054 C.3       4 UNK         0.0283 
     31 CB         18.8941  -24.8742  -37.7007 C.3       4 UNK        -0.1875 
     32 C          21.0883  -25.5000  -38.7795 C.2       4 UNK         0.4949 
     33 O          21.9755  -25.5046  -37.9257 O.2       4 UNK        -0.5039 
     34 N          21.2832  -25.1022  -40.0447 N.am      5 UNK        -0.4663 
     35 CA         22.5424  -24.6078  -40.6114 C.3       5 UNK         0.0242 
     36 CB         22.2283  -23.7802  -41.8724 C.3       5 UNK        -0.1982 
     37 C          23.5677  -25.7320  -40.8753 C.2       5 UNK         0.5017 
     38 O          24.0709  -25.8539  -41.9931 O.2       5 UNK        -0.5012 
     39 N          23.8546  -26.5245  -39.8326 N.am      6 UNK        -0.4439 
     40 CA         24.8412  -27.6087  -39.7618 C.3       6 UNK         0.0297 
     41 CB         26.2705  -27.0250  -39.7620 C.3       6 UNK        -0.2006 
     42 C          24.6445  -28.7054  -40.8286 C.2       6 UNK         0.4892 
     43 O          25.6162  -29.1289  -41.4591 O.2       6 UNK        -0.5089 
     44 N          23.3930  -29.1494  -41.0151 N.am      7 UNK        -0.4243 
     45 CA         23.0431  -30.2435  -41.9232 C.3       7 UNK         0.0196 
     46 CB         21.5193  -30.2868  -42.1100 C.3       7 UNK        -0.2007 
     47 C          23.5624  -31.5872  -41.3840 C.2       7 UNK         0.5020 
     48 O          23.2810  -31.9266  -40.2324 O.2       7 UNK        -0.5147 
     49 N          24.3146  -32.3208  -42.2143 N.am      8 UNK        -0.4734 
     50 CA         24.8664  -33.6345  -41.8659 C.3       8 UNK         0.0238 
     51 CB         26.0509  -33.9613  -42.7905 C.3       8 UNK        -0.1912 
     52 C          23.8058  -34.7450  -41.9248 C.2       8 UNK         0.5038 
     53 O          23.7806  -35.6043  -41.0430 O.2       8 UNK        -0.5046 
     54 N          22.9552  -34.6924  -42.9598 N.am      9 UNK        -0.4200 
     55 CA         21.8230  -35.6024  -43.2124 C.3       9 UNK         0.0839 
     56 C          22.2130  -37.0921  -43.4618 C.2       9 UNK         0.5513 
     57 N          23.4497  -37.3937  -43.8392 N.am      9 UNK        -0.7519 
     58 O          21.3791  -37.9869  -43.3465 O.2       9 UNK        -0.4960 
     59 C59        20.6751  -35.4399  -42.1732 C.3       10 UNK        -0.0876 
     60 S60        20.0715  -33.7209  -42.0649 S.3       10 UNK        -0.2414 
     61 C61        18.8232  -33.7284  -43.3847 C.3       10 UNK         0.0169 
     62 H62        22.7506  -22.3694  -48.2534 H         1 UNK         0.0903 
     63 H63        24.3239  -23.0920  -47.9067 H         1 UNK         0.0903 
     64 H64        23.2104  -23.8923  -49.0173 H         1 UNK         0.0903 
     65 H65        22.1483  -25.6303  -48.0875 H         1 UNK         0.3096 
     66 H66        22.1112  -26.0861  -45.2464 H         1 UNK         0.1121 
     67 H67        20.6693  -27.6285  -47.4713 H         1 UNK         0.0849 
     68 H68        22.3172  -27.9112  -46.9861 H         1 UNK         0.0849 
     69 H69        19.6272  -30.0650  -46.8703 H         1 UNK         0.0865 
     70 H70        18.6995  -28.6544  -46.4150 H         1 UNK         0.0865 
     71 H71        19.9130  -31.9640  -45.1515 H         1 UNK         0.1346 
     72 H72        16.7074  -32.3734  -42.3352 H         1 UNK         0.1412 
     73 H73        17.1001  -28.7749  -44.6413 H         1 UNK         0.1426 
     74 H74        15.3463  -30.4743  -41.7633 H         1 UNK         0.0716 
     75 H75        14.6633  -30.1858  -43.3447 H         1 UNK         0.0716 
     76 H76        16.5934  -28.8706  -40.3497 H         1 UNK         0.0695 
     77 H77        16.4123  -27.1427  -40.4417 H         1 UNK         0.0695 
     78 H78        18.5286  -28.8676  -41.8114 H         1 UNK         0.0983 
     79 H79        18.8831  -27.3800  -43.3619 H         1 UNK         0.3095 
     80 H80        17.7384  -25.1492  -44.5928 H         1 UNK         0.0454 
     81 H81        18.8595  -22.9089  -44.7051 H         1 UNK         0.0851 
     82 H82        19.4353  -23.1075  -43.0518 H         1 UNK         0.0851 
     83 H83        17.7130  -22.9790  -43.3803 H         1 UNK         0.0851 
     84 H84        20.4695  -25.8208  -43.8051 H         1 UNK         0.2976 
     85 H85        18.2278  -25.8250  -39.9570 H         1 UNK         0.3116 
     86 H86        19.7956  -26.8226  -37.7070 H         1 UNK         0.0646 
     87 H87        19.4293  -24.5158  -36.8201 H         1 UNK         0.0847 
     88 H88        17.9192  -25.2267  -37.3636 H         1 UNK         0.0847 
     89 H89        18.7335  -24.0169  -38.3560 H         1 UNK         0.0847 
     90 H90        20.4944  -25.1510  -40.6713 H         1 UNK         0.3040 
     91 H91        23.0019  -23.9336  -39.8848 H         1 UNK         0.1015 
     92 H92        21.5464  -22.9595  -41.6497 H         1 UNK         0.0786 
     93 H93        21.7809  -24.3889  -42.6574 H         1 UNK         0.0786 
     94 H94        23.1356  -23.3376  -42.2862 H         1 UNK         0.0786 
     95 H95        23.3447  -26.3301  -38.9735 H         1 UNK         0.3172 
     96 H96        24.6872  -28.0965  -38.7981 H         1 UNK         0.0595 
     97 H97        26.5089  -26.5433  -40.7111 H         1 UNK         0.0839 
     98 H98        27.0137  -27.8063  -39.5978 H         1 UNK         0.0839 
     99 H99        26.3991  -26.2875  -38.9698 H         1 UNK         0.0839 
    100 H100       22.6461  -28.7747  -40.4465 H         1 UNK         0.2998 
    101 H101       23.4991  -30.0362  -42.8939 H         1 UNK         0.0822 
    102 H102       21.0059  -30.5934  -41.1977 H         1 UNK         0.0787 
    103 H103       21.1239  -29.3153  -42.4040 H         1 UNK         0.0787 
    104 H104       21.2469  -30.9979  -42.8897 H         1 UNK         0.0787 
    105 H105       24.5273  -31.9597  -43.1336 H         1 UNK         0.3055 
    106 H106       25.2413  -33.5936  -40.8402 H         1 UNK         0.1106 
    107 H107       26.4847  -34.9304  -42.5396 H         1 UNK         0.0828 
    108 H108       25.7538  -33.9988  -43.8392 H         1 UNK         0.0828 
    109 H109       26.8442  -33.2198  -42.6933 H         1 UNK         0.0828 
    110 H110       23.0674  -33.9446  -43.6272 H         1 UNK         0.2931 
    111 H111       21.4221  -35.2798  -44.1736 H         1 UNK         0.0412 
    112 H112       24.1417  -36.6703  -43.9500 H         1 UNK         0.3472 
    113 H113       23.6933  -38.3571  -44.0095 H         1 UNK         0.3472 
    114 H114       19.8307  -36.0871  -42.4174 H         1 UNK         0.0970 
    115 H115       21.0130  -35.7505  -41.1833 H         1 UNK         0.0970 
    116 H116       19.2389  -34.1916  -44.2806 H         1 UNK         0.0612 
    117 H117       17.9793  -34.3492  -43.0797 H         1 UNK         0.0612 
@<TRIPOS>BOND
     1    1    2 1    
     2    1   62 1    
     3    1   63 1    
     4    1   64 1    
     5    2    3 2    
     6    2    4 am   BACKBONE|DICT|INTERRES
     7    4    5 1    
     8    4   65 1    
     9    5    6 1    
    10    5   25 1    
    11    5   66 1    
    12    6    7 1    
    13    6   67 1    
    14    6   68 1    
    15    7    8 1    
    16    8    9 1    
    17    8   69 1    
    18    8   70 1    
    19    9   10 ar   
    20    9   14 ar   
    21   10   11 ar   
    22   10   71 1    
    23   11   12 ar   
    24   11   61 1    
    25   12   13 ar   
    26   12   72 1    
    27   13   14 ar   
    28   13   15 1    
    29   14   73 1    
    30   15   16 1    
    31   15   74 1    
    32   15   75 1    
    33   16   17 1    
    34   17   18 1    
    35   17   76 1    
    36   17   77 1    
    37   18   19 1    
    38   18   27 1    
    39   18   78 1    
    40   19   20 am   BACKBONE|DICT|INTERRES
    41   19   79 1    
    42   20   21 2    
    43   20   22 1    
    44   22   23 1    
    45   22   24 1    
    46   22   80 1    
    47   23   81 1    
    48   23   82 1    
    49   23   83 1    
    50   24   25 am   BACKBONE|DICT|INTERRES
    51   24   84 1    
    52   25   26 2    
    53   27   28 2    
    54   27   29 am   BACKBONE|DICT|INTERRES
    55   29   30 1    
    56   29   85 1    
    57   30   31 1    
    58   30   32 1    
    59   30   86 1    
    60   31   87 1    
    61   31   88 1    
    62   31   89 1    
    63   32   33 2    
    64   32   34 am   BACKBONE|DICT|INTERRES
    65   34   35 1    
    66   34   90 1    
    67   35   36 1    
    68   35   37 1    
    69   35   91 1    
    70   36   92 1    
    71   36   93 1    
    72   36   94 1    
    73   37   38 2    
    74   37   39 am   BACKBONE|DICT|INTERRES
    75   39   40 1    
    76   39   95 1    
    77   40   41 1    
    78   40   42 1    
    79   40   96 1    
    80   41   97 1    
    81   41   98 1    
    82   41   99 1    
    83   42   43 2    
    84   42   44 am   BACKBONE|DICT|INTERRES
    85   44   45 1    
    86   44  100 1    
    87   45   46 1    
    88   45   47 1    
    89   45  101 1    
    90   46  102 1    
    91   46  103 1    
    92   46  104 1    
    93   47   48 2    
    94   47   49 am   BACKBONE|DICT|INTERRES
    95   49   50 1    
    96   49  105 1    
    97   50   51 1    
    98   50   52 1    
    99   50  106 1    
   100   51  107 1    
   101   51  108 1    
   102   51  109 1    
   103   52   53 2    
   104   52   54 am   BACKBONE|DICT|INTERRES
   105   54   55 1    
   106   54  110 1    
   107   55   56 1    
   108   55   59 1    
   109   55  111 1    
   110   56   57 am   BACKBONE|DICT|INTERRES
   111   56   58 2    
   112   57  112 1    
   113   57  113 1    
   114   59   60 1    
   115   59  114 1    
   116   59  115 1    
   117   60   61 1    
   118   61  116 1    
   119   61  117 1    
@<TRIPOS>SUBSTRUCTURE
     1 UNK         1 GROUP             0       ****    0 ROOT    
