@<TRIPOS>MOLECULE
3R8
117   119    1
SMALL
USER_CHARGES


@<TRIPOS>ATOM
      1 CA         15.8783  -22.9143  -44.0509 C.3       0 UNK        -0.2013 
      2 C          16.4257  -24.3334  -44.0404 C.2       0 UNK         0.4866 
      3 O          17.4677  -24.5889  -44.6447 O.2       0 UNK        -0.5176 
      4 N          15.7294  -25.2556  -43.3603 N.am      1 UNK        -0.4884 
      5 CA         16.1119  -26.6611  -43.1905 C.3       1 UNK         0.0853 
      6 C6         14.9150  -27.4972  -42.6667 C.3       10 UNK        -0.0849 
      7 S7         15.2563  -29.2674  -42.3637 S.3       10 UNK        -0.2776 
      8 C8         15.2255  -29.9785  -44.0405 C.3       10 UNK         0.0316 
      9 C9         16.6095  -29.9848  -44.6759 C.ar      10 UNK        -0.0863 
     10 C10        17.6044  -30.8272  -44.1686 C.ar      10 UNK        -0.1009 
     11 C11        18.8740  -30.8614  -44.7519 C.ar      10 UNK        -0.0712 
     12 C12        19.1439  -30.0487  -45.8563 C.ar      10 UNK        -0.0894 
     13 C13        18.1559  -29.2103  -46.3808 C.ar      10 UNK        -0.0745 
     14 C14        16.8902  -29.1823  -45.7864 C.ar      10 UNK        -0.0972 
     15 C15        18.4378  -28.3661  -47.6150 C.3       10 UNK         0.0209 
     16 S16        18.9783  -26.6843  -47.1847 S.3       10 UNK        -0.2568 
     17 C17        20.7672  -26.9251  -46.9119 C.3       10 UNK        -0.0983 
     18 CA         21.3451  -25.9134  -45.8866 C.3       3 UNK         0.0876 
     19 N          20.6705  -26.0055  -44.5799 N.am      3 UNK        -0.4424 
     20 C          20.8571  -26.9379  -43.6306 C.2       2 UNK         0.4918 
     21 O          21.7422  -27.7896  -43.6567 O.2       2 UNK        -0.4875 
     22 CA         19.8866  -26.9080  -42.4488 C.3       2 UNK         0.0481 
     23 CB         20.2087  -25.7065  -41.5340 C.3       2 UNK        -0.1831 
     24 N          18.5301  -26.8564  -42.9858 N.am      2 UNK        -0.4498 
     25 C          17.3789  -26.7593  -42.3140 C.2       1 UNK         0.5027 
     26 O          17.2853  -26.6984  -41.0862 O.2       1 UNK        -0.4969 
     27 C          22.8917  -25.9746  -45.8007 C.2       3 UNK         0.5005 
     28 O          23.5338  -26.5940  -46.6504 O.2       3 UNK        -0.5279 
     29 N          23.4550  -25.3645  -44.7450 N.am      4 UNK        -0.4463 
     30 CA         24.8725  -25.3450  -44.3457 C.3       4 UNK         0.0283 
     31 CB         25.7627  -24.7316  -45.4467 C.3       4 UNK        -0.1875 
     32 C          25.4396  -26.6921  -43.8431 C.2       4 UNK         0.4949 
     33 O          26.5668  -26.7078  -43.3475 O.2       4 UNK        -0.5039 
     34 N          24.6675  -27.7830  -43.9328 N.am      5 UNK        -0.4663 
     35 CA         24.9824  -29.0865  -43.3418 C.3       5 UNK         0.0242 
     36 CB         24.2533  -30.1855  -44.1306 C.3       5 UNK        -0.1982 
     37 C          24.6162  -29.1179  -41.8474 C.2       5 UNK         0.5017 
     38 O          25.3596  -29.6974  -41.0540 O.2       5 UNK        -0.5012 
     39 N          23.5103  -28.4426  -41.4968 N.am      6 UNK        -0.4439 
     40 CA         23.0454  -28.0996  -40.1495 C.3       6 UNK         0.0297 
     41 CB         23.9223  -26.9719  -39.5619 C.3       6 UNK        -0.2006 
     42 C          22.9104  -29.3250  -39.2302 C.2       6 UNK         0.4892 
     43 O          21.9483  -30.0770  -39.3765 O.2       6 UNK        -0.5089 
     44 N          23.8702  -29.5170  -38.3138 N.am      7 UNK        -0.4243 
     45 CA         23.9249  -30.6305  -37.3606 C.3       7 UNK         0.0196 
     46 CB         25.1362  -30.4438  -36.4333 C.3       7 UNK        -0.2007 
     47 C          23.9612  -32.0215  -38.0191 C.2       7 UNK         0.5020 
     48 O          23.4750  -32.9816  -37.4206 O.2       7 UNK        -0.5147 
     49 N          24.4915  -32.1080  -39.2480 N.am      8 UNK        -0.4734 
     50 CA         24.4962  -33.3303  -40.0571 C.3       8 UNK         0.0238 
     51 CB         25.4712  -33.1584  -41.2319 C.3       8 UNK        -0.1912 
     52 C          23.0994  -33.7504  -40.5572 C.2       8 UNK         0.5038 
     53 O          22.9326  -34.9120  -40.9316 O.2       8 UNK        -0.5046 
     54 N          22.1267  -32.8274  -40.5448 N.am      9 UNK        -0.4200 
     55 CA         20.7156  -33.0955  -40.8665 C.3       9 UNK         0.0839 
     56 C          19.9236  -33.7634  -39.7044 C.2       9 UNK         0.5513 
     57 N          20.4814  -33.9139  -38.5075 N.am      9 UNK        -0.7519 
     58 O          18.7788  -34.1645  -39.8972 O.2       9 UNK        -0.4960 
     59 C59        19.9799  -31.8313  -41.3884 C.3       10 UNK        -0.0876 
     60 S60        20.8325  -31.0620  -42.8057 S.3       10 UNK        -0.2414 
     61 C61        19.9489  -31.7944  -44.2150 C.3       10 UNK         0.0169 
     62 H62        14.9491  -22.8297  -43.4878 H         1 UNK         0.0903 
     63 H63        16.6043  -22.2299  -43.6129 H         1 UNK         0.0903 
     64 H64        15.6846  -22.5957  -45.0748 H         1 UNK         0.0903 
     65 H65        14.8960  -24.9701  -42.8656 H         1 UNK         0.3096 
     66 H66        16.3603  -27.0427  -44.1813 H         1 UNK         0.1121 
     67 H67        14.0772  -27.4210  -43.3618 H         1 UNK         0.0849 
     68 H68        14.5549  -27.0754  -41.7265 H         1 UNK         0.0849 
     69 H69        14.8658  -31.0065  -43.9758 H         1 UNK         0.0865 
     70 H70        14.5043  -29.4465  -44.6628 H         1 UNK         0.0865 
     71 H71        17.3855  -31.4583  -43.3188 H         1 UNK         0.1346 
     72 H72        20.1213  -30.0832  -46.3167 H         1 UNK         0.1412 
     73 H73        16.1219  -28.5418  -46.1984 H         1 UNK         0.1426 
     74 H74        17.5336  -28.2953  -48.2215 H         1 UNK         0.0716 
     75 H75        19.1867  -28.8448  -48.2480 H         1 UNK         0.0716 
     76 H76        21.2558  -26.8203  -47.8824 H         1 UNK         0.0695 
     77 H77        20.9607  -27.9445  -46.5781 H         1 UNK         0.0695 
     78 H78        21.1270  -24.9129  -46.2639 H         1 UNK         0.0983 
     79 H79        19.9204  -25.3392  -44.4459 H         1 UNK         0.3095 
     80 H80        20.0006  -27.8366  -41.8860 H         1 UNK         0.0454 
     81 H81        19.6895  -25.7801  -40.5790 H         1 UNK         0.0851 
     82 H82        19.9267  -24.7587  -41.9938 H         1 UNK         0.0851 
     83 H83        21.2744  -25.6532  -41.3084 H         1 UNK         0.0851 
     84 H84        18.4790  -26.8909  -43.9967 H         1 UNK         0.2976 
     85 H85        22.8270  -24.9019  -44.1020 H         1 UNK         0.3116 
     86 H86        24.9173  -24.6736  -43.4868 H         1 UNK         0.0646 
     87 H87        25.8337  -25.3773  -46.3222 H         1 UNK         0.0847 
     88 H88        25.3838  -23.7629  -45.7720 H         1 UNK         0.0847 
     89 H89        26.7788  -24.5744  -45.0828 H         1 UNK         0.0847 
     90 H90        23.7380  -27.6818  -44.3235 H         1 UNK         0.3040 
     91 H91        26.0568  -29.2672  -43.4209 H         1 UNK         0.1015 
     92 H92        24.4096  -31.1679  -43.6872 H         1 UNK         0.0786 
     93 H93        24.6137  -30.2339  -45.1582 H         1 UNK         0.0786 
     94 H94        23.1786  -30.0114  -44.1678 H         1 UNK         0.0786 
     95 H95        22.9197  -28.1203  -42.2600 H         1 UNK         0.3172 
     96 H96        22.0360  -27.7044  -40.2639 H         1 UNK         0.0595 
     97 H97        24.9747  -27.2519  -39.5029 H         1 UNK         0.0839 
     98 H98        23.5924  -26.6951  -38.5595 H         1 UNK         0.0839 
     99 H99        23.8604  -26.0732  -40.1757 H         1 UNK         0.0839 
    100 H100       24.6407  -28.8649  -38.2929 H         1 UNK         0.2998 
    101 H101       23.0175  -30.5851  -36.7547 H         1 UNK         0.0822 
    102 H102       25.1898  -31.2453  -35.6950 H         1 UNK         0.0787 
    103 H103       25.0758  -29.5040  -35.8839 H         1 UNK         0.0787 
    104 H104       26.0745  -30.4499  -36.9897 H         1 UNK         0.0787 
    105 H105       24.8487  -31.2648  -39.6865 H         1 UNK         0.3055 
    106 H106       24.8642  -34.1460  -39.4304 H         1 UNK         0.1106 
    107 H107       26.4826  -32.9519  -40.8817 H         1 UNK         0.0828 
    108 H108       25.5172  -34.0630  -41.8399 H         1 UNK         0.0828 
    109 H109       25.1706  -32.3411  -41.8847 H         1 UNK         0.0828 
    110 H110       22.3241  -31.8937  -40.2012 H         1 UNK         0.2931 
    111 H111       20.7011  -33.8211  -41.6821 H         1 UNK         0.0412 
    112 H112       21.4233  -33.5934  -38.3298 H         1 UNK         0.3472 
    113 H113       19.9531  -34.3535  -37.7703 H         1 UNK         0.3472 
    114 H114       19.8954  -31.0846  -40.5979 H         1 UNK         0.0970 
    115 H115       18.9553  -32.0725  -41.6738 H         1 UNK         0.0970 
    116 H116       20.6769  -32.0130  -44.9977 H         1 UNK         0.0612 
    117 H117       19.5140  -32.7548  -43.9346 H         1 UNK         0.0612 
@<TRIPOS>BOND
     1    1    2 1    
     2    1   62 1    
     3    1   63 1    
     4    1   64 1    
     5    2    3 2    
     6    2    4 am   BACKBONE|DICT|INTERRES
     7    4    5 1    
     8    4   65 1    
     9    5    6 1    
    10    5   25 1    
    11    5   66 1    
    12    6    7 1    
    13    6   67 1    
    14    6   68 1    
    15    7    8 1    
    16    8    9 1    
    17    8   69 1    
    18    8   70 1    
    19    9   10 ar   
    20    9   14 ar   
    21   10   11 ar   
    22   10   71 1    
    23   11   12 ar   
    24   11   61 1    
    25   12   13 ar   
    26   12   72 1    
    27   13   14 ar   
    28   13   15 1    
    29   14   73 1    
    30   15   16 1    
    31   15   74 1    
    32   15   75 1    
    33   16   17 1    
    34   17   18 1    
    35   17   76 1    
    36   17   77 1    
    37   18   19 1    
    38   18   27 1    
    39   18   78 1    
    40   19   20 am   BACKBONE|DICT|INTERRES
    41   19   79 1    
    42   20   21 2    
    43   20   22 1    
    44   22   23 1    
    45   22   24 1    
    46   22   80 1    
    47   23   81 1    
    48   23   82 1    
    49   23   83 1    
    50   24   25 am   BACKBONE|DICT|INTERRES
    51   24   84 1    
    52   25   26 2    
    53   27   28 2    
    54   27   29 am   BACKBONE|DICT|INTERRES
    55   29   30 1    
    56   29   85 1    
    57   30   31 1    
    58   30   32 1    
    59   30   86 1    
    60   31   87 1    
    61   31   88 1    
    62   31   89 1    
    63   32   33 2    
    64   32   34 am   BACKBONE|DICT|INTERRES
    65   34   35 1    
    66   34   90 1    
    67   35   36 1    
    68   35   37 1    
    69   35   91 1    
    70   36   92 1    
    71   36   93 1    
    72   36   94 1    
    73   37   38 2    
    74   37   39 am   BACKBONE|DICT|INTERRES
    75   39   40 1    
    76   39   95 1    
    77   40   41 1    
    78   40   42 1    
    79   40   96 1    
    80   41   97 1    
    81   41   98 1    
    82   41   99 1    
    83   42   43 2    
    84   42   44 am   BACKBONE|DICT|INTERRES
    85   44   45 1    
    86   44  100 1    
    87   45   46 1    
    88   45   47 1    
    89   45  101 1    
    90   46  102 1    
    91   46  103 1    
    92   46  104 1    
    93   47   48 2    
    94   47   49 am   BACKBONE|DICT|INTERRES
    95   49   50 1    
    96   49  105 1    
    97   50   51 1    
    98   50   52 1    
    99   50  106 1    
   100   51  107 1    
   101   51  108 1    
   102   51  109 1    
   103   52   53 2    
   104   52   54 am   BACKBONE|DICT|INTERRES
   105   54   55 1    
   106   54  110 1    
   107   55   56 1    
   108   55   59 1    
   109   55  111 1    
   110   56   57 am   BACKBONE|DICT|INTERRES
   111   56   58 2    
   112   57  112 1    
   113   57  113 1    
   114   59   60 1    
   115   59  114 1    
   116   59  115 1    
   117   60   61 1    
   118   61  116 1    
   119   61  117 1    
@<TRIPOS>SUBSTRUCTURE
     1 UNK         1 GROUP             0       ****    0 ROOT    
