@<TRIPOS>MOLECULE
3R8
117   119    1
SMALL
USER_CHARGES


@<TRIPOS>ATOM
      1 CA         18.9909  -31.2692  -49.1101 C.3       0 UNK        -0.2013 
      2 C          18.3364  -30.0659  -48.4481 C.2       0 UNK         0.4866 
      3 O          18.0653  -29.0723  -49.1225 O.2       0 UNK        -0.5176 
      4 N          18.0916  -30.1543  -47.1344 N.am      1 UNK        -0.4884 
      5 CA         17.5268  -29.1090  -46.2694 C.3       1 UNK         0.0853 
      6 C6         16.0578  -28.7281  -46.6016 C.3       10 UNK        -0.0849 
      7 S7         14.9349  -30.1353  -46.3006 S.3       10 UNK        -0.2776 
      8 C8         14.0577  -29.6135  -44.7843 C.3       10 UNK         0.0316 
      9 C9         14.9874  -29.2395  -43.6315 C.ar      10 UNK        -0.0863 
     10 C10        15.9821  -30.1216  -43.1973 C.ar      10 UNK        -0.1009 
     11 C11        16.8392  -29.7702  -42.1503 C.ar      10 UNK        -0.0712 
     12 C12        16.6497  -28.5508  -41.4912 C.ar      10 UNK        -0.0894 
     13 C13        15.6657  -27.6514  -41.9165 C.ar      10 UNK        -0.0745 
     14 C14        14.8407  -28.0056  -42.9891 C.ar      10 UNK        -0.0972 
     15 C15        15.4509  -26.3084  -41.2180 C.3       10 UNK         0.0209 
     16 S16        16.9804  -25.4747  -40.6634 S.3       10 UNK        -0.2568 
     17 C17        17.8615  -25.1711  -42.2332 C.3       10 UNK        -0.0983 
     18 CA         19.2125  -25.9283  -42.2908 C.3       3 UNK         0.0876 
     19 N          19.6143  -26.2049  -43.6708 N.am      3 UNK        -0.4424 
     20 C          20.6768  -26.9334  -44.0362 C.2       2 UNK         0.4918 
     21 O          21.4875  -27.4127  -43.2445 O.2       2 UNK        -0.4875 
     22 CA         20.7953  -27.2396  -45.5381 C.3       2 UNK         0.0481 
     23 CB         22.1699  -27.8188  -45.9179 C.3       2 UNK        -0.1831 
     24 N          19.7580  -28.2003  -45.9044 N.am      2 UNK        -0.4498 
     25 C          18.4744  -27.9013  -46.1433 C.2       1 UNK         0.5027 
     26 O          18.0466  -26.7472  -46.2230 O.2       1 UNK        -0.4969 
     27 C          20.3204  -25.2076  -41.4909 C.2       3 UNK         0.5005 
     28 O          20.9811  -24.3138  -42.0275 O.2       3 UNK        -0.5279 
     29 N          20.4883  -25.6210  -40.2264 N.am      4 UNK        -0.4463 
     30 CA         21.4981  -25.1681  -39.2612 C.3       4 UNK         0.0283 
     31 CB         21.3871  -23.6524  -38.9858 C.3       4 UNK        -0.1875 
     32 C          22.9390  -25.6144  -39.5896 C.2       4 UNK         0.4949 
     33 O          23.8845  -25.0332  -39.0536 O.2       4 UNK        -0.5039 
     34 N          23.0979  -26.6576  -40.4186 N.am      5 UNK        -0.4663 
     35 CA         24.3724  -27.3514  -40.6335 C.3       5 UNK         0.0242 
     36 CB         24.2533  -28.2784  -41.8543 C.3       5 UNK        -0.1982 
     37 C          24.7908  -28.1627  -39.3941 C.2       5 UNK         0.5017 
     38 O          23.9318  -28.5925  -38.6198 O.2       5 UNK        -0.5012 
     39 N          26.1040  -28.3864  -39.2497 N.am      6 UNK        -0.4439 
     40 CA         26.7061  -29.1225  -38.1315 C.3       6 UNK         0.0297 
     41 CB         28.2288  -28.9096  -38.1468 C.3       6 UNK        -0.2006 
     42 C          26.3780  -30.6277  -38.1146 C.2       6 UNK         0.4892 
     43 O          26.3878  -31.2276  -37.0389 O.2       6 UNK        -0.5089 
     44 N          26.0979  -31.2053  -39.2899 N.am      7 UNK        -0.4243 
     45 CA         25.7241  -32.6090  -39.4707 C.3       7 UNK         0.0196 
     46 CB         26.9402  -33.5392  -39.2878 C.3       7 UNK        -0.2007 
     47 C          25.0803  -32.8270  -40.8432 C.2       7 UNK         0.5020 
     48 O          24.0474  -33.4916  -40.9307 O.2       7 UNK        -0.5147 
     49 N          25.6886  -32.2585  -41.8946 N.am      8 UNK        -0.4734 
     50 CA         25.2834  -32.4040  -43.2988 C.3       8 UNK         0.0238 
     51 CB         26.4936  -32.0775  -44.1951 C.3       8 UNK        -0.1912 
     52 C          24.0343  -31.5757  -43.6693 C.2       8 UNK         0.5038 
     53 O          24.0835  -30.7730  -44.6025 O.2       8 UNK        -0.5046 
     54 N          22.9419  -31.7793  -42.9243 N.am      9 UNK        -0.4200 
     55 CA         21.6353  -31.1412  -43.1427 C.3       9 UNK         0.0839 
     56 C          20.8801  -31.6553  -44.4035 C.2       9 UNK         0.5513 
     57 N          21.1559  -32.8604  -44.8877 N.am      9 UNK        -0.7519 
     58 O          20.0514  -30.9451  -44.9660 O.2       9 UNK        -0.4960 
     59 C59        20.7638  -31.2214  -41.8600 C.3       10 UNK        -0.0876 
     60 S60        19.5797  -29.8418  -41.7346 S.3       10 UNK        -0.2414 
     61 C61        17.9741  -30.7041  -41.7465 C.3       10 UNK         0.0169 
     62 H62        19.1918  -32.0685  -48.3968 H         1 UNK         0.0903 
     63 H63        18.3428  -31.6663  -49.8909 H         1 UNK         0.0903 
     64 H64        19.9364  -30.9778  -49.5667 H         1 UNK         0.0903 
     65 H65        18.3942  -30.9821  -46.6364 H         1 UNK         0.3096 
     66 H66        17.5313  -29.5383  -45.2684 H         1 UNK         0.1121 
     67 H67        15.7254  -27.8816  -45.9981 H         1 UNK         0.0849 
     68 H68        15.9606  -28.4087  -47.6399 H         1 UNK         0.0849 
     69 H69        13.4008  -28.7796  -45.0370 H         1 UNK         0.0865 
     70 H70        13.4059  -30.4254  -44.4592 H         1 UNK         0.0865 
     71 H71        16.1052  -31.0722  -43.6984 H         1 UNK         0.1346 
     72 H72        17.2905  -28.2945  -40.6593 H         1 UNK         0.1412 
     73 H73        14.0708  -27.3202  -43.3174 H         1 UNK         0.1426 
     74 H74        14.8135  -26.4730  -40.3485 H         1 UNK         0.0716 
     75 H75        14.9082  -25.6224  -41.8706 H         1 UNK         0.0716 
     76 H76        17.9995  -24.0965  -42.3684 H         1 UNK         0.0695 
     77 H77        17.2153  -25.4906  -43.0527 H         1 UNK         0.0695 
     78 H78        19.0683  -26.9132  -41.8437 H         1 UNK         0.0983 
     79 H79        18.9897  -25.8841  -44.3992 H         1 UNK         0.3095 
     80 H80        20.6529  -26.3098  -46.0927 H         1 UNK         0.0454 
     81 H81        22.3626  -28.7683  -45.4173 H         1 UNK         0.0851 
     82 H82        22.9720  -27.1353  -45.6370 H         1 UNK         0.0851 
     83 H83        22.2463  -27.9869  -46.9920 H         1 UNK         0.0851 
     84 H84        19.9885  -29.1819  -45.7731 H         1 UNK         0.2976 
     85 H85        19.8753  -26.3503  -39.8870 H         1 UNK         0.3116 
     86 H86        21.2493  -25.6769  -38.3287 H         1 UNK         0.0646 
     87 H87        21.7208  -23.0582  -39.8366 H         1 UNK         0.0847 
     88 H88        22.0027  -23.3645  -38.1328 H         1 UNK         0.0847 
     89 H89        20.3620  -23.3636  -38.7543 H         1 UNK         0.0847 
     90 H90        22.2802  -27.0720  -40.8446 H         1 UNK         0.3040 
     91 H91        25.1410  -26.6018  -40.8350 H         1 UNK         0.1015 
     92 H92        24.0580  -27.7108  -42.7640 H         1 UNK         0.0786 
     93 H93        23.4464  -29.0020  -41.7319 H         1 UNK         0.0786 
     94 H94        25.1729  -28.8395  -42.0238 H         1 UNK         0.0786 
     95 H95        26.7421  -27.9990  -39.9310 H         1 UNK         0.3172 
     96 H96        26.3153  -28.6959  -37.2050 H         1 UNK         0.0595 
     97 H97        28.6834  -29.2959  -39.0600 H         1 UNK         0.0839 
     98 H98        28.7023  -29.4213  -37.3074 H         1 UNK         0.0839 
     99 H99        28.4845  -27.8531  -38.0631 H         1 UNK         0.0839 
    100 H100       26.0532  -30.6164  -40.1083 H         1 UNK         0.2998 
    101 H101       24.9742  -32.8630  -38.7180 H         1 UNK         0.0822 
    102 H102       27.3320  -33.4922  -38.2718 H         1 UNK         0.0787 
    103 H103       26.6686  -34.5788  -39.4771 H         1 UNK         0.0787 
    104 H104       27.7517  -33.2835  -39.9699 H         1 UNK         0.0787 
    105 H105       26.5509  -31.7577  -41.7377 H         1 UNK         0.3055 
    106 H106       25.0224  -33.4508  -43.4722 H         1 UNK         0.1106 
    107 H107       26.2532  -32.2283  -45.2485 H         1 UNK         0.0828 
    108 H108       26.8142  -31.0413  -44.0797 H         1 UNK         0.0828 
    109 H109       27.3437  -32.7208  -43.9669 H         1 UNK         0.0828 
    110 H110       23.0092  -32.4561  -42.1700 H         1 UNK         0.2931 
    111 H111       21.8486  -30.0875  -43.3292 H         1 UNK         0.0412 
    112 H112       21.8368  -33.4510  -44.4385 H         1 UNK         0.3472 
    113 H113       20.6725  -33.1848  -45.7098 H         1 UNK         0.3472 
    114 H114       20.2549  -32.1840  -41.7829 H         1 UNK         0.0970 
    115 H115       21.3977  -31.1541  -40.9741 H         1 UNK         0.0970 
    116 H116       17.7755  -31.1159  -40.7563 H         1 UNK         0.0612 
    117 H117       18.0305  -31.5474  -42.4367 H         1 UNK         0.0612 
@<TRIPOS>BOND
     1    1    2 1    
     2    1   62 1    
     3    1   63 1    
     4    1   64 1    
     5    2    3 2    
     6    2    4 am   BACKBONE|DICT|INTERRES
     7    4    5 1    
     8    4   65 1    
     9    5    6 1    
    10    5   25 1    
    11    5   66 1    
    12    6    7 1    
    13    6   67 1    
    14    6   68 1    
    15    7    8 1    
    16    8    9 1    
    17    8   69 1    
    18    8   70 1    
    19    9   10 ar   
    20    9   14 ar   
    21   10   11 ar   
    22   10   71 1    
    23   11   12 ar   
    24   11   61 1    
    25   12   13 ar   
    26   12   72 1    
    27   13   14 ar   
    28   13   15 1    
    29   14   73 1    
    30   15   16 1    
    31   15   74 1    
    32   15   75 1    
    33   16   17 1    
    34   17   18 1    
    35   17   76 1    
    36   17   77 1    
    37   18   19 1    
    38   18   27 1    
    39   18   78 1    
    40   19   20 am   BACKBONE|DICT|INTERRES
    41   19   79 1    
    42   20   21 2    
    43   20   22 1    
    44   22   23 1    
    45   22   24 1    
    46   22   80 1    
    47   23   81 1    
    48   23   82 1    
    49   23   83 1    
    50   24   25 am   BACKBONE|DICT|INTERRES
    51   24   84 1    
    52   25   26 2    
    53   27   28 2    
    54   27   29 am   BACKBONE|DICT|INTERRES
    55   29   30 1    
    56   29   85 1    
    57   30   31 1    
    58   30   32 1    
    59   30   86 1    
    60   31   87 1    
    61   31   88 1    
    62   31   89 1    
    63   32   33 2    
    64   32   34 am   BACKBONE|DICT|INTERRES
    65   34   35 1    
    66   34   90 1    
    67   35   36 1    
    68   35   37 1    
    69   35   91 1    
    70   36   92 1    
    71   36   93 1    
    72   36   94 1    
    73   37   38 2    
    74   37   39 am   BACKBONE|DICT|INTERRES
    75   39   40 1    
    76   39   95 1    
    77   40   41 1    
    78   40   42 1    
    79   40   96 1    
    80   41   97 1    
    81   41   98 1    
    82   41   99 1    
    83   42   43 2    
    84   42   44 am   BACKBONE|DICT|INTERRES
    85   44   45 1    
    86   44  100 1    
    87   45   46 1    
    88   45   47 1    
    89   45  101 1    
    90   46  102 1    
    91   46  103 1    
    92   46  104 1    
    93   47   48 2    
    94   47   49 am   BACKBONE|DICT|INTERRES
    95   49   50 1    
    96   49  105 1    
    97   50   51 1    
    98   50   52 1    
    99   50  106 1    
   100   51  107 1    
   101   51  108 1    
   102   51  109 1    
   103   52   53 2    
   104   52   54 am   BACKBONE|DICT|INTERRES
   105   54   55 1    
   106   54  110 1    
   107   55   56 1    
   108   55   59 1    
   109   55  111 1    
   110   56   57 am   BACKBONE|DICT|INTERRES
   111   56   58 2    
   112   57  112 1    
   113   57  113 1    
   114   59   60 1    
   115   59  114 1    
   116   59  115 1    
   117   60   61 1    
   118   61  116 1    
   119   61  117 1    
@<TRIPOS>SUBSTRUCTURE
     1 UNK         1 GROUP             0       ****    0 ROOT    
