@<TRIPOS>MOLECULE
3R8
117   119    1
SMALL
USER_CHARGES


@<TRIPOS>ATOM
      1 CA         17.8493  -27.8083  -42.2570 C.3       0 UNK        -0.2013 
      2 C          16.9685  -26.9921  -43.1886 C.2       0 UNK         0.4866 
      3 O          16.3929  -25.9916  -42.7612 O.2       0 UNK        -0.5176 
      4 N          16.8613  -27.4057  -44.4595 N.am      1 UNK        -0.4884 
      5 CA         16.0764  -26.7167  -45.4969 C.3       1 UNK         0.0853 
      6 C6         15.9118  -27.5679  -46.7796 C.3       10 UNK        -0.0849 
      7 S7         15.0913  -29.1643  -46.4555 S.3       10 UNK        -0.2776 
      8 C8         16.3805  -30.3577  -46.9410 C.3       10 UNK         0.0316 
      9 C9         17.5594  -30.3723  -45.9764 C.ar      10 UNK        -0.0863 
     10 C10        17.3933  -30.8651  -44.6780 C.ar      10 UNK        -0.1009 
     11 C11        18.4771  -30.9264  -43.7982 C.ar      10 UNK        -0.0712 
     12 C12        19.7367  -30.5026  -44.2296 C.ar      10 UNK        -0.0894 
     13 C13        19.9172  -30.0016  -45.5212 C.ar      10 UNK        -0.0745 
     14 C14        18.8228  -29.9342  -46.3900 C.ar      10 UNK        -0.0972 
     15 C15        21.3038  -29.5800  -45.9910 C.3       10 UNK         0.0209 
     16 S16        21.5076  -27.7717  -46.0447 S.3       10 UNK        -0.2568 
     17 C17        21.6124  -27.3461  -44.2734 C.3       10 UNK        -0.0983 
     18 CA         21.5567  -25.8171  -44.0029 C.3       3 UNK         0.0876 
     19 N          20.3411  -25.2128  -44.5424 N.am      3 UNK        -0.4424 
     20 C          20.2630  -24.4450  -45.6359 C.2       2 UNK         0.4918 
     21 O          21.2414  -24.0586  -46.2772 O.2       2 UNK        -0.4875 
     22 CA         18.8413  -24.1130  -46.1193 C.3       2 UNK         0.0481 
     23 CB         18.7965  -23.6240  -47.5814 C.3       2 UNK        -0.1831 
     24 N          18.0097  -25.3029  -45.9492 N.am      2 UNK        -0.4498 
     25 C          16.6775  -25.3396  -45.8432 C.2       1 UNK         0.5027 
     26 O          15.9433  -24.3595  -45.9763 O.2       1 UNK        -0.4969 
     27 C          21.5801  -25.5459  -42.4906 C.2       3 UNK         0.5005 
     28 O          20.5157  -25.4485  -41.8732 O.2       3 UNK        -0.5279 
     29 N          22.7826  -25.4711  -41.9132 N.am      4 UNK        -0.4463 
     30 CA         23.0257  -25.3285  -40.4808 C.3       4 UNK         0.0283 
     31 CB         22.9306  -23.8493  -40.0662 C.3       4 UNK        -0.1875 
     32 C          24.4150  -25.8957  -40.1792 C.2       4 UNK         0.4949 
     33 O          25.2841  -25.8540  -41.0544 O.2       4 UNK        -0.5039 
     34 N          24.5931  -26.4200  -38.9582 N.am      5 UNK        -0.4663 
     35 CA         25.7993  -27.0470  -38.3880 C.3       5 UNK         0.0242 
     36 CB         26.9713  -26.0482  -38.3048 C.3       5 UNK        -0.1982 
     37 C          26.2223  -28.3524  -39.0873 C.2       5 UNK         0.5017 
     38 O          26.2936  -29.3952  -38.4379 O.2       5 UNK        -0.5012 
     39 N          26.4541  -28.2767  -40.4015 N.am      6 UNK        -0.4439 
     40 CA         26.7813  -29.3920  -41.2928 C.3       6 UNK         0.0297 
     41 CB         27.7097  -28.8708  -42.4041 C.3       6 UNK        -0.2006 
     42 C          25.5281  -30.0676  -41.8872 C.2       6 UNK         0.4892 
     43 O          25.6674  -30.9044  -42.7797 O.2       6 UNK        -0.5089 
     44 N          24.3342  -29.6867  -41.4052 N.am      7 UNK        -0.4243 
     45 CA         23.0272  -30.1885  -41.8386 C.3       7 UNK         0.0196 
     46 CB         21.9241  -29.4078  -41.1031 C.3       7 UNK        -0.2007 
     47 C          22.8556  -31.7042  -41.6358 C.2       7 UNK         0.5020 
     48 O          22.3290  -32.3742  -42.5217 O.2       7 UNK        -0.5147 
     49 N          23.3241  -32.2058  -40.4825 N.am      8 UNK        -0.4734 
     50 CA         23.4385  -33.6220  -40.0966 C.3       8 UNK         0.0238 
     51 CB         24.4342  -34.3509  -41.0248 C.3       8 UNK        -0.1912 
     52 C          22.1115  -34.4006  -39.9568 C.2       8 UNK         0.5038 
     53 O          22.1570  -35.6218  -39.7959 O.2       8 UNK        -0.5046 
     54 N          20.9643  -33.7087  -39.9850 N.am      9 UNK        -0.4200 
     55 CA         19.6277  -34.3054  -39.8039 C.3       9 UNK         0.0839 
     56 C          19.2801  -34.6716  -38.3307 C.2       9 UNK         0.5513 
     57 N          20.0533  -34.2519  -37.3359 N.am      9 UNK        -0.7519 
     58 O          18.2898  -35.3562  -38.0870 O.2       9 UNK        -0.4960 
     59 C59        18.5045  -33.4415  -40.4360 C.3       10 UNK        -0.0876 
     60 S60        18.7295  -33.1885  -42.2295 S.3       10 UNK        -0.2414 
     61 C61        18.2884  -31.4332  -42.3773 C.3       10 UNK         0.0169 
     62 H62        17.2599  -28.5745  -41.7549 H         1 UNK         0.0903 
     63 H63        18.6603  -28.2888  -42.7993 H         1 UNK         0.0903 
     64 H64        18.2957  -27.1673  -41.4968 H         1 UNK         0.0903 
     65 H65        17.3066  -28.2681  -44.7472 H         1 UNK         0.3096 
     66 H66        15.0810  -26.5329  -45.0856 H         1 UNK         0.1121 
     67 H67        15.3048  -27.0329  -47.5129 H         1 UNK         0.0849 
     68 H68        16.8778  -27.7388  -47.2584 H         1 UNK         0.0849 
     69 H69        15.9390  -31.3549  -46.9716 H         1 UNK         0.0865 
     70 H70        16.7082  -30.1435  -47.9597 H         1 UNK         0.0865 
     71 H71        16.4181  -31.2041  -44.3548 H         1 UNK         0.1346 
     72 H72        20.5808  -30.5748  -43.5604 H         1 UNK         0.1412 
     73 H73        18.9643  -29.5603  -47.3952 H         1 UNK         0.1426 
     74 H74        21.4773  -29.9791  -46.9914 H         1 UNK         0.0716 
     75 H75        22.0784  -30.0129  -45.3558 H         1 UNK         0.0716 
     76 H76        22.5424  -27.7646  -43.8850 H         1 UNK         0.0695 
     77 H77        20.8022  -27.8549  -43.7501 H         1 UNK         0.0695 
     78 H78        22.4358  -25.3433  -44.4457 H         1 UNK         0.0983 
     79 H79        19.5109  -25.3763  -43.9897 H         1 UNK         0.3095 
     80 H80        18.4609  -23.3208  -45.4714 H         1 UNK         0.0454 
     81 H81        19.4016  -22.7263  -47.7130 H         1 UNK         0.0851 
     82 H82        17.7817  -23.3733  -47.8896 H         1 UNK         0.0851 
     83 H83        19.1783  -24.3805  -48.2678 H         1 UNK         0.0851 
     84 H84        18.5188  -26.1691  -45.8322 H         1 UNK         0.2976 
     85 H85        23.6269  -25.5929  -42.4608 H         1 UNK         0.3116 
     86 H86        22.2840  -25.9116  -39.9301 H         1 UNK         0.0646 
     87 H87        23.1272  -23.7268  -39.0004 H         1 UNK         0.0847 
     88 H88        21.9366  -23.4453  -40.2591 H         1 UNK         0.0847 
     89 H89        23.6523  -23.2337  -40.6047 H         1 UNK         0.0847 
     90 H90        23.7973  -26.4081  -38.3335 H         1 UNK         0.3040 
     91 H91        25.5368  -27.3191  -37.3638 H         1 UNK         0.1015 
     92 H92        27.8330  -26.5007  -37.8122 H         1 UNK         0.0786 
     93 H93        26.6966  -25.1653  -37.7277 H         1 UNK         0.0786 
     94 H94        27.3015  -25.7133  -39.2885 H         1 UNK         0.0786 
     95 H95        26.2892  -27.3709  -40.8390 H         1 UNK         0.3172 
     96 H96        27.3218  -30.1554  -40.7294 H         1 UNK         0.0595 
     97 H97        27.2137  -28.1247  -43.0263 H         1 UNK         0.0839 
     98 H98        28.0335  -29.6801  -43.0600 H         1 UNK         0.0839 
     99 H99        28.6093  -28.4165  -41.9885 H         1 UNK         0.0839 
    100 H100       24.3340  -28.9944  -40.6720 H         1 UNK         0.2998 
    101 H101       22.9406  -29.9907  -42.9086 H         1 UNK         0.0822 
    102 H102       21.9862  -28.3403  -41.3107 H         1 UNK         0.0787 
    103 H103       21.9855  -29.5396  -40.0222 H         1 UNK         0.0787 
    104 H104       20.9326  -29.7353  -41.4116 H         1 UNK         0.0787 
    105 H105       23.7189  -31.5488  -39.8232 H         1 UNK         0.3055 
    106 H106       23.8738  -33.6205  -39.0960 H         1 UNK         0.1106 
    107 H107       24.0406  -34.4557  -42.0363 H         1 UNK         0.0828 
    108 H108       25.3819  -33.8160  -41.0890 H         1 UNK         0.0828 
    109 H109       24.6557  -35.3539  -40.6580 H         1 UNK         0.0828 
    110 H110       21.0025  -32.7139  -40.1433 H         1 UNK         0.2931 
    111 H111       19.6275  -35.2554  -40.3424 H         1 UNK         0.0412 
    112 H112       20.8680  -33.6897  -37.5215 H         1 UNK         0.3472 
    113 H113       19.8168  -34.5010  -36.3880 H         1 UNK         0.3472 
    114 H114       17.5312  -33.9168  -40.2981 H         1 UNK         0.0970 
    115 H115       18.4428  -32.4781  -39.9267 H         1 UNK         0.0970 
    116 H116       18.8998  -30.8461  -41.6921 H         1 UNK         0.0612 
    117 H117       17.2531  -31.2964  -42.0610 H         1 UNK         0.0612 
@<TRIPOS>BOND
     1    1    2 1    
     2    1   62 1    
     3    1   63 1    
     4    1   64 1    
     5    2    3 2    
     6    2    4 am   BACKBONE|DICT|INTERRES
     7    4    5 1    
     8    4   65 1    
     9    5    6 1    
    10    5   25 1    
    11    5   66 1    
    12    6    7 1    
    13    6   67 1    
    14    6   68 1    
    15    7    8 1    
    16    8    9 1    
    17    8   69 1    
    18    8   70 1    
    19    9   10 ar   
    20    9   14 ar   
    21   10   11 ar   
    22   10   71 1    
    23   11   12 ar   
    24   11   61 1    
    25   12   13 ar   
    26   12   72 1    
    27   13   14 ar   
    28   13   15 1    
    29   14   73 1    
    30   15   16 1    
    31   15   74 1    
    32   15   75 1    
    33   16   17 1    
    34   17   18 1    
    35   17   76 1    
    36   17   77 1    
    37   18   19 1    
    38   18   27 1    
    39   18   78 1    
    40   19   20 am   BACKBONE|DICT|INTERRES
    41   19   79 1    
    42   20   21 2    
    43   20   22 1    
    44   22   23 1    
    45   22   24 1    
    46   22   80 1    
    47   23   81 1    
    48   23   82 1    
    49   23   83 1    
    50   24   25 am   BACKBONE|DICT|INTERRES
    51   24   84 1    
    52   25   26 2    
    53   27   28 2    
    54   27   29 am   BACKBONE|DICT|INTERRES
    55   29   30 1    
    56   29   85 1    
    57   30   31 1    
    58   30   32 1    
    59   30   86 1    
    60   31   87 1    
    61   31   88 1    
    62   31   89 1    
    63   32   33 2    
    64   32   34 am   BACKBONE|DICT|INTERRES
    65   34   35 1    
    66   34   90 1    
    67   35   36 1    
    68   35   37 1    
    69   35   91 1    
    70   36   92 1    
    71   36   93 1    
    72   36   94 1    
    73   37   38 2    
    74   37   39 am   BACKBONE|DICT|INTERRES
    75   39   40 1    
    76   39   95 1    
    77   40   41 1    
    78   40   42 1    
    79   40   96 1    
    80   41   97 1    
    81   41   98 1    
    82   41   99 1    
    83   42   43 2    
    84   42   44 am   BACKBONE|DICT|INTERRES
    85   44   45 1    
    86   44  100 1    
    87   45   46 1    
    88   45   47 1    
    89   45  101 1    
    90   46  102 1    
    91   46  103 1    
    92   46  104 1    
    93   47   48 2    
    94   47   49 am   BACKBONE|DICT|INTERRES
    95   49   50 1    
    96   49  105 1    
    97   50   51 1    
    98   50   52 1    
    99   50  106 1    
   100   51  107 1    
   101   51  108 1    
   102   51  109 1    
   103   52   53 2    
   104   52   54 am   BACKBONE|DICT|INTERRES
   105   54   55 1    
   106   54  110 1    
   107   55   56 1    
   108   55   59 1    
   109   55  111 1    
   110   56   57 am   BACKBONE|DICT|INTERRES
   111   56   58 2    
   112   57  112 1    
   113   57  113 1    
   114   59   60 1    
   115   59  114 1    
   116   59  115 1    
   117   60   61 1    
   118   61  116 1    
   119   61  117 1    
@<TRIPOS>SUBSTRUCTURE
     1 UNK         1 GROUP             0       ****    0 ROOT    
