@<TRIPOS>MOLECULE
3R8
117   119    1
SMALL
USER_CHARGES


@<TRIPOS>ATOM
      1 CA         20.9841  -30.7223  -49.9258 C.3       0 UNK        -0.2013 
      2 C          21.3704  -30.6763  -48.4552 C.2       0 UNK         0.4866 
      3 O          22.5581  -30.6901  -48.1328 O.2       0 UNK        -0.5176 
      4 N          20.3758  -30.6198  -47.5605 N.am      1 UNK        -0.4884 
      5 CA         20.5512  -30.5712  -46.1029 C.3       1 UNK         0.0853 
      6 C6         19.2831  -31.0270  -45.3237 C.3       10 UNK        -0.0849 
      7 S7         17.6598  -30.6419  -46.0761 S.3       10 UNK        -0.2776 
      8 C8         17.3152  -28.9390  -45.5113 C.3       10 UNK         0.0316 
      9 C9         17.0364  -28.7312  -44.0192 C.ar      10 UNK        -0.0863 
     10 C10        16.8989  -29.7774  -43.0941 C.ar      10 UNK        -0.1009 
     11 C11        16.6799  -29.5044  -41.7383 C.ar      10 UNK        -0.0712 
     12 C12        16.5960  -28.1772  -41.3062 C.ar      10 UNK        -0.0894 
     13 C13        16.7160  -27.1251  -42.2169 C.ar      10 UNK        -0.0745 
     14 C14        16.9117  -27.4129  -43.5693 C.ar      10 UNK        -0.0972 
     15 C15        16.6549  -25.6793  -41.7402 C.3       10 UNK         0.0209 
     16 S16        18.1316  -25.2110  -40.7761 S.3       10 UNK        -0.2568 
     17 C17        19.4348  -25.0717  -42.0526 C.3       10 UNK        -0.0983 
     18 CA         20.0953  -26.4275  -42.4272 C.3       3 UNK         0.0876 
     19 N          20.8865  -26.3849  -43.6502 N.am      3 UNK        -0.4424 
     20 C          20.4168  -26.2749  -44.8955 C.2       2 UNK         0.4918 
     21 O          19.2842  -25.8887  -45.1801 O.2       2 UNK        -0.4875 
     22 CA         21.3385  -26.7585  -46.0306 C.3       2 UNK         0.0481 
     23 CB         22.8459  -26.5779  -45.7369 C.3       2 UNK        -0.1831 
     24 N          21.0209  -28.1506  -46.3829 N.am      2 UNK        -0.4498 
     25 C          21.0800  -29.2222  -45.5721 C.2       1 UNK         0.5027 
     26 O          21.5194  -29.1827  -44.4239 O.2       1 UNK        -0.4969 
     27 C          20.9922  -27.0274  -41.3315 C.2       3 UNK         0.5005 
     28 O          22.2129  -27.0837  -41.5109 O.2       3 UNK        -0.5279 
     29 N          20.3698  -27.4573  -40.2248 N.am      4 UNK        -0.4463 
     30 CA         20.9479  -28.2048  -39.0996 C.3       4 UNK         0.0283 
     31 CB         19.8670  -28.3856  -38.0215 C.3       4 UNK        -0.1875 
     32 C          22.2241  -27.6078  -38.4753 C.2       4 UNK         0.4949 
     33 O          23.0341  -28.3540  -37.9251 O.2       4 UNK        -0.5039 
     34 N          22.3820  -26.2810  -38.5623 N.am      5 UNK        -0.4663 
     35 CA         23.5684  -25.5553  -38.1052 C.3       5 UNK         0.0242 
     36 CB         23.1881  -24.0827  -37.8783 C.3       5 UNK        -0.1982 
     37 C          24.7640  -25.6547  -39.0729 C.2       5 UNK         0.5017 
     38 O          25.8898  -25.3963  -38.6449 O.2       5 UNK        -0.5012 
     39 N          24.5112  -25.9889  -40.3460 N.am      6 UNK        -0.4439 
     40 CA         25.5066  -26.0293  -41.4185 C.3       6 UNK         0.0297 
     41 CB         24.9815  -25.2302  -42.6235 C.3       6 UNK        -0.2006 
     42 C          25.8520  -27.4643  -41.8426 C.2       6 UNK         0.4892 
     43 O          27.0212  -27.7325  -42.1233 O.2       6 UNK        -0.5089 
     44 N          24.8558  -28.3572  -41.8927 N.am      7 UNK        -0.4243 
     45 CA         25.0033  -29.7532  -42.3060 C.3       7 UNK         0.0196 
     46 CB         25.0234  -29.8467  -43.8452 C.3       7 UNK        -0.2007 
     47 C          23.8774  -30.5983  -41.6959 C.2       7 UNK         0.5020 
     48 O          22.9679  -30.0548  -41.0712 O.2       7 UNK        -0.5147 
     49 N          23.9663  -31.9233  -41.8591 N.am      8 UNK        -0.4734 
     50 CA         22.9661  -32.8741  -41.3671 C.3       8 UNK         0.0238 
     51 CB         23.5670  -34.2895  -41.3883 C.3       8 UNK        -0.1912 
     52 C          21.6699  -32.8290  -42.1957 C.2       8 UNK         0.5038 
     53 O          21.7284  -32.6385  -43.4130 O.2       8 UNK        -0.5046 
     54 N          20.5353  -33.0642  -41.5248 N.am      9 UNK        -0.4200 
     55 CA         19.1985  -33.1493  -42.1373 C.3       9 UNK         0.0839 
     56 C          18.9608  -34.4125  -43.0172 C.2       9 UNK         0.5513 
     57 N          19.8095  -35.4324  -42.9689 N.am      9 UNK        -0.7519 
     58 O          17.9855  -34.4636  -43.7612 O.2       9 UNK        -0.4960 
     59 C59        18.0711  -32.9913  -41.0860 C.3       10 UNK        -0.0876 
     60 S60        18.1058  -31.3684  -40.2445 S.3       10 UNK        -0.2414 
     61 C61        16.5092  -30.6359  -40.7348 C.3       10 UNK         0.0169 
     62 H62        19.9033  -30.7018  -50.0650 H         1 UNK         0.0903 
     63 H63        21.4103  -29.8691  -50.4529 H         1 UNK         0.0903 
     64 H64        21.3674  -31.6328  -50.3856 H         1 UNK         0.0903 
     65 H65        19.4131  -30.6241  -47.8715 H         1 UNK         0.3096 
     66 H66        21.3413  -31.2849  -45.8547 H         1 UNK         0.1121 
     67 H67        19.2974  -30.6603  -44.2964 H         1 UNK         0.0849 
     68 H68        19.3184  -32.1137  -45.2339 H         1 UNK         0.0849 
     69 H69        18.1489  -28.3043  -45.8114 H         1 UNK         0.0865 
     70 H70        16.4489  -28.5775  -46.0672 H         1 UNK         0.0865 
     71 H71        16.9645  -30.8073  -43.4147 H         1 UNK         0.1346 
     72 H72        16.4376  -27.9594  -40.2585 H         1 UNK         0.1412 
     73 H73        17.0035  -26.5983  -44.2748 H         1 UNK         0.1426 
     74 H74        15.7717  -25.5501  -41.1130 H         1 UNK         0.0716 
     75 H75        16.5355  -24.9924  -42.5796 H         1 UNK         0.0716 
     76 H76        20.1910  -24.3660  -41.7044 H         1 UNK         0.0695 
     77 H77        18.9831  -24.6076  -42.9294 H         1 UNK         0.0695 
     78 H78        19.3276  -27.1760  -42.6061 H         1 UNK         0.0983 
     79 H79        21.8163  -26.7632  -43.5114 H         1 UNK         0.3095 
     80 H80        21.1012  -26.1533  -46.9068 H         1 UNK         0.0454 
     81 H81        23.1968  -27.1994  -44.9132 H         1 UNK         0.0851 
     82 H82        23.0719  -25.5410  -45.4852 H         1 UNK         0.0851 
     83 H83        23.4442  -26.8322  -46.6117 H         1 UNK         0.0851 
     84 H84        20.6332  -28.2923  -47.3048 H         1 UNK         0.2976 
     85 H85        19.3714  -27.3037  -40.1782 H         1 UNK         0.3116 
     86 H86        21.2035  -29.1953  -39.4755 H         1 UNK         0.0646 
     87 H87        19.0002  -28.9192  -38.4120 H         1 UNK         0.0847 
     88 H88        19.5246  -27.4274  -37.6288 H         1 UNK         0.0847 
     89 H89        20.2475  -28.9662  -37.1798 H         1 UNK         0.0847 
     90 H90        21.6625  -25.7442  -39.0247 H         1 UNK         0.3040 
     91 H91        23.8893  -25.9760  -37.1493 H         1 UNK         0.1015 
     92 H92        24.0397  -23.5123  -37.5043 H         1 UNK         0.0786 
     93 H93        22.3894  -23.9876  -37.1423 H         1 UNK         0.0786 
     94 H94        22.8556  -23.6043  -38.8005 H         1 UNK         0.0786 
     95 H95        23.5649  -26.2630  -40.6053 H         1 UNK         0.3172 
     96 H96        26.4336  -25.5550  -41.0895 H         1 UNK         0.0595 
     97 H97        24.0401  -25.6323  -42.9977 H         1 UNK         0.0839 
     98 H98        25.6959  -25.2494  -43.4478 H         1 UNK         0.0839 
     99 H99        24.8167  -24.1848  -42.3622 H         1 UNK         0.0839 
    100 H100       23.9105  -28.0916  -41.6223 H         1 UNK         0.2998 
    101 H101       25.9449  -30.1402  -41.9104 H         1 UNK         0.0822 
    102 H102       25.8554  -29.2836  -44.2679 H         1 UNK         0.0787 
    103 H103       25.1310  -30.8777  -44.1830 H         1 UNK         0.0787 
    104 H104       24.1043  -29.4568  -44.2803 H         1 UNK         0.0787 
    105 H105       24.7207  -32.3014  -42.4132 H         1 UNK         0.3055 
    106 H106       22.7295  -32.6120  -40.3329 H         1 UNK         0.1106 
    107 H107       23.8183  -34.6065  -42.4014 H         1 UNK         0.0828 
    108 H108       22.8654  -35.0198  -40.9831 H         1 UNK         0.0828 
    109 H109       24.4727  -34.3462  -40.7840 H         1 UNK         0.0828 
    110 H110       20.5724  -33.2176  -40.5281 H         1 UNK         0.2931 
    111 H111       19.1106  -32.3018  -42.8135 H         1 UNK         0.0412 
    112 H112       20.6149  -35.4024  -42.3656 H         1 UNK         0.3472 
    113 H113       19.6420  -36.2407  -43.5475 H         1 UNK         0.3472 
    114 H114       17.0958  -33.1369  -41.5525 H         1 UNK         0.0970 
    115 H115       18.1503  -33.7720  -40.3274 H         1 UNK         0.0970 
    116 H116       16.0211  -30.2630  -39.8330 H         1 UNK         0.0612 
    117 H117       15.8317  -31.3872  -41.1408 H         1 UNK         0.0612 
@<TRIPOS>BOND
     1    1    2 1    
     2    1   62 1    
     3    1   63 1    
     4    1   64 1    
     5    2    3 2    
     6    2    4 am   BACKBONE|DICT|INTERRES
     7    4    5 1    
     8    4   65 1    
     9    5    6 1    
    10    5   25 1    
    11    5   66 1    
    12    6    7 1    
    13    6   67 1    
    14    6   68 1    
    15    7    8 1    
    16    8    9 1    
    17    8   69 1    
    18    8   70 1    
    19    9   10 ar   
    20    9   14 ar   
    21   10   11 ar   
    22   10   71 1    
    23   11   12 ar   
    24   11   61 1    
    25   12   13 ar   
    26   12   72 1    
    27   13   14 ar   
    28   13   15 1    
    29   14   73 1    
    30   15   16 1    
    31   15   74 1    
    32   15   75 1    
    33   16   17 1    
    34   17   18 1    
    35   17   76 1    
    36   17   77 1    
    37   18   19 1    
    38   18   27 1    
    39   18   78 1    
    40   19   20 am   BACKBONE|DICT|INTERRES
    41   19   79 1    
    42   20   21 2    
    43   20   22 1    
    44   22   23 1    
    45   22   24 1    
    46   22   80 1    
    47   23   81 1    
    48   23   82 1    
    49   23   83 1    
    50   24   25 am   BACKBONE|DICT|INTERRES
    51   24   84 1    
    52   25   26 2    
    53   27   28 2    
    54   27   29 am   BACKBONE|DICT|INTERRES
    55   29   30 1    
    56   29   85 1    
    57   30   31 1    
    58   30   32 1    
    59   30   86 1    
    60   31   87 1    
    61   31   88 1    
    62   31   89 1    
    63   32   33 2    
    64   32   34 am   BACKBONE|DICT|INTERRES
    65   34   35 1    
    66   34   90 1    
    67   35   36 1    
    68   35   37 1    
    69   35   91 1    
    70   36   92 1    
    71   36   93 1    
    72   36   94 1    
    73   37   38 2    
    74   37   39 am   BACKBONE|DICT|INTERRES
    75   39   40 1    
    76   39   95 1    
    77   40   41 1    
    78   40   42 1    
    79   40   96 1    
    80   41   97 1    
    81   41   98 1    
    82   41   99 1    
    83   42   43 2    
    84   42   44 am   BACKBONE|DICT|INTERRES
    85   44   45 1    
    86   44  100 1    
    87   45   46 1    
    88   45   47 1    
    89   45  101 1    
    90   46  102 1    
    91   46  103 1    
    92   46  104 1    
    93   47   48 2    
    94   47   49 am   BACKBONE|DICT|INTERRES
    95   49   50 1    
    96   49  105 1    
    97   50   51 1    
    98   50   52 1    
    99   50  106 1    
   100   51  107 1    
   101   51  108 1    
   102   51  109 1    
   103   52   53 2    
   104   52   54 am   BACKBONE|DICT|INTERRES
   105   54   55 1    
   106   54  110 1    
   107   55   56 1    
   108   55   59 1    
   109   55  111 1    
   110   56   57 am   BACKBONE|DICT|INTERRES
   111   56   58 2    
   112   57  112 1    
   113   57  113 1    
   114   59   60 1    
   115   59  114 1    
   116   59  115 1    
   117   60   61 1    
   118   61  116 1    
   119   61  117 1    
@<TRIPOS>SUBSTRUCTURE
     1 UNK         1 GROUP             0       ****    0 ROOT    
