@<TRIPOS>MOLECULE
3R8
117   119    1
SMALL
USER_CHARGES


@<TRIPOS>ATOM
      1 CA         21.9483  -23.1635  -43.4433 C.3       0 UNK        -0.2013 
      2 C          21.6589  -23.3826  -44.9272 C.2       0 UNK         0.4866 
      3 O          21.6037  -22.4109  -45.6778 O.2       0 UNK        -0.5176 
      4 N          21.4762  -24.6223  -45.4065 N.am      1 UNK        -0.4884 
      5 CA         21.4410  -25.8822  -44.6521 C.3       1 UNK         0.0853 
      6 C6         21.5110  -27.1257  -45.5786 C.3       10 UNK        -0.0849 
      7 S7         20.2969  -27.1039  -46.9447 S.3       10 UNK        -0.2776 
      8 C8         20.5560  -28.7442  -47.6937 C.3       10 UNK         0.0316 
      9 C9         19.8081  -29.8372  -46.9436 C.ar      10 UNK        -0.0863 
     10 C10        20.5023  -30.8133  -46.2212 C.ar      10 UNK        -0.1009 
     11 C11        19.8067  -31.8235  -45.5484 C.ar      10 UNK        -0.0712 
     12 C12        18.4103  -31.8548  -45.6014 C.ar      10 UNK        -0.0894 
     13 C13        17.7063  -30.8655  -46.2932 C.ar      10 UNK        -0.0745 
     14 C14        18.4110  -29.8739  -46.9813 C.ar      10 UNK        -0.0972 
     15 C15        16.1868  -30.8276  -46.2430 C.3       10 UNK         0.0209 
     16 S16        15.5911  -29.4285  -45.2350 S.3       10 UNK        -0.2568 
     17 C17        16.2023  -29.8526  -43.5635 C.3       10 UNK        -0.0983 
     18 CA         17.6304  -29.3124  -43.2582 C.3       3 UNK         0.0876 
     19 N          17.8092  -27.8914  -43.5670 N.am      3 UNK        -0.4424 
     20 C          17.2981  -26.8384  -42.9164 C.2       2 UNK         0.4918 
     21 O          16.4936  -26.9292  -41.9882 O.2       2 UNK        -0.4875 
     22 CA         17.7969  -25.4447  -43.3699 C.3       2 UNK         0.0481 
     23 CB         17.8912  -24.4575  -42.1873 C.3       2 UNK        -0.1831 
     24 N          19.0699  -25.4625  -44.1142 N.am      2 UNK        -0.4498 
     25 C          20.2394  -25.9724  -43.6937 C.2       1 UNK         0.5027 
     26 O          20.3914  -26.5086  -42.5999 O.2       1 UNK        -0.4969 
     27 C          18.1480  -29.7077  -41.8534 C.2       3 UNK         0.5005 
     28 O          17.6072  -30.6335  -41.2451 O.2       3 UNK        -0.5279 
     29 N          19.1901  -29.0159  -41.3689 N.am      4 UNK        -0.4463 
     30 CA         19.8831  -29.2593  -40.1050 C.3       4 UNK         0.0283 
     31 CB         18.9744  -28.9178  -38.8992 C.3       4 UNK        -0.1875 
     32 C          21.1954  -28.4601  -40.1520 C.2       4 UNK         0.4949 
     33 O          21.9358  -28.6023  -41.1264 O.2       4 UNK        -0.5039 
     34 N          21.4429  -27.6287  -39.1276 N.am      5 UNK        -0.4663 
     35 CA         22.4531  -26.5655  -39.0202 C.3       5 UNK         0.0242 
     36 CB         21.8473  -25.2429  -39.5425 C.3       5 UNK        -0.1982 
     37 C          23.8245  -26.9029  -39.6403 C.2       5 UNK         0.5017 
     38 O          24.5526  -27.7210  -39.0782 O.2       5 UNK        -0.5012 
     39 N          24.1437  -26.2678  -40.7772 N.am      6 UNK        -0.4439 
     40 CA         25.4069  -26.4006  -41.5066 C.3       6 UNK         0.0297 
     41 CB         25.4947  -25.2939  -42.5707 C.3       6 UNK        -0.2006 
     42 C          25.6254  -27.7797  -42.1537 C.2       6 UNK         0.4892 
     43 O          26.7794  -28.1720  -42.3312 O.2       6 UNK        -0.5089 
     44 N          24.5388  -28.4868  -42.4971 N.am      7 UNK        -0.4243 
     45 CA         24.5947  -29.8606  -43.0055 C.3       7 UNK         0.0196 
     46 CB         23.3599  -30.1426  -43.8768 C.3       7 UNK        -0.2007 
     47 C          24.7035  -30.8827  -41.8626 C.2       7 UNK         0.5020 
     48 O          25.2826  -31.9500  -42.0621 O.2       7 UNK        -0.5147 
     49 N          24.1418  -30.5340  -40.6946 N.am      8 UNK        -0.4734 
     50 CA         24.1111  -31.2915  -39.4349 C.3       8 UNK         0.0238 
     51 CB         25.5365  -31.4805  -38.8750 C.3       8 UNK        -0.1912 
     52 C          23.3263  -32.6174  -39.5108 C.2       8 UNK         0.5038 
     53 O          23.4793  -33.4664  -38.6305 O.2       8 UNK        -0.5046 
     54 N          22.4991  -32.7691  -40.5503 N.am      9 UNK        -0.4200 
     55 CA         21.6018  -33.9057  -40.7763 C.3       9 UNK         0.0839 
     56 C          20.3757  -33.9221  -39.8188 C.2       9 UNK         0.5513 
     57 N          19.6708  -35.0432  -39.7416 N.am      9 UNK        -0.7519 
     58 O          20.0533  -32.9416  -39.1507 O.2       9 UNK        -0.4960 
     59 C59        21.2083  -34.0111  -42.2743 C.3       10 UNK        -0.0876 
     60 S60        20.4839  -32.4850  -42.9658 S.3       10 UNK        -0.2414 
     61 C61        20.5509  -32.8727  -44.7402 C.3       10 UNK         0.0169 
     62 H62        22.6961  -23.8593  -43.0681 H         1 UNK         0.0903 
     63 H63        22.3333  -22.1572  -43.2792 H         1 UNK         0.0903 
     64 H64        21.0386  -23.2684  -42.8528 H         1 UNK         0.0903 
     65 H65        21.2939  -24.7282  -46.3955 H         1 UNK         0.3096 
     66 H66        22.3327  -25.9167  -44.0240 H         1 UNK         0.1121 
     67 H67        21.3854  -28.0459  -45.0038 H         1 UNK         0.0849 
     68 H68        22.5069  -27.1883  -46.0202 H         1 UNK         0.0849 
     69 H69        21.6240  -28.9612  -47.7481 H         1 UNK         0.0865 
     70 H70        20.2000  -28.7182  -48.7246 H         1 UNK         0.0865 
     71 H71        21.5823  -30.7878  -46.1812 H         1 UNK         0.1346 
     72 H72        17.8732  -32.6218  -45.0601 H         1 UNK         0.1412 
     73 H73        17.8687  -29.1068  -47.5180 H         1 UNK         0.1426 
     74 H74        15.7820  -31.7598  -45.8459 H         1 UNK         0.0716 
     75 H75        15.7950  -30.7280  -47.2562 H         1 UNK         0.0716 
     76 H76        16.1708  -30.9378  -43.4511 H         1 UNK         0.0695 
     77 H77        15.4907  -29.4532  -42.8390 H         1 UNK         0.0695 
     78 H78        18.3258  -29.8151  -43.9246 H         1 UNK         0.0983 
     79 H79        18.4362  -27.6966  -44.3336 H         1 UNK         0.3095 
     80 H80        17.0447  -25.0648  -44.0624 H         1 UNK         0.0454 
     81 H81        16.9207  -24.3230  -41.7083 H         1 UNK         0.0851 
     82 H82        18.2251  -23.4737  -42.5164 H         1 UNK         0.0851 
     83 H83        18.5844  -24.8089  -41.4221 H         1 UNK         0.0851 
     84 H84        19.0441  -25.0629  -45.0430 H         1 UNK         0.2976 
     85 H85        19.5989  -28.2701  -41.9276 H         1 UNK         0.3116 
     86 H86        20.1531  -30.3159  -40.0589 H         1 UNK         0.0646 
     87 H87        18.0781  -29.5374  -38.8880 H         1 UNK         0.0847 
     88 H88        18.6499  -27.8764  -38.9171 H         1 UNK         0.0847 
     89 H89        19.4823  -29.1017  -37.9518 H         1 UNK         0.0847 
     90 H90        20.7822  -27.6538  -38.3640 H         1 UNK         0.3040 
     91 H91        22.6438  -26.4334  -37.9538 H         1 UNK         0.1015 
     92 H92        22.5517  -24.4150  -39.4467 H         1 UNK         0.0786 
     93 H93        20.9612  -24.9685  -38.9698 H         1 UNK         0.0786 
     94 H94        21.5466  -25.3108  -40.5875 H         1 UNK         0.0786 
     95 H95        23.4606  -25.6314  -41.1589 H         1 UNK         0.3172 
     96 H96        26.2164  -26.2464  -40.7899 H         1 UNK         0.0595 
     97 H97        24.7200  -25.3982  -43.3306 H         1 UNK         0.0839 
     98 H98        26.4564  -25.3265  -43.0850 H         1 UNK         0.0839 
     99 H99        25.4033  -24.3026  -42.1262 H         1 UNK         0.0839 
    100 H100       23.6209  -28.1336  -42.2474 H         1 UNK         0.2998 
    101 H101       25.4798  -29.9767  -43.6350 H         1 UNK         0.0822 
    102 H102       23.3651  -31.1721  -44.2372 H         1 UNK         0.0787 
    103 H103       23.3441  -29.4952  -44.7529 H         1 UNK         0.0787 
    104 H104       22.4278  -29.9950  -43.3305 H         1 UNK         0.0787 
    105 H105       23.6492  -29.6467  -40.6749 H         1 UNK         0.3055 
    106 H106       23.5637  -30.6666  -38.7272 H         1 UNK         0.1106 
    107 H107       26.0630  -30.5282  -38.8084 H         1 UNK         0.0828 
    108 H108       25.5112  -31.9049  -37.8706 H         1 UNK         0.0828 
    109 H109       26.1308  -32.1516  -39.4956 H         1 UNK         0.0828 
    110 H110       22.4152  -32.0102  -41.2099 H         1 UNK         0.2931 
    111 H111       22.1755  -34.8038  -40.5380 H         1 UNK         0.0412 
    112 H112       19.9253  -35.8606  -40.2741 H         1 UNK         0.3472 
    113 H113       18.8703  -35.0746  -39.1295 H         1 UNK         0.3472 
    114 H114       20.5152  -34.8376  -42.4402 H         1 UNK         0.0970 
    115 H115       22.0989  -34.2557  -42.8556 H         1 UNK         0.0970 
    116 H116       21.5923  -32.9391  -45.0584 H         1 UNK         0.0612 
    117 H117       20.1061  -33.8533  -44.9166 H         1 UNK         0.0612 
@<TRIPOS>BOND
     1    1    2 1    
     2    1   62 1    
     3    1   63 1    
     4    1   64 1    
     5    2    3 2    
     6    2    4 am   BACKBONE|DICT|INTERRES
     7    4    5 1    
     8    4   65 1    
     9    5    6 1    
    10    5   25 1    
    11    5   66 1    
    12    6    7 1    
    13    6   67 1    
    14    6   68 1    
    15    7    8 1    
    16    8    9 1    
    17    8   69 1    
    18    8   70 1    
    19    9   10 ar   
    20    9   14 ar   
    21   10   11 ar   
    22   10   71 1    
    23   11   12 ar   
    24   11   61 1    
    25   12   13 ar   
    26   12   72 1    
    27   13   14 ar   
    28   13   15 1    
    29   14   73 1    
    30   15   16 1    
    31   15   74 1    
    32   15   75 1    
    33   16   17 1    
    34   17   18 1    
    35   17   76 1    
    36   17   77 1    
    37   18   19 1    
    38   18   27 1    
    39   18   78 1    
    40   19   20 am   BACKBONE|DICT|INTERRES
    41   19   79 1    
    42   20   21 2    
    43   20   22 1    
    44   22   23 1    
    45   22   24 1    
    46   22   80 1    
    47   23   81 1    
    48   23   82 1    
    49   23   83 1    
    50   24   25 am   BACKBONE|DICT|INTERRES
    51   24   84 1    
    52   25   26 2    
    53   27   28 2    
    54   27   29 am   BACKBONE|DICT|INTERRES
    55   29   30 1    
    56   29   85 1    
    57   30   31 1    
    58   30   32 1    
    59   30   86 1    
    60   31   87 1    
    61   31   88 1    
    62   31   89 1    
    63   32   33 2    
    64   32   34 am   BACKBONE|DICT|INTERRES
    65   34   35 1    
    66   34   90 1    
    67   35   36 1    
    68   35   37 1    
    69   35   91 1    
    70   36   92 1    
    71   36   93 1    
    72   36   94 1    
    73   37   38 2    
    74   37   39 am   BACKBONE|DICT|INTERRES
    75   39   40 1    
    76   39   95 1    
    77   40   41 1    
    78   40   42 1    
    79   40   96 1    
    80   41   97 1    
    81   41   98 1    
    82   41   99 1    
    83   42   43 2    
    84   42   44 am   BACKBONE|DICT|INTERRES
    85   44   45 1    
    86   44  100 1    
    87   45   46 1    
    88   45   47 1    
    89   45  101 1    
    90   46  102 1    
    91   46  103 1    
    92   46  104 1    
    93   47   48 2    
    94   47   49 am   BACKBONE|DICT|INTERRES
    95   49   50 1    
    96   49  105 1    
    97   50   51 1    
    98   50   52 1    
    99   50  106 1    
   100   51  107 1    
   101   51  108 1    
   102   51  109 1    
   103   52   53 2    
   104   52   54 am   BACKBONE|DICT|INTERRES
   105   54   55 1    
   106   54  110 1    
   107   55   56 1    
   108   55   59 1    
   109   55  111 1    
   110   56   57 am   BACKBONE|DICT|INTERRES
   111   56   58 2    
   112   57  112 1    
   113   57  113 1    
   114   59   60 1    
   115   59  114 1    
   116   59  115 1    
   117   60   61 1    
   118   61  116 1    
   119   61  117 1    
@<TRIPOS>SUBSTRUCTURE
     1 UNK         1 GROUP             0       ****    0 ROOT    
