@<TRIPOS>MOLECULE
3R8
117   119    1
SMALL
USER_CHARGES


@<TRIPOS>ATOM
      1 CA         19.4511  -22.4429  -41.1581 C.3       0 UNK        -0.2013 
      2 C          18.7867  -23.5246  -41.9945 C.2       0 UNK         0.4866 
      3 O          17.6675  -23.3324  -42.4704 O.2       0 UNK        -0.5176 
      4 N          19.4727  -24.6583  -42.1874 N.am      1 UNK        -0.4884 
      5 CA         19.0073  -25.7756  -43.0205 C.3       1 UNK         0.0853 
      6 C6         19.7407  -27.1021  -42.6776 C.3       10 UNK        -0.0849 
      7 S7         18.9307  -27.9965  -41.3167 S.3       10 UNK        -0.2776 
      8 C8         17.6084  -28.8841  -42.2123 C.3       10 UNK         0.0316 
      9 C9         18.1447  -30.0208  -43.0730 C.ar      10 UNK        -0.0863 
     10 C10        18.4935  -31.2355  -42.4778 C.ar      10 UNK        -0.1009 
     11 C11        18.9836  -32.2917  -43.2508 C.ar      10 UNK        -0.0712 
     12 C12        19.1319  -32.1222  -44.6299 C.ar      10 UNK        -0.0894 
     13 C13        18.7916  -30.9124  -45.2436 C.ar      10 UNK        -0.0745 
     14 C14        18.2810  -29.8697  -44.4584 C.ar      10 UNK        -0.0972 
     15 C15        18.9552  -30.7788  -46.7579 C.3       10 UNK         0.0209 
     16 S16        19.5510  -29.1508  -47.3289 S.3       10 UNK        -0.2568 
     17 C17        21.1859  -29.0306  -46.5247 C.3       10 UNK        -0.0983 
     18 CA         21.9234  -27.7072  -46.8637 C.3       3 UNK         0.0876 
     19 N          21.0662  -26.5388  -46.6254 N.am      3 UNK        -0.4424 
     20 C          21.3424  -25.2612  -46.9157 C.2       2 UNK         0.4918 
     21 O          22.3104  -24.9064  -47.5880 O.2       2 UNK        -0.4875 
     22 CA         20.4285  -24.1920  -46.2849 C.3       2 UNK         0.0481 
     23 CB         19.2499  -23.8357  -47.2113 C.3       2 UNK        -0.1831 
     24 N          19.9894  -24.5347  -44.9200 N.am      2 UNK        -0.4498 
     25 C          19.1245  -25.4845  -44.5298 C.2       1 UNK         0.5027 
     26 O          18.4840  -26.1828  -45.3153 O.2       1 UNK        -0.4969 
     27 C          23.2442  -27.6129  -46.0625 C.2       3 UNK         0.5005 
     28 O          24.2762  -28.1160  -46.5084 O.2       3 UNK        -0.5279 
     29 N          23.1727  -26.9433  -44.9066 N.am      4 UNK        -0.4463 
     30 CA         24.2404  -26.5428  -44.0004 C.3       4 UNK         0.0283 
     31 CB         24.7625  -27.7567  -43.2061 C.3       4 UNK        -0.1875 
     32 C          23.6342  -25.4728  -43.0762 C.2       4 UNK         0.4949 
     33 O          22.4636  -25.1136  -43.2445 O.2       4 UNK        -0.5039 
     34 N          24.4067  -25.0025  -42.0879 N.am      5 UNK        -0.4663 
     35 CA         23.9002  -24.1370  -41.0132 C.3       5 UNK         0.0242 
     36 CB         25.0708  -23.6231  -40.1597 C.3       5 UNK        -0.1982 
     37 C          22.8555  -24.8579  -40.1403 C.2       5 UNK         0.5017 
     38 O          21.8099  -24.2855  -39.8371 O.2       5 UNK        -0.5012 
     39 N          23.1401  -26.1230  -39.8178 N.am      6 UNK        -0.4439 
     40 CA         22.2460  -27.0686  -39.1639 C.3       6 UNK         0.0297 
     41 CB         22.2042  -26.8202  -37.6438 C.3       6 UNK        -0.2006 
     42 C          22.7779  -28.4595  -39.5149 C.2       6 UNK         0.4892 
     43 O          23.7850  -28.8814  -38.9434 O.2       6 UNK        -0.5089 
     44 N          22.1511  -29.1099  -40.5006 N.am      7 UNK        -0.4243 
     45 CA         22.5444  -30.4340  -40.9791 C.3       7 UNK         0.0196 
     46 CB         22.0940  -30.6033  -42.4401 C.3       7 UNK        -0.2007 
     47 C          21.9473  -31.5265  -40.0800 C.2       7 UNK         0.5020 
     48 O          20.7665  -31.4549  -39.7340 O.2       7 UNK        -0.5147 
     49 N          22.7653  -32.5272  -39.7365 N.am      8 UNK        -0.4734 
     50 CA         22.3500  -33.7138  -38.9901 C.3       8 UNK         0.0238 
     51 CB         23.4956  -34.1634  -38.0664 C.3       8 UNK        -0.1912 
     52 C          21.9826  -34.8110  -39.9960 C.2       8 UNK         0.5038 
     53 O          22.8641  -35.2837  -40.7175 O.2       8 UNK        -0.5046 
     54 N          20.6936  -35.1600  -40.0602 N.am      9 UNK        -0.4200 
     55 CA         20.1575  -36.1681  -40.9847 C.3       9 UNK         0.0839 
     56 C          20.5328  -37.6112  -40.5494 C.2       9 UNK         0.5513 
     57 N          20.7082  -38.5190  -41.4996 N.am      9 UNK        -0.7519 
     58 O          20.6244  -37.9234  -39.3634 O.2       9 UNK        -0.4960 
     59 C59        18.6204  -36.0275  -41.1544 C.3       10 UNK        -0.0876 
     60 S60        17.9748  -34.4405  -41.8124 S.3       10 UNK        -0.2414 
     61 C61        19.3944  -33.5971  -42.5879 C.3       10 UNK         0.0169 
     62 H62        19.0483  -21.4616  -41.4078 H         1 UNK         0.0903 
     63 H63        19.2769  -22.6256  -40.0980 H         1 UNK         0.0903 
     64 H64        20.5267  -22.4166  -41.3312 H         1 UNK         0.0903 
     65 H65        20.3882  -24.7623  -41.7671 H         1 UNK         0.3096 
     66 H66        17.9383  -25.9070  -42.8386 H         1 UNK         0.1121 
     67 H67        19.8026  -27.7800  -43.5300 H         1 UNK         0.0849 
     68 H68        20.7764  -26.9125  -42.3946 H         1 UNK         0.0849 
     69 H69        16.9054  -29.2888  -41.4826 H         1 UNK         0.0865 
     70 H70        17.0364  -28.1810  -42.8193 H         1 UNK         0.0865 
     71 H71        18.3988  -31.3568  -41.4067 H         1 UNK         0.1346 
     72 H72        19.5181  -32.9361  -45.2284 H         1 UNK         0.1412 
     73 H73        18.0005  -28.9349  -44.9250 H         1 UNK         0.1426 
     74 H74        17.9898  -30.9759  -47.2255 H         1 UNK         0.0716 
     75 H75        19.6402  -31.5395  -47.1360 H         1 UNK         0.0716 
     76 H76        21.7860  -29.8895  -46.8311 H         1 UNK         0.0695 
     77 H77        21.0411  -29.1244  -45.4465 H         1 UNK         0.0695 
     78 H78        22.1828  -27.7133  -47.9244 H         1 UNK         0.0983 
     79 H79        20.1843  -26.7239  -46.1591 H         1 UNK         0.3095 
     80 H80        21.0350  -23.2922  -46.1718 H         1 UNK         0.0454 
     81 H81        19.6128  -23.4407  -48.1609 H         1 UNK         0.0851 
     82 H82        18.6112  -23.0732  -46.7658 H         1 UNK         0.0851 
     83 H83        18.6292  -24.7015  -47.4427 H         1 UNK         0.0851 
     84 H84        20.5191  -24.0898  -44.1805 H         1 UNK         0.2976 
     85 H85        22.2911  -26.5093  -44.6585 H         1 UNK         0.3116 
     86 H86        25.0486  -26.0929  -44.5798 H         1 UNK         0.0646 
     87 H87        25.6427  -27.4958  -42.6183 H         1 UNK         0.0847 
     88 H88        25.0540  -28.5751  -43.8642 H         1 UNK         0.0847 
     89 H89        24.0109  -28.1358  -42.5146 H         1 UNK         0.0847 
     90 H90        25.3669  -25.3093  -42.0209 H         1 UNK         0.3040 
     91 H91        23.4079  -23.2766  -41.4727 H         1 UNK         0.1015 
     92 H92        24.7130  -22.9697  -39.3626 H         1 UNK         0.0786 
     93 H93        25.7736  -23.0442  -40.7593 H         1 UNK         0.0786 
     94 H94        25.6222  -24.4383  -39.6895 H         1 UNK         0.0786 
     95 H95        24.0241  -26.5097  -40.1196 H         1 UNK         0.3172 
     96 H96        21.2381  -26.9559  -39.5688 H         1 UNK         0.0595 
     97 H97        23.1978  -26.8718  -37.1968 H         1 UNK         0.0839 
     98 H98        21.5815  -27.5646  -37.1462 H         1 UNK         0.0839 
     99 H99        21.7852  -25.8408  -37.4130 H         1 UNK         0.0839 
    100 H100       21.2875  -28.7353  -40.8709 H         1 UNK         0.2998 
    101 H101       23.6337  -30.5156  -40.9547 H         1 UNK         0.0822 
    102 H102       22.6622  -29.9621  -43.1126 H         1 UNK         0.0787 
    103 H103       21.0424  -30.3536  -42.5660 H         1 UNK         0.0787 
    104 H104       22.2313  -31.6300  -42.7821 H         1 UNK         0.0787 
    105 H105       23.7080  -32.5387  -40.1005 H         1 UNK         0.3055 
    106 H106       21.4833  -33.4851  -38.3651 H         1 UNK         0.1106 
    107 H107       24.4018  -34.4027  -38.6245 H         1 UNK         0.0828 
    108 H108       23.7451  -33.3890  -37.3409 H         1 UNK         0.0828 
    109 H109       23.2143  -35.0551  -37.5047 H         1 UNK         0.0828 
    110 H110       20.0281  -34.7304  -39.4350 H         1 UNK         0.2931 
    111 H111       20.6202  -36.0028  -41.9592 H         1 UNK         0.0412 
    112 H112       20.6273  -38.2767  -42.4754 H         1 UNK         0.3472 
    113 H113       20.9371  -39.4656  -41.2373 H         1 UNK         0.3472 
    114 H114       18.2549  -36.8077  -41.8249 H         1 UNK         0.0970 
    115 H115       18.1236  -36.2119  -40.1999 H         1 UNK         0.0970 
    116 H116       19.8592  -34.2657  -43.3135 H         1 UNK         0.0612 
    117 H117       20.1491  -33.3598  -41.8412 H         1 UNK         0.0612 
@<TRIPOS>BOND
     1    1    2 1    
     2    1   62 1    
     3    1   63 1    
     4    1   64 1    
     5    2    3 2    
     6    2    4 am   BACKBONE|DICT|INTERRES
     7    4    5 1    
     8    4   65 1    
     9    5    6 1    
    10    5   25 1    
    11    5   66 1    
    12    6    7 1    
    13    6   67 1    
    14    6   68 1    
    15    7    8 1    
    16    8    9 1    
    17    8   69 1    
    18    8   70 1    
    19    9   10 ar   
    20    9   14 ar   
    21   10   11 ar   
    22   10   71 1    
    23   11   12 ar   
    24   11   61 1    
    25   12   13 ar   
    26   12   72 1    
    27   13   14 ar   
    28   13   15 1    
    29   14   73 1    
    30   15   16 1    
    31   15   74 1    
    32   15   75 1    
    33   16   17 1    
    34   17   18 1    
    35   17   76 1    
    36   17   77 1    
    37   18   19 1    
    38   18   27 1    
    39   18   78 1    
    40   19   20 am   BACKBONE|DICT|INTERRES
    41   19   79 1    
    42   20   21 2    
    43   20   22 1    
    44   22   23 1    
    45   22   24 1    
    46   22   80 1    
    47   23   81 1    
    48   23   82 1    
    49   23   83 1    
    50   24   25 am   BACKBONE|DICT|INTERRES
    51   24   84 1    
    52   25   26 2    
    53   27   28 2    
    54   27   29 am   BACKBONE|DICT|INTERRES
    55   29   30 1    
    56   29   85 1    
    57   30   31 1    
    58   30   32 1    
    59   30   86 1    
    60   31   87 1    
    61   31   88 1    
    62   31   89 1    
    63   32   33 2    
    64   32   34 am   BACKBONE|DICT|INTERRES
    65   34   35 1    
    66   34   90 1    
    67   35   36 1    
    68   35   37 1    
    69   35   91 1    
    70   36   92 1    
    71   36   93 1    
    72   36   94 1    
    73   37   38 2    
    74   37   39 am   BACKBONE|DICT|INTERRES
    75   39   40 1    
    76   39   95 1    
    77   40   41 1    
    78   40   42 1    
    79   40   96 1    
    80   41   97 1    
    81   41   98 1    
    82   41   99 1    
    83   42   43 2    
    84   42   44 am   BACKBONE|DICT|INTERRES
    85   44   45 1    
    86   44  100 1    
    87   45   46 1    
    88   45   47 1    
    89   45  101 1    
    90   46  102 1    
    91   46  103 1    
    92   46  104 1    
    93   47   48 2    
    94   47   49 am   BACKBONE|DICT|INTERRES
    95   49   50 1    
    96   49  105 1    
    97   50   51 1    
    98   50   52 1    
    99   50  106 1    
   100   51  107 1    
   101   51  108 1    
   102   51  109 1    
   103   52   53 2    
   104   52   54 am   BACKBONE|DICT|INTERRES
   105   54   55 1    
   106   54  110 1    
   107   55   56 1    
   108   55   59 1    
   109   55  111 1    
   110   56   57 am   BACKBONE|DICT|INTERRES
   111   56   58 2    
   112   57  112 1    
   113   57  113 1    
   114   59   60 1    
   115   59  114 1    
   116   59  115 1    
   117   60   61 1    
   118   61  116 1    
   119   61  117 1    
@<TRIPOS>SUBSTRUCTURE
     1 UNK         1 GROUP             0       ****    0 ROOT    
