@<TRIPOS>MOLECULE
3R8
117   119    1
SMALL
USER_CHARGES


@<TRIPOS>ATOM
      1 CA         17.9394  -23.2524  -49.4490 C.3       0 UNK        -0.2013 
      2 C          18.3382  -24.6729  -49.0776 C.2       0 UNK         0.4866 
      3 O          19.2602  -25.2268  -49.6775 O.2       0 UNK        -0.5176 
      4 N          17.6465  -25.2704  -48.0994 N.am      1 UNK        -0.4884 
      5 CA         17.9390  -26.6056  -47.5694 C.3       1 UNK         0.0853 
      6 C6         16.7277  -27.1653  -46.7778 C.3       10 UNK        -0.0849 
      7 S7         16.7536  -28.9852  -46.6271 S.3       10 UNK        -0.2776 
      8 C8         15.4994  -29.2757  -45.3353 C.3       10 UNK         0.0316 
      9 C9         16.0770  -29.2921  -43.9222 C.ar      10 UNK        -0.0863 
     10 C10        16.4068  -30.5077  -43.3083 C.ar      10 UNK        -0.1009 
     11 C11        16.8377  -30.5399  -41.9770 C.ar      10 UNK        -0.0712 
     12 C12        16.9442  -29.3433  -41.2638 C.ar      10 UNK        -0.0894 
     13 C13        16.6763  -28.1154  -41.8796 C.ar      10 UNK        -0.0745 
     14 C14        16.2262  -28.1006  -43.2038 C.ar      10 UNK        -0.0972 
     15 C15        16.8432  -26.8047  -41.1156 C.3       10 UNK         0.0209 
     16 S16        18.4144  -26.6981  -40.1896 S.3       10 UNK        -0.2568 
     17 C17        19.6641  -26.5832  -41.5190 C.3       10 UNK        -0.0983 
     18 CA         20.1971  -27.9551  -42.0134 C.3       3 UNK         0.0876 
     19 N          20.8378  -27.8176  -43.3244 N.am      3 UNK        -0.4424 
     20 C          20.3578  -28.3596  -44.4482 C.2       2 UNK         0.4918 
     21 O          19.4004  -29.1300  -44.4855 O.2       2 UNK        -0.4875 
     22 CA         21.0360  -27.9771  -45.7734 C.3       2 UNK         0.0481 
     23 CB         21.8815  -29.1436  -46.3096 C.3       2 UNK        -0.1831 
     24 N          20.0016  -27.6545  -46.7577 N.am      2 UNK        -0.4498 
     25 C          19.2099  -26.5761  -46.6945 C.2       1 UNK         0.5027 
     26 O          19.4183  -25.6142  -45.9493 O.2       1 UNK        -0.4969 
     27 C          21.1411  -28.6491  -41.0148 C.2       3 UNK         0.5005 
     28 O          22.3274  -28.8404  -41.3017 O.2       3 UNK        -0.5279 
     29 N          20.5761  -29.0603  -39.8730 N.am      4 UNK        -0.4463 
     30 CA         21.2398  -29.7669  -38.7777 C.3       4 UNK         0.0283 
     31 CB         20.1948  -30.1356  -37.7131 C.3       4 UNK        -0.1875 
     32 C          22.3661  -28.9340  -38.1506 C.2       4 UNK         0.4949 
     33 O          22.2563  -27.7077  -38.0863 O.2       4 UNK        -0.5039 
     34 N          23.4338  -29.6188  -37.7178 N.am      5 UNK        -0.4663 
     35 CA         24.6923  -29.1012  -37.1524 C.3       5 UNK         0.0242 
     36 CB         24.4496  -28.3232  -35.8444 C.3       5 UNK        -0.1982 
     37 C          25.5468  -28.2795  -38.1374 C.2       5 UNK         0.5017 
     38 O          26.7611  -28.4746  -38.1823 O.2       5 UNK        -0.5012 
     39 N          24.9047  -27.4006  -38.9161 N.am      6 UNK        -0.4439 
     40 CA         25.5033  -26.5902  -39.9754 C.3       6 UNK         0.0297 
     41 CB         24.4817  -25.5476  -40.4591 C.3       6 UNK        -0.2006 
     42 C          26.0081  -27.4419  -41.1504 C.2       6 UNK         0.4892 
     43 O          27.1353  -27.2368  -41.6022 O.2       6 UNK        -0.5089 
     44 N          25.1710  -28.3794  -41.6135 N.am      7 UNK        -0.4243 
     45 CA         25.4610  -29.2728  -42.7363 C.3       7 UNK         0.0196 
     46 CB         24.9154  -28.6369  -44.0277 C.3       7 UNK        -0.2007 
     47 C          24.9137  -30.6936  -42.5104 C.2       7 UNK         0.5020 
     48 O          24.8541  -31.4696  -43.4642 O.2       7 UNK        -0.5147 
     49 N          24.5054  -31.0141  -41.2709 N.am      8 UNK        -0.4734 
     50 CA         23.9461  -32.3014  -40.8215 C.3       8 UNK         0.0238 
     51 CB         25.0522  -33.3770  -40.7886 C.3       8 UNK        -0.1912 
     52 C          22.7006  -32.7592  -41.6141 C.2       8 UNK         0.5038 
     53 O          22.4993  -33.9607  -41.7984 O.2       8 UNK        -0.5046 
     54 N          21.9073  -31.7874  -42.0830 N.am      9 UNK        -0.4200 
     55 CA         20.7673  -31.9528  -43.0024 C.3       9 UNK         0.0839 
     56 C          21.1607  -32.4128  -44.4414 C.2       9 UNK         0.5513 
     57 N          22.4247  -32.3525  -44.8454 N.am      9 UNK        -0.7519 
     58 O          20.3028  -32.8136  -45.2234 O.2       9 UNK        -0.4960 
     59 C59        19.5837  -32.7755  -42.4155 C.3       10 UNK        -0.0876 
     60 S60        18.9054  -32.0672  -40.8767 S.3       10 UNK        -0.2414 
     61 C61        17.1366  -31.8615  -41.2790 C.3       10 UNK         0.0169 
     62 H62        17.6203  -23.2131  -50.4913 H         1 UNK         0.0903 
     63 H63        17.1217  -22.8821  -48.8289 H         1 UNK         0.0903 
     64 H64        18.7897  -22.5798  -49.3265 H         1 UNK         0.0903 
     65 H65        16.9244  -24.7539  -47.6173 H         1 UNK         0.3096 
     66 H66        18.1232  -27.2582  -48.4265 H         1 UNK         0.1121 
     67 H67        16.6625  -26.7068  -45.7906 H         1 UNK         0.0849 
     68 H68        15.7985  -26.9081  -47.2890 H         1 UNK         0.0849 
     69 H69        14.7105  -28.5256  -45.4096 H         1 UNK         0.0865 
     70 H70        15.0147  -30.2314  -45.5406 H         1 UNK         0.0865 
     71 H71        16.2999  -31.4320  -43.8593 H         1 UNK         0.1346 
     72 H72        17.2588  -29.3699  -40.2298 H         1 UNK         0.1412 
     73 H73        15.9752  -27.1590  -43.6704 H         1 UNK         0.1426 
     74 H74        16.0169  -26.7095  -40.4102 H         1 UNK         0.0716 
     75 H75        16.7734  -25.9488  -41.7888 H         1 UNK         0.0716 
     76 H76        19.2089  -26.0414  -42.3502 H         1 UNK         0.0695 
     77 H77        20.4860  -25.9541  -41.1720 H         1 UNK         0.0695 
     78 H78        19.3501  -28.6318  -42.1132 H         1 UNK         0.0983 
     79 H79        21.6720  -27.2501  -43.3517 H         1 UNK         0.3095 
     80 H80        21.6781  -27.1070  -45.6222 H         1 UNK         0.0454 
     81 H81        21.2637  -30.0085  -46.5558 H         1 UNK         0.0851 
     82 H82        22.4301  -28.8572  -47.2069 H         1 UNK         0.0851 
     83 H83        22.6116  -29.4782  -45.5745 H         1 UNK         0.0851 
     84 H84        19.7152  -28.4156  -47.3561 H         1 UNK         0.2976 
     85 H85        19.6160  -28.7912  -39.7095 H         1 UNK         0.3116 
     86 H86        21.6607  -30.6861  -39.1882 H         1 UNK         0.0646 
     87 H87        20.6501  -30.6911  -36.8921 H         1 UNK         0.0847 
     88 H88        19.4067  -30.7644  -38.1274 H         1 UNK         0.0847 
     89 H89        19.7259  -29.2485  -37.2848 H         1 UNK         0.0847 
     90 H90        23.4011  -30.6253  -37.8007 H         1 UNK         0.3040 
     91 H91        25.2842  -29.9821  -36.8978 H         1 UNK         0.1015 
     92 H92        23.9063  -28.9286  -35.1193 H         1 UNK         0.0786 
     93 H93        23.8814  -27.4078  -36.0089 H         1 UNK         0.0786 
     94 H94        25.3953  -28.0363  -35.3827 H         1 UNK         0.0786 
     95 H95        23.9005  -27.3134  -38.7687 H         1 UNK         0.3172 
     96 H96        26.3587  -26.0608  -39.5507 H         1 UNK         0.0595 
     97 H97        24.1851  -24.8795  -39.6504 H         1 UNK         0.0839 
     98 H98        23.5783  -26.0157  -40.8530 H         1 UNK         0.0839 
     99 H99        24.9016  -24.9281  -41.2526 H         1 UNK         0.0839 
    100 H100       24.2266  -28.4386  -41.2398 H         1 UNK         0.2998 
    101 H101       26.5412  -29.3922  -42.8418 H         1 UNK         0.0822 
    102 H102       25.4098  -27.6887  -44.2385 H         1 UNK         0.0787 
    103 H103       25.0753  -29.2810  -44.8933 H         1 UNK         0.0787 
    104 H104       23.8467  -28.4426  -43.9455 H         1 UNK         0.0787 
    105 H105       24.5912  -30.3006  -40.5622 H         1 UNK         0.3055 
    106 H106       23.6053  -32.1542  -39.7965 H         1 UNK         0.1106 
    107 H107       25.4046  -33.6233  -41.7907 H         1 UNK         0.0828 
    108 H108       25.9103  -33.0470  -40.2032 H         1 UNK         0.0828 
    109 H109       24.6904  -34.3008  -40.3355 H         1 UNK         0.0828 
    110 H110       22.1739  -30.8293  -41.8879 H         1 UNK         0.2931 
    111 H111       20.3930  -30.9431  -43.1320 H         1 UNK         0.0412 
    112 H112       22.6504  -32.6544  -45.7791 H         1 UNK         0.3472 
    113 H113       23.1691  -32.0421  -44.2289 H         1 UNK         0.3472 
    114 H114       19.8873  -33.8049  -42.2224 H         1 UNK         0.0970 
    115 H115       18.7750  -32.8374  -43.1454 H         1 UNK         0.0970 
    116 H116       16.7889  -32.7087  -41.8719 H         1 UNK         0.0612 
    117 H117       16.5697  -31.8968  -40.3477 H         1 UNK         0.0612 
@<TRIPOS>BOND
     1    1    2 1    
     2    1   62 1    
     3    1   63 1    
     4    1   64 1    
     5    2    3 2    
     6    2    4 am   BACKBONE|DICT|INTERRES
     7    4    5 1    
     8    4   65 1    
     9    5    6 1    
    10    5   25 1    
    11    5   66 1    
    12    6    7 1    
    13    6   67 1    
    14    6   68 1    
    15    7    8 1    
    16    8    9 1    
    17    8   69 1    
    18    8   70 1    
    19    9   10 ar   
    20    9   14 ar   
    21   10   11 ar   
    22   10   71 1    
    23   11   12 ar   
    24   11   61 1    
    25   12   13 ar   
    26   12   72 1    
    27   13   14 ar   
    28   13   15 1    
    29   14   73 1    
    30   15   16 1    
    31   15   74 1    
    32   15   75 1    
    33   16   17 1    
    34   17   18 1    
    35   17   76 1    
    36   17   77 1    
    37   18   19 1    
    38   18   27 1    
    39   18   78 1    
    40   19   20 am   BACKBONE|DICT|INTERRES
    41   19   79 1    
    42   20   21 2    
    43   20   22 1    
    44   22   23 1    
    45   22   24 1    
    46   22   80 1    
    47   23   81 1    
    48   23   82 1    
    49   23   83 1    
    50   24   25 am   BACKBONE|DICT|INTERRES
    51   24   84 1    
    52   25   26 2    
    53   27   28 2    
    54   27   29 am   BACKBONE|DICT|INTERRES
    55   29   30 1    
    56   29   85 1    
    57   30   31 1    
    58   30   32 1    
    59   30   86 1    
    60   31   87 1    
    61   31   88 1    
    62   31   89 1    
    63   32   33 2    
    64   32   34 am   BACKBONE|DICT|INTERRES
    65   34   35 1    
    66   34   90 1    
    67   35   36 1    
    68   35   37 1    
    69   35   91 1    
    70   36   92 1    
    71   36   93 1    
    72   36   94 1    
    73   37   38 2    
    74   37   39 am   BACKBONE|DICT|INTERRES
    75   39   40 1    
    76   39   95 1    
    77   40   41 1    
    78   40   42 1    
    79   40   96 1    
    80   41   97 1    
    81   41   98 1    
    82   41   99 1    
    83   42   43 2    
    84   42   44 am   BACKBONE|DICT|INTERRES
    85   44   45 1    
    86   44  100 1    
    87   45   46 1    
    88   45   47 1    
    89   45  101 1    
    90   46  102 1    
    91   46  103 1    
    92   46  104 1    
    93   47   48 2    
    94   47   49 am   BACKBONE|DICT|INTERRES
    95   49   50 1    
    96   49  105 1    
    97   50   51 1    
    98   50   52 1    
    99   50  106 1    
   100   51  107 1    
   101   51  108 1    
   102   51  109 1    
   103   52   53 2    
   104   52   54 am   BACKBONE|DICT|INTERRES
   105   54   55 1    
   106   54  110 1    
   107   55   56 1    
   108   55   59 1    
   109   55  111 1    
   110   56   57 am   BACKBONE|DICT|INTERRES
   111   56   58 2    
   112   57  112 1    
   113   57  113 1    
   114   59   60 1    
   115   59  114 1    
   116   59  115 1    
   117   60   61 1    
   118   61  116 1    
   119   61  117 1    
@<TRIPOS>SUBSTRUCTURE
     1 UNK         1 GROUP             0       ****    0 ROOT    
