@<TRIPOS>MOLECULE
3R8
117   119    1
SMALL
USER_CHARGES


@<TRIPOS>ATOM
      1 CA         18.6400  -29.4235  -41.9081 C.3       0 UNK        -0.2013 
      2 C          18.0633  -28.0182  -41.9150 C.2       0 UNK         0.4866 
      3 O          18.1657  -27.3235  -40.9055 O.2       0 UNK        -0.5176 
      4 N          17.4578  -27.5950  -43.0343 N.am      1 UNK        -0.4884 
      5 CA         16.9640  -26.2297  -43.2436 C.3       1 UNK         0.0853 
      6 C6         15.7289  -26.1840  -44.1867 C.3       10 UNK        -0.0849 
      7 S7         15.9543  -26.8520  -45.8777 S.3       10 UNK        -0.2776 
      8 C8         15.1703  -28.4948  -45.7926 C.3       10 UNK         0.0316 
      9 C9         16.1473  -29.6075  -45.4283 C.ar      10 UNK        -0.0863 
     10 C10        15.8069  -30.5467  -44.4493 C.ar      10 UNK        -0.1009 
     11 C11        16.6387  -31.6417  -44.1906 C.ar      10 UNK        -0.0712 
     12 C12        17.8333  -31.7736  -44.9060 C.ar      10 UNK        -0.0894 
     13 C13        18.2109  -30.8217  -45.8561 C.ar      10 UNK        -0.0745 
     14 C14        17.3520  -29.7520  -46.1263 C.ar      10 UNK        -0.0972 
     15 C15        19.5167  -30.9989  -46.6259 C.3       10 UNK         0.0209 
     16 S16        20.5320  -29.4861  -46.7109 S.3       10 UNK        -0.2568 
     17 C17        21.0670  -29.2805  -44.9781 C.3       10 UNK        -0.0983 
     18 CA         21.6179  -27.8556  -44.7111 C.3       3 UNK         0.0876 
     19 N          20.6268  -26.8270  -45.0393 N.am      3 UNK        -0.4424 
     20 C          20.8679  -25.5279  -45.2629 C.2       2 UNK         0.4918 
     21 O          21.9897  -25.0233  -45.2314 O.2       2 UNK        -0.4875 
     22 CA         19.6350  -24.6410  -45.5276 C.3       2 UNK         0.0481 
     23 CB         19.4428  -24.4274  -47.0368 C.3       2 UNK        -0.1831 
     24 N          18.4084  -25.2123  -44.9601 N.am      2 UNK        -0.4498 
     25 C          18.1461  -25.3230  -43.6515 C.2       1 UNK         0.5027 
     26 O          18.8490  -24.8064  -42.7834 O.2       1 UNK        -0.4969 
     27 C          22.1731  -27.7295  -43.2730 C.2       3 UNK         0.5005 
     28 O          23.1109  -28.4521  -42.9367 O.2       3 UNK        -0.5279 
     29 N          21.6339  -26.8042  -42.4581 N.am      4 UNK        -0.4463 
     30 CA         22.0216  -26.5221  -41.0677 C.3       4 UNK         0.0283 
     31 CB         21.1824  -25.3530  -40.5298 C.3       4 UNK        -0.1875 
     32 C          23.5165  -26.2327  -40.8365 C.2       4 UNK         0.4949 
     33 O          23.9874  -26.4084  -39.7140 O.2       4 UNK        -0.5039 
     34 N          24.2523  -25.8524  -41.8907 N.am      5 UNK        -0.4663 
     35 CA         25.7154  -25.7455  -41.9024 C.3       5 UNK         0.0242 
     36 CB         26.1660  -25.1903  -43.2629 C.3       5 UNK        -0.1982 
     37 C          26.4409  -27.0728  -41.5944 C.2       5 UNK         0.5017 
     38 O          27.5608  -27.0352  -41.0845 O.2       5 UNK        -0.5012 
     39 N          25.7897  -28.2129  -41.8739 N.am      6 UNK        -0.4439 
     40 CA         26.2554  -29.5549  -41.5115 C.3       6 UNK         0.0297 
     41 CB         25.7066  -30.5643  -42.5351 C.3       6 UNK        -0.2006 
     42 C          25.8548  -29.9674  -40.0795 C.2       6 UNK         0.4892 
     43 O          26.2353  -31.0578  -39.6527 O.2       6 UNK        -0.5089 
     44 N          25.0857  -29.1184  -39.3765 N.am      7 UNK        -0.4243 
     45 CA         24.5230  -29.3014  -38.0302 C.3       7 UNK         0.0196 
     46 CB         25.6395  -29.4526  -36.9749 C.3       7 UNK        -0.2007 
     47 C          23.4603  -30.4154  -37.9276 C.2       7 UNK         0.5020 
     48 O          23.1026  -30.8066  -36.8155 O.2       7 UNK        -0.5147 
     49 N          22.9538  -30.8932  -39.0694 N.am      8 UNK        -0.4734 
     50 CA         21.9664  -31.9602  -39.2107 C.3       8 UNK         0.0238 
     51 CB         22.5885  -33.3172  -38.8136 C.3       8 UNK        -0.1912 
     52 C          21.4869  -31.9870  -40.6686 C.2       8 UNK         0.5038 
     53 O          22.0442  -31.2769  -41.5090 O.2       8 UNK        -0.5046 
     54 N          20.4868  -32.8310  -40.9474 N.am      9 UNK        -0.4200 
     55 CA         19.9972  -33.1320  -42.3034 C.3       9 UNK         0.0839 
     56 C          21.0028  -33.9126  -43.2025 C.2       9 UNK         0.5513 
     57 N          22.0644  -34.5035  -42.6670 N.am      9 UNK        -0.7519 
     58 O          20.8095  -33.9823  -44.4130 O.2       9 UNK        -0.4960 
     59 C59        18.6294  -33.8644  -42.2538 C.3       10 UNK        -0.0876 
     60 S60        17.2727  -32.7735  -41.7039 S.3       10 UNK        -0.2414 
     61 C61        16.2099  -32.7069  -43.1857 C.3       10 UNK         0.0169 
     62 H62        18.2310  -29.9909  -41.0731 H         1 UNK         0.0903 
     63 H63        18.4119  -29.9603  -42.8256 H         1 UNK         0.0903 
     64 H64        19.7233  -29.3869  -41.7936 H         1 UNK         0.0903 
     65 H65        17.3557  -28.2220  -43.8217 H         1 UNK         0.3096 
     66 H66        16.6195  -25.8417  -42.2817 H         1 UNK         0.1121 
     67 H67        15.3856  -25.1523  -44.2845 H         1 UNK         0.0849 
     68 H68        14.9004  -26.7081  -43.7085 H         1 UNK         0.0849 
     69 H69        14.3217  -28.4692  -45.1075 H         1 UNK         0.0865 
     70 H70        14.7535  -28.7236  -46.7744 H         1 UNK         0.0865 
     71 H71        14.8698  -30.4505  -43.9176 H         1 UNK         0.1346 
     72 H72        18.4704  -32.6275  -44.7375 H         1 UNK         0.1412 
     73 H73        17.6146  -29.0404  -46.8975 H         1 UNK         0.1426 
     74 H74        20.1210  -31.7963  -46.1899 H         1 UNK         0.0716 
     75 H75        19.2778  -31.3147  -47.6420 H         1 UNK         0.0716 
     76 H76        21.8258  -30.0371  -44.7674 H         1 UNK         0.0695 
     77 H77        20.2270  -29.4965  -44.3185 H         1 UNK         0.0695 
     78 H78        22.4738  -27.7038  -45.3727 H         1 UNK         0.0983 
     79 H79        19.6753  -27.1498  -45.1235 H         1 UNK         0.3095 
     80 H80        19.8129  -23.6701  -45.0606 H         1 UNK         0.0454 
     81 H81        19.2537  -25.3667  -47.5582 H         1 UNK         0.0851 
     82 H82        18.6076  -23.7568  -47.2394 H         1 UNK         0.0851 
     83 H83        20.3317  -23.9798  -47.4835 H         1 UNK         0.0851 
     84 H84        17.7616  -25.6540  -45.6042 H         1 UNK         0.2976 
     85 H85        20.8765  -26.2413  -42.8212 H         1 UNK         0.3116 
     86 H86        21.7786  -27.4128  -40.4849 H         1 UNK         0.0646 
     87 H87        20.1203  -25.5938  -40.5247 H         1 UNK         0.0847 
     88 H88        21.4563  -25.1101  -39.5021 H         1 UNK         0.0847 
     89 H89        21.3181  -24.4501  -41.1265 H         1 UNK         0.0847 
     90 H90        23.7799  -25.7249  -42.7745 H         1 UNK         0.3040 
     91 H91        26.0017  -25.0333  -41.1254 H         1 UNK         0.1015 
     92 H92        25.8835  -25.8525  -44.0825 H         1 UNK         0.0786 
     93 H93        27.2502  -25.0728  -43.2972 H         1 UNK         0.0786 
     94 H94        25.7297  -24.2101  -43.4566 H         1 UNK         0.0786 
     95 H95        24.8604  -28.1627  -42.2901 H         1 UNK         0.3172 
     96 H96        27.3457  -29.5816  -41.5649 H         1 UNK         0.0595 
     97 H97        24.6185  -30.6312  -42.4940 H         1 UNK         0.0839 
     98 H98        26.0987  -31.5648  -42.3481 H         1 UNK         0.0839 
     99 H99        25.9871  -30.2925  -43.5527 H         1 UNK         0.0839 
    100 H100       24.8403  -28.2338  -39.8087 H         1 UNK         0.2998 
    101 H101       23.9927  -28.3747  -37.8066 H         1 UNK         0.0822 
    102 H102       25.2308  -29.4158  -35.9644 H         1 UNK         0.0787 
    103 H103       26.1673  -30.4013  -37.0746 H         1 UNK         0.0787 
    104 H104       26.3721  -28.6495  -37.0549 H         1 UNK         0.0787 
    105 H105       23.2569  -30.5020  -39.9542 H         1 UNK         0.3055 
    106 H106       21.1106  -31.7378  -38.5695 H         1 UNK         0.1106 
    107 H107       22.9104  -33.3235  -37.7724 H         1 UNK         0.0828 
    108 H108       21.8755  -34.1348  -38.9235 H         1 UNK         0.0828 
    109 H109       23.4577  -33.5536  -39.4289 H         1 UNK         0.0828 
    110 H110       20.0742  -33.3693  -40.2002 H         1 UNK         0.2931 
    111 H111       19.8481  -32.1733  -42.8040 H         1 UNK         0.0412 
    112 H112       22.7036  -35.0018  -43.2664 H         1 UNK         0.3472 
    113 H113       22.2356  -34.4559  -41.6764 H         1 UNK         0.3472 
    114 H114       18.3695  -34.2925  -43.2230 H         1 UNK         0.0970 
    115 H115       18.6822  -34.7181  -41.5760 H         1 UNK         0.0970 
    116 H116       16.1804  -33.6822  -43.6730 H         1 UNK         0.0612 
    117 H117       15.1895  -32.5144  -42.8513 H         1 UNK         0.0612 
@<TRIPOS>BOND
     1    1    2 1    
     2    1   62 1    
     3    1   63 1    
     4    1   64 1    
     5    2    3 2    
     6    2    4 am   BACKBONE|DICT|INTERRES
     7    4    5 1    
     8    4   65 1    
     9    5    6 1    
    10    5   25 1    
    11    5   66 1    
    12    6    7 1    
    13    6   67 1    
    14    6   68 1    
    15    7    8 1    
    16    8    9 1    
    17    8   69 1    
    18    8   70 1    
    19    9   10 ar   
    20    9   14 ar   
    21   10   11 ar   
    22   10   71 1    
    23   11   12 ar   
    24   11   61 1    
    25   12   13 ar   
    26   12   72 1    
    27   13   14 ar   
    28   13   15 1    
    29   14   73 1    
    30   15   16 1    
    31   15   74 1    
    32   15   75 1    
    33   16   17 1    
    34   17   18 1    
    35   17   76 1    
    36   17   77 1    
    37   18   19 1    
    38   18   27 1    
    39   18   78 1    
    40   19   20 am   BACKBONE|DICT|INTERRES
    41   19   79 1    
    42   20   21 2    
    43   20   22 1    
    44   22   23 1    
    45   22   24 1    
    46   22   80 1    
    47   23   81 1    
    48   23   82 1    
    49   23   83 1    
    50   24   25 am   BACKBONE|DICT|INTERRES
    51   24   84 1    
    52   25   26 2    
    53   27   28 2    
    54   27   29 am   BACKBONE|DICT|INTERRES
    55   29   30 1    
    56   29   85 1    
    57   30   31 1    
    58   30   32 1    
    59   30   86 1    
    60   31   87 1    
    61   31   88 1    
    62   31   89 1    
    63   32   33 2    
    64   32   34 am   BACKBONE|DICT|INTERRES
    65   34   35 1    
    66   34   90 1    
    67   35   36 1    
    68   35   37 1    
    69   35   91 1    
    70   36   92 1    
    71   36   93 1    
    72   36   94 1    
    73   37   38 2    
    74   37   39 am   BACKBONE|DICT|INTERRES
    75   39   40 1    
    76   39   95 1    
    77   40   41 1    
    78   40   42 1    
    79   40   96 1    
    80   41   97 1    
    81   41   98 1    
    82   41   99 1    
    83   42   43 2    
    84   42   44 am   BACKBONE|DICT|INTERRES
    85   44   45 1    
    86   44  100 1    
    87   45   46 1    
    88   45   47 1    
    89   45  101 1    
    90   46  102 1    
    91   46  103 1    
    92   46  104 1    
    93   47   48 2    
    94   47   49 am   BACKBONE|DICT|INTERRES
    95   49   50 1    
    96   49  105 1    
    97   50   51 1    
    98   50   52 1    
    99   50  106 1    
   100   51  107 1    
   101   51  108 1    
   102   51  109 1    
   103   52   53 2    
   104   52   54 am   BACKBONE|DICT|INTERRES
   105   54   55 1    
   106   54  110 1    
   107   55   56 1    
   108   55   59 1    
   109   55  111 1    
   110   56   57 am   BACKBONE|DICT|INTERRES
   111   56   58 2    
   112   57  112 1    
   113   57  113 1    
   114   59   60 1    
   115   59  114 1    
   116   59  115 1    
   117   60   61 1    
   118   61  116 1    
   119   61  117 1    
@<TRIPOS>SUBSTRUCTURE
     1 UNK         1 GROUP             0       ****    0 ROOT    
