@<TRIPOS>MOLECULE
3R8
117   119    1
SMALL
USER_CHARGES


@<TRIPOS>ATOM
      1 CA         16.9999  -29.6869  -39.3760 C.3       0 UNK        -0.2013 
      2 C          18.2250  -29.0125  -39.9748 C.2       0 UNK         0.4866 
      3 O          18.9376  -28.3009  -39.2675 O.2       0 UNK        -0.5176 
      4 N          18.4778  -29.2521  -41.2679 N.am      1 UNK        -0.4884 
      5 CA         19.5380  -28.6405  -42.0769 C.3       1 UNK         0.0853 
      6 C6         20.9687  -28.9802  -41.5800 C.3       10 UNK        -0.0849 
      7 S7         22.2559  -28.8006  -42.8616 S.3       10 UNK        -0.2776 
      8 C8         22.3325  -30.4774  -43.5697 C.3       10 UNK         0.0316 
      9 C9         21.1405  -30.6976  -44.4822 C.ar      10 UNK        -0.0863 
     10 C10        20.0638  -31.4808  -44.0650 C.ar      10 UNK        -0.1009 
     11 C11        18.9023  -31.5605  -44.8396 C.ar      10 UNK        -0.0712 
     12 C12        18.8359  -30.8601  -46.0509 C.ar      10 UNK        -0.0894 
     13 C13        19.9257  -30.1012  -46.4951 C.ar      10 UNK        -0.0745 
     14 C14        21.0833  -30.0473  -45.7157 C.ar      10 UNK        -0.0972 
     15 C15        19.8607  -29.3447  -47.8167 C.3       10 UNK         0.0209 
     16 S16        19.2033  -27.6528  -47.6240 S.3       10 UNK        -0.2568 
     17 C17        20.6396  -26.7454  -46.9453 C.3       10 UNK        -0.0983 
     18 CA         20.2559  -25.4873  -46.1236 C.3       3 UNK         0.0876 
     19 N          19.2358  -25.7928  -45.1179 N.am      3 UNK        -0.4424 
     20 C          18.5472  -24.9062  -44.3860 C.2       2 UNK         0.4918 
     21 O          18.6084  -23.6875  -44.5467 O.2       2 UNK        -0.4875 
     22 CA         17.6709  -25.4812  -43.2530 C.3       2 UNK         0.0481 
     23 CB         16.1955  -25.5152  -43.6812 C.3       2 UNK        -0.1831 
     24 N          18.0783  -26.8236  -42.8130 N.am      2 UNK        -0.4498 
     25 C          19.2788  -27.1376  -42.2993 C.2       1 UNK         0.5027 
     26 O          20.1524  -26.3022  -42.0607 O.2       1 UNK        -0.4969 
     27 C          21.5299  -24.8533  -45.5105 C.2       3 UNK         0.5005 
     28 O          22.2862  -24.2151  -46.2439 O.2       3 UNK        -0.5279 
     29 N          21.7523  -25.0476  -44.1972 N.am      4 UNK        -0.4463 
     30 CA         22.8698  -24.5444  -43.3862 C.3       4 UNK         0.0283 
     31 CB         22.8550  -23.0023  -43.3204 C.3       4 UNK        -0.1875 
     32 C          24.2464  -25.1143  -43.7842 C.2       4 UNK         0.4949 
     33 O          25.2666  -24.4576  -43.5708 O.2       4 UNK        -0.5039 
     34 N          24.2592  -26.3330  -44.3403 N.am      5 UNK        -0.4663 
     35 CA         25.4751  -27.0562  -44.7266 C.3       5 UNK         0.0242 
     36 CB         25.1130  -28.0998  -45.7960 C.3       5 UNK        -0.1982 
     37 C          26.1793  -27.7291  -43.5330 C.2       5 UNK         0.5017 
     38 O          27.3888  -27.9529  -43.5926 O.2       5 UNK        -0.5012 
     39 N          25.4112  -28.0460  -42.4860 N.am      6 UNK        -0.4439 
     40 CA         25.8215  -28.7145  -41.2553 C.3       6 UNK         0.0297 
     41 CB         26.0720  -30.2178  -41.5176 C.3       6 UNK        -0.2006 
     42 C          24.7425  -28.4263  -40.1959 C.2       6 UNK         0.4892 
     43 O          24.3216  -27.2741  -40.0730 O.2       6 UNK        -0.5089 
     44 N          24.2929  -29.4573  -39.4724 N.am      7 UNK        -0.4243 
     45 CA         23.1799  -29.4102  -38.5297 C.3       7 UNK         0.0196 
     46 CB         23.7012  -29.1024  -37.1152 C.3       7 UNK        -0.2007 
     47 C          22.4620  -30.7640  -38.5728 C.2       7 UNK         0.5020 
     48 O          23.1388  -31.7909  -38.6656 O.2       7 UNK        -0.5147 
     49 N          21.1251  -30.7254  -38.4693 N.am      8 UNK        -0.4734 
     50 CA         20.1663  -31.8427  -38.4805 C.3       8 UNK         0.0238 
     51 CB         20.4741  -32.8554  -37.3583 C.3       8 UNK        -0.1912 
     52 C          20.0242  -32.5539  -39.8431 C.2       8 UNK         0.5038 
     53 O          20.9767  -32.6267  -40.6205 O.2       8 UNK        -0.5046 
     54 N          18.8231  -33.0940  -40.0884 N.am      9 UNK        -0.4200 
     55 CA         18.5020  -33.9573  -41.2409 C.3       9 UNK         0.0839 
     56 C          18.5848  -35.4773  -40.9120 C.2       9 UNK         0.5513 
     57 N          18.9292  -35.8844  -39.6957 N.am      9 UNK        -0.7519 
     58 O          18.3469  -36.3087  -41.7843 O.2       9 UNK        -0.4960 
     59 C59        17.1342  -33.5857  -41.8791 C.3       10 UNK        -0.0876 
     60 S60        17.1633  -31.9543  -42.6968 S.3       10 UNK        -0.2414 
     61 C61        17.7305  -32.4136  -44.3710 C.3       10 UNK         0.0169 
     62 H62        17.1965  -30.0000  -38.3513 H         1 UNK         0.0903 
     63 H63        16.1631  -28.9891  -39.3591 H         1 UNK         0.0903 
     64 H64        16.7006  -30.5655  -39.9469 H         1 UNK         0.0903 
     65 H65        17.8726  -29.8907  -41.7710 H         1 UNK         0.3096 
     66 H66        19.4237  -29.0839  -43.0645 H         1 UNK         0.1121 
     67 H67        21.0001  -30.0063  -41.2170 H         1 UNK         0.0849 
     68 H68        21.2374  -28.3524  -40.7305 H         1 UNK         0.0849 
     69 H69        23.2565  -30.5899  -44.1381 H         1 UNK         0.0865 
     70 H70        22.3693  -31.2220  -42.7723 H         1 UNK         0.0865 
     71 H71        20.1127  -31.9897  -43.1130 H         1 UNK         0.1346 
     72 H72        17.9393  -30.9095  -46.6536 H         1 UNK         0.1412 
     73 H73        21.9328  -29.4667  -46.0457 H         1 UNK         0.1426 
     74 H74        19.2227  -29.8875  -48.5157 H         1 UNK         0.0716 
     75 H75        20.8472  -29.3019  -48.2811 H         1 UNK         0.0716 
     76 H76        21.2868  -26.4698  -47.7803 H         1 UNK         0.0695 
     77 H77        21.2233  -27.4188  -46.3216 H         1 UNK         0.0695 
     78 H78        19.8287  -24.7497  -46.8065 H         1 UNK         0.0983 
     79 H79        19.0714  -26.7741  -44.9529 H         1 UNK         0.3095 
     80 H80        17.7644  -24.8109  -42.3963 H         1 UNK         0.0454 
     81 H81        15.8548  -24.5243  -43.9851 H         1 UNK         0.0851 
     82 H82        15.5509  -25.8391  -42.8640 H         1 UNK         0.0851 
     83 H83        16.0342  -26.1870  -44.5252 H         1 UNK         0.0851 
     84 H84        17.4078  -27.5658  -42.9543 H         1 UNK         0.2976 
     85 H85        21.0675  -25.5796  -43.6674 H         1 UNK         0.3116 
     86 H86        22.6846  -24.9122  -42.3757 H         1 UNK         0.0646 
     87 H87        23.1076  -22.5531  -44.2812 H         1 UNK         0.0847 
     88 H88        21.8763  -22.6276  -43.0209 H         1 UNK         0.0847 
     89 H89        23.5777  -22.6343  -42.5912 H         1 UNK         0.0847 
     90 H90        23.3780  -26.8095  -44.4682 H         1 UNK         0.3040 
     91 H91        26.1812  -26.3478  -45.1663 H         1 UNK         0.1015 
     92 H92        26.0001  -28.6400  -46.1297 H         1 UNK         0.0786 
     93 H93        24.6711  -27.6300  -46.6751 H         1 UNK         0.0786 
     94 H94        24.4056  -28.8378  -45.4180 H         1 UNK         0.0786 
     95 H95        24.4331  -27.7841  -42.5147 H         1 UNK         0.3172 
     96 H96        26.7478  -28.2575  -40.9022 H         1 UNK         0.0595 
     97 H97        26.8362  -30.3652  -42.2808 H         1 UNK         0.0839 
     98 H98        25.1681  -30.7257  -41.8572 H         1 UNK         0.0839 
     99 H99        26.4284  -30.7254  -40.6205 H         1 UNK         0.0839 
    100 H100       24.6447  -30.3890  -39.6542 H         1 UNK         0.2998 
    101 H101       22.4795  -28.6271  -38.8252 H         1 UNK         0.0822 
    102 H102       22.8825  -29.0739  -36.3951 H         1 UNK         0.0787 
    103 H103       24.4111  -29.8575  -36.7750 H         1 UNK         0.0787 
    104 H104       24.1995  -28.1335  -37.0792 H         1 UNK         0.0787 
    105 H105       20.6930  -29.8107  -38.4195 H         1 UNK         0.3055 
    106 H106       19.2019  -31.3900  -38.2499 H         1 UNK         0.1106 
    107 H107       20.5901  -32.3585  -36.3951 H         1 UNK         0.0828 
    108 H108       19.6664  -33.5797  -37.2497 H         1 UNK         0.0828 
    109 H109       21.3865  -33.4191  -37.5560 H         1 UNK         0.0828 
    110 H110       18.0940  -33.0105  -39.3953 H         1 UNK         0.2931 
    111 H111       19.2594  -33.8143  -42.0124 H         1 UNK         0.0412 
    112 H112       19.1512  -35.2216  -38.9718 H         1 UNK         0.3472 
    113 H113       18.9827  -36.8733  -39.5063 H         1 UNK         0.3472 
    114 H114       16.8192  -34.3290  -42.6141 H         1 UNK         0.0970 
    115 H115       16.3512  -33.5791  -41.1191 H         1 UNK         0.0970 
    116 H116       18.0435  -33.4580  -44.3957 H         1 UNK         0.0612 
    117 H117       16.8867  -32.3288  -45.0573 H         1 UNK         0.0612 
@<TRIPOS>BOND
     1    1    2 1    
     2    1   62 1    
     3    1   63 1    
     4    1   64 1    
     5    2    3 2    
     6    2    4 am   BACKBONE|DICT|INTERRES
     7    4    5 1    
     8    4   65 1    
     9    5    6 1    
    10    5   25 1    
    11    5   66 1    
    12    6    7 1    
    13    6   67 1    
    14    6   68 1    
    15    7    8 1    
    16    8    9 1    
    17    8   69 1    
    18    8   70 1    
    19    9   10 ar   
    20    9   14 ar   
    21   10   11 ar   
    22   10   71 1    
    23   11   12 ar   
    24   11   61 1    
    25   12   13 ar   
    26   12   72 1    
    27   13   14 ar   
    28   13   15 1    
    29   14   73 1    
    30   15   16 1    
    31   15   74 1    
    32   15   75 1    
    33   16   17 1    
    34   17   18 1    
    35   17   76 1    
    36   17   77 1    
    37   18   19 1    
    38   18   27 1    
    39   18   78 1    
    40   19   20 am   BACKBONE|DICT|INTERRES
    41   19   79 1    
    42   20   21 2    
    43   20   22 1    
    44   22   23 1    
    45   22   24 1    
    46   22   80 1    
    47   23   81 1    
    48   23   82 1    
    49   23   83 1    
    50   24   25 am   BACKBONE|DICT|INTERRES
    51   24   84 1    
    52   25   26 2    
    53   27   28 2    
    54   27   29 am   BACKBONE|DICT|INTERRES
    55   29   30 1    
    56   29   85 1    
    57   30   31 1    
    58   30   32 1    
    59   30   86 1    
    60   31   87 1    
    61   31   88 1    
    62   31   89 1    
    63   32   33 2    
    64   32   34 am   BACKBONE|DICT|INTERRES
    65   34   35 1    
    66   34   90 1    
    67   35   36 1    
    68   35   37 1    
    69   35   91 1    
    70   36   92 1    
    71   36   93 1    
    72   36   94 1    
    73   37   38 2    
    74   37   39 am   BACKBONE|DICT|INTERRES
    75   39   40 1    
    76   39   95 1    
    77   40   41 1    
    78   40   42 1    
    79   40   96 1    
    80   41   97 1    
    81   41   98 1    
    82   41   99 1    
    83   42   43 2    
    84   42   44 am   BACKBONE|DICT|INTERRES
    85   44   45 1    
    86   44  100 1    
    87   45   46 1    
    88   45   47 1    
    89   45  101 1    
    90   46  102 1    
    91   46  103 1    
    92   46  104 1    
    93   47   48 2    
    94   47   49 am   BACKBONE|DICT|INTERRES
    95   49   50 1    
    96   49  105 1    
    97   50   51 1    
    98   50   52 1    
    99   50  106 1    
   100   51  107 1    
   101   51  108 1    
   102   51  109 1    
   103   52   53 2    
   104   52   54 am   BACKBONE|DICT|INTERRES
   105   54   55 1    
   106   54  110 1    
   107   55   56 1    
   108   55   59 1    
   109   55  111 1    
   110   56   57 am   BACKBONE|DICT|INTERRES
   111   56   58 2    
   112   57  112 1    
   113   57  113 1    
   114   59   60 1    
   115   59  114 1    
   116   59  115 1    
   117   60   61 1    
   118   61  116 1    
   119   61  117 1    
@<TRIPOS>SUBSTRUCTURE
     1 UNK         1 GROUP             0       ****    0 ROOT    
