@<TRIPOS>MOLECULE
3R8
117   119    1
SMALL
USER_CHARGES


@<TRIPOS>ATOM
      1 CA         23.6635  -24.6507  -48.2906 C.3       0 UNK        -0.2013 
      2 C          23.0963  -25.0147  -46.9266 C.2       0 UNK         0.4866 
      3 O          23.4480  -24.3848  -45.9286 O.2       0 UNK        -0.5176 
      4 N          22.2282  -26.0318  -46.8743 N.am      1 UNK        -0.4884 
      5 CA         21.5226  -26.4706  -45.6676 C.3       1 UNK         0.0853 
      6 C6         20.9583  -27.9089  -45.8248 C.3       10 UNK        -0.0849 
      7 S7         19.9081  -28.1634  -47.2985 S.3       10 UNK        -0.2776 
      8 C8         19.5381  -29.9448  -47.1730 C.3       10 UNK         0.0316 
      9 C9         18.7341  -30.2936  -45.9257 C.ar      10 UNK        -0.0863 
     10 C10        19.2336  -31.2127  -44.9979 C.ar      10 UNK        -0.1009 
     11 C11        18.4965  -31.5431  -43.8560 C.ar      10 UNK        -0.0712 
     12 C12        17.2517  -30.9430  -43.6409 C.ar      10 UNK        -0.0894 
     13 C13        16.7423  -30.0211  -44.5607 C.ar      10 UNK        -0.0745 
     14 C14        17.4826  -29.7105  -45.7053 C.ar      10 UNK        -0.0972 
     15 C15        15.3899  -29.3621  -44.3318 C.3       10 UNK         0.0209 
     16 S16        15.5623  -27.6002  -43.9038 S.3       10 UNK        -0.2568 
     17 C17        16.0363  -27.6702  -42.1424 C.3       10 UNK        -0.0983 
     18 CA         17.5706  -27.6934  -41.9056 C.3       3 UNK         0.0876 
     19 N          18.3266  -26.6448  -42.6076 N.am      3 UNK        -0.4424 
     20 C          18.1980  -25.3121  -42.5293 C.2       2 UNK         0.4918 
     21 O          17.3674  -24.7499  -41.8143 O.2       2 UNK        -0.4875 
     22 CA         19.1946  -24.4596  -43.3373 C.3       2 UNK         0.0481 
     23 CB         19.8658  -23.4052  -42.4390 C.3       2 UNK        -0.1831 
     24 N          20.2403  -25.2871  -43.9470 N.am      2 UNK        -0.4498 
     25 C          20.4264  -25.4608  -45.2610 C.2       1 UNK         0.5027 
     26 O          19.7652  -24.8864  -46.1305 O.2       1 UNK        -0.4969 
     27 C          17.9020  -27.7553  -40.4001 C.2       3 UNK         0.5005 
     28 O          18.2072  -28.8330  -39.8891 O.2       3 UNK        -0.5279 
     29 N          17.8749  -26.5987  -39.7242 N.am      4 UNK        -0.4463 
     30 CA         18.3272  -26.4086  -38.3431 C.3       4 UNK         0.0283 
     31 CB         17.7813  -25.0716  -37.8169 C.3       4 UNK        -0.1875 
     32 C          19.8614  -26.4525  -38.2063 C.2       4 UNK         0.4949 
     33 O          20.3624  -26.7150  -37.1129 O.2       4 UNK        -0.5039 
     34 N          20.5738  -26.2037  -39.3108 N.am      5 UNK        -0.4663 
     35 CA         22.0200  -26.3196  -39.4476 C.3       5 UNK         0.0242 
     36 CB         22.6767  -24.9492  -39.2122 C.3       5 UNK        -0.1982 
     37 C          22.3106  -26.8364  -40.8602 C.2       5 UNK         0.5017 
     38 O          21.5721  -26.4936  -41.7888 O.2       5 UNK        -0.5012 
     39 N          23.3772  -27.6320  -40.9946 N.am      6 UNK        -0.4439 
     40 CA         23.8503  -28.2510  -42.2386 C.3       6 UNK         0.0297 
     41 CB         22.7569  -29.1014  -42.9204 C.3       6 UNK        -0.2006 
     42 C          25.0465  -29.1712  -41.9701 C.2       6 UNK         0.4892 
     43 O          25.9022  -29.3065  -42.8432 O.2       6 UNK        -0.5089 
     44 N          25.0383  -29.8514  -40.8104 N.am      7 UNK        -0.4243 
     45 CA         25.9394  -30.9320  -40.3679 C.3       7 UNK         0.0196 
     46 CB         27.4184  -30.4979  -40.3701 C.3       7 UNK        -0.2007 
     47 C          25.7411  -32.2578  -41.1299 C.2       7 UNK         0.5020 
     48 O          25.8287  -33.3236  -40.5197 O.2       7 UNK        -0.5147 
     49 N          25.4178  -32.1757  -42.4272 N.am      8 UNK        -0.4734 
     50 CA         25.0972  -33.2915  -43.3247 C.3       8 UNK         0.0238 
     51 CB         24.9139  -32.7411  -44.7489 C.3       8 UNK        -0.1912 
     52 C          23.8634  -34.1174  -42.9103 C.2       8 UNK         0.5038 
     53 O          23.7312  -35.2559  -43.3614 O.2       8 UNK        -0.5046 
     54 N          22.9954  -33.5450  -42.0644 N.am      9 UNK        -0.4200 
     55 CA         21.8384  -34.2209  -41.4561 C.3       9 UNK         0.0839 
     56 C          22.2115  -35.3463  -40.4456 C.2       9 UNK         0.5513 
     57 N          23.4410  -35.4149  -39.9455 N.am      9 UNK        -0.7519 
     58 O          21.3656  -36.1711  -40.1099 O.2       9 UNK        -0.4960 
     59 C59        20.8450  -33.2233  -40.7987 C.3       10 UNK        -0.0876 
     60 S60        20.3755  -31.8200  -41.8642 S.3       10 UNK        -0.2414 
     61 C61        19.0473  -32.5530  -42.8611 C.3       10 UNK         0.0169 
     62 H62        24.7494  -24.7404  -48.2817 H         1 UNK         0.0903 
     63 H63        23.2763  -25.2962  -49.0788 H         1 UNK         0.0903 
     64 H64        23.4083  -23.6210  -48.5398 H         1 UNK         0.0903 
     65 H65        21.9380  -26.4915  -47.7263 H         1 UNK         0.3096 
     66 H66        22.2557  -26.4949  -44.8570 H         1 UNK         0.1121 
     67 H67        21.7881  -28.6151  -45.8813 H         1 UNK         0.0849 
     68 H68        20.3854  -28.1953  -44.9413 H         1 UNK         0.0849 
     69 H69        20.4741  -30.5047  -47.2048 H         1 UNK         0.0865 
     70 H70        18.9706  -30.2492  -48.0534 H         1 UNK         0.0865 
     71 H71        20.1988  -31.6740  -45.1583 H         1 UNK         0.1346 
     72 H72        16.6822  -31.1903  -42.7554 H         1 UNK         0.1412 
     73 H73        17.0904  -28.9985  -46.4192 H         1 UNK         0.1426 
     74 H74        14.8227  -29.8798  -43.5568 H         1 UNK         0.0716 
     75 H75        14.7982  -29.4425  -45.2448 H         1 UNK         0.0716 
     76 H76        15.5691  -28.5449  -41.6863 H         1 UNK         0.0695 
     77 H77        15.5881  -26.8048  -41.6512 H         1 UNK         0.0695 
     78 H78        17.9482  -28.6264  -42.3242 H         1 UNK         0.0983 
     79 H79        19.0541  -26.9906  -43.2140 H         1 UNK         0.3095 
     80 H80        18.6167  -23.9392  -44.1031 H         1 UNK         0.0454 
     81 H81        20.5633  -22.7894  -43.0067 H         1 UNK         0.0851 
     82 H82        20.4180  -23.8654  -41.6190 H         1 UNK         0.0851 
     83 H83        19.1278  -22.7327  -41.9997 H         1 UNK         0.0851 
     84 H84        20.8454  -25.7706  -43.2825 H         1 UNK         0.2976 
     85 H85        17.6014  -25.7677  -40.2440 H         1 UNK         0.3116 
     86 H86        17.9161  -27.2143  -37.7312 H         1 UNK         0.0646 
     87 H87        18.0802  -24.9087  -36.7804 H         1 UNK         0.0847 
     88 H88        16.6918  -25.0484  -37.8456 H         1 UNK         0.0847 
     89 H89        18.1512  -24.2267  -38.3994 H         1 UNK         0.0847 
     90 H90        20.0859  -26.0547  -40.1836 H         1 UNK         0.3040 
     91 H91        22.4009  -27.0406  -38.7206 H         1 UNK         0.1015 
     92 H92        22.4611  -24.5744  -38.2113 H         1 UNK         0.0786 
     93 H93        22.3276  -24.2055  -39.9297 H         1 UNK         0.0786 
     94 H94        23.7614  -25.0124  -39.3080 H         1 UNK         0.0786 
     95 H95        23.9716  -27.7717  -40.1886 H         1 UNK         0.3172 
     96 H96        24.1694  -27.4571  -42.9166 H         1 UNK         0.0595 
     97 H97        22.4138  -29.8975  -42.2625 H         1 UNK         0.0839 
     98 H98        23.1330  -29.5716  -43.8301 H         1 UNK         0.0839 
     99 H99        21.8863  -28.5178  -43.2047 H         1 UNK         0.0839 
    100 H100       24.2363  -29.7172  -40.2107 H         1 UNK         0.2998 
    101 H101       25.6647  -31.1331  -39.3309 H         1 UNK         0.0822 
    102 H102       27.8002  -30.3391  -41.3789 H         1 UNK         0.0787 
    103 H103       27.5626  -29.5762  -39.8066 H         1 UNK         0.0787 
    104 H104       28.0450  -31.2619  -39.9080 H         1 UNK         0.0787 
    105 H105       25.4337  -31.2481  -42.8389 H         1 UNK         0.3055 
    106 H106       25.9511  -33.9723  -43.3217 H         1 UNK         0.1106 
    107 H107       24.7088  -33.5457  -45.4567 H         1 UNK         0.0828 
    108 H108       24.0822  -32.0376  -44.8053 H         1 UNK         0.0828 
    109 H109       25.8116  -32.2290  -45.0962 H         1 UNK         0.0828 
    110 H110       23.1743  -32.6018  -41.7578 H         1 UNK         0.2931 
    111 H111       21.3055  -34.7141  -42.2711 H         1 UNK         0.0412 
    112 H112       24.1487  -34.7413  -40.2098 H         1 UNK         0.3472 
    113 H113       23.6671  -36.1499  -39.2939 H         1 UNK         0.3472 
    114 H114       19.9370  -33.7404  -40.4820 H         1 UNK         0.0970 
    115 H115       21.2811  -32.8061  -39.8890 H         1 UNK         0.0970 
    116 H116       19.4322  -33.4214  -43.3976 H         1 UNK         0.0612 
    117 H117       18.2574  -32.9159  -42.2017 H         1 UNK         0.0612 
@<TRIPOS>BOND
     1    1    2 1    
     2    1   62 1    
     3    1   63 1    
     4    1   64 1    
     5    2    3 2    
     6    2    4 am   BACKBONE|DICT|INTERRES
     7    4    5 1    
     8    4   65 1    
     9    5    6 1    
    10    5   25 1    
    11    5   66 1    
    12    6    7 1    
    13    6   67 1    
    14    6   68 1    
    15    7    8 1    
    16    8    9 1    
    17    8   69 1    
    18    8   70 1    
    19    9   10 ar   
    20    9   14 ar   
    21   10   11 ar   
    22   10   71 1    
    23   11   12 ar   
    24   11   61 1    
    25   12   13 ar   
    26   12   72 1    
    27   13   14 ar   
    28   13   15 1    
    29   14   73 1    
    30   15   16 1    
    31   15   74 1    
    32   15   75 1    
    33   16   17 1    
    34   17   18 1    
    35   17   76 1    
    36   17   77 1    
    37   18   19 1    
    38   18   27 1    
    39   18   78 1    
    40   19   20 am   BACKBONE|DICT|INTERRES
    41   19   79 1    
    42   20   21 2    
    43   20   22 1    
    44   22   23 1    
    45   22   24 1    
    46   22   80 1    
    47   23   81 1    
    48   23   82 1    
    49   23   83 1    
    50   24   25 am   BACKBONE|DICT|INTERRES
    51   24   84 1    
    52   25   26 2    
    53   27   28 2    
    54   27   29 am   BACKBONE|DICT|INTERRES
    55   29   30 1    
    56   29   85 1    
    57   30   31 1    
    58   30   32 1    
    59   30   86 1    
    60   31   87 1    
    61   31   88 1    
    62   31   89 1    
    63   32   33 2    
    64   32   34 am   BACKBONE|DICT|INTERRES
    65   34   35 1    
    66   34   90 1    
    67   35   36 1    
    68   35   37 1    
    69   35   91 1    
    70   36   92 1    
    71   36   93 1    
    72   36   94 1    
    73   37   38 2    
    74   37   39 am   BACKBONE|DICT|INTERRES
    75   39   40 1    
    76   39   95 1    
    77   40   41 1    
    78   40   42 1    
    79   40   96 1    
    80   41   97 1    
    81   41   98 1    
    82   41   99 1    
    83   42   43 2    
    84   42   44 am   BACKBONE|DICT|INTERRES
    85   44   45 1    
    86   44  100 1    
    87   45   46 1    
    88   45   47 1    
    89   45  101 1    
    90   46  102 1    
    91   46  103 1    
    92   46  104 1    
    93   47   48 2    
    94   47   49 am   BACKBONE|DICT|INTERRES
    95   49   50 1    
    96   49  105 1    
    97   50   51 1    
    98   50   52 1    
    99   50  106 1    
   100   51  107 1    
   101   51  108 1    
   102   51  109 1    
   103   52   53 2    
   104   52   54 am   BACKBONE|DICT|INTERRES
   105   54   55 1    
   106   54  110 1    
   107   55   56 1    
   108   55   59 1    
   109   55  111 1    
   110   56   57 am   BACKBONE|DICT|INTERRES
   111   56   58 2    
   112   57  112 1    
   113   57  113 1    
   114   59   60 1    
   115   59  114 1    
   116   59  115 1    
   117   60   61 1    
   118   61  116 1    
   119   61  117 1    
@<TRIPOS>SUBSTRUCTURE
     1 UNK         1 GROUP             0       ****    0 ROOT    
