@<TRIPOS>MOLECULE
3R8
117   119    1
SMALL
USER_CHARGES


@<TRIPOS>ATOM
      1 CA         13.8179  -26.6011  -48.2157 C.3       0 UNK        -0.2013 
      2 C          14.9559  -27.4733  -47.7075 C.2       0 UNK         0.4866 
      3 O          15.6072  -28.1537  -48.5002 O.2       0 UNK        -0.5176 
      4 N          15.1990  -27.4607  -46.3905 N.am      1 UNK        -0.4884 
      5 CA         16.2700  -28.2139  -45.7244 C.3       1 UNK         0.0853 
      6 C6         16.0330  -28.3207  -44.1957 C.3       10 UNK        -0.0849 
      7 S7         15.8129  -26.7044  -43.3664 S.3       10 UNK        -0.2776 
      8 C8         15.5715  -27.2147  -41.6360 C.3       10 UNK         0.0316 
      9 C9         16.8480  -27.7800  -41.0312 C.ar      10 UNK        -0.0863 
     10 C10        16.9929  -29.1565  -40.8465 C.ar      10 UNK        -0.1009 
     11 C11        18.1684  -29.6841  -40.3025 C.ar      10 UNK        -0.0712 
     12 C12        19.2010  -28.8171  -39.9266 C.ar      10 UNK        -0.0894 
     13 C13        19.0619  -27.4350  -40.0969 C.ar      10 UNK        -0.0745 
     14 C14        17.8824  -26.9241  -40.6472 C.ar      10 UNK        -0.0972 
     15 C15        20.1679  -26.4858  -39.6566 C.3       10 UNK         0.0209 
     16 S16        21.5765  -26.4581  -40.8090 S.3       10 UNK        -0.2568 
     17 C17        20.8530  -25.7600  -42.3353 C.3       10 UNK        -0.0983 
     18 CA         21.1520  -26.6683  -43.5588 C.3       3 UNK         0.0876 
     19 N          20.2059  -26.5055  -44.6629 N.am      3 UNK        -0.4424 
     20 C          19.9550  -25.4028  -45.3790 C.2       2 UNK         0.4918 
     21 O          20.4479  -24.2990  -45.1480 O.2       2 UNK        -0.4875 
     22 CA         18.9732  -25.5403  -46.5604 C.3       2 UNK         0.0481 
     23 CB         19.7037  -26.0254  -47.8278 C.3       2 UNK        -0.1831 
     24 N          17.7764  -26.3494  -46.2838 N.am      2 UNK        -0.4498 
     25 C          17.6790  -27.6649  -46.0342 C.2       1 UNK         0.5027 
     26 O          18.6428  -28.4327  -46.0158 O.2       1 UNK        -0.4969 
     27 C          22.6028  -26.5416  -44.0696 C.2       3 UNK         0.5005 
     28 O          23.1924  -25.4597  -44.0109 O.2       3 UNK        -0.5279 
     29 N          23.1578  -27.6544  -44.5724 N.am      4 UNK        -0.4463 
     30 CA         24.5759  -27.7639  -44.9411 C.3       4 UNK         0.0283 
     31 CB         24.8024  -29.0684  -45.7215 C.3       4 UNK        -0.1875 
     32 C          25.4971  -27.6950  -43.7074 C.2       4 UNK         0.4949 
     33 O          26.5789  -27.1121  -43.7755 O.2       4 UNK        -0.5039 
     34 N          25.0113  -28.2630  -42.6012 N.am      5 UNK        -0.4663 
     35 CA         25.5308  -28.2287  -41.2400 C.3       5 UNK         0.0242 
     36 CB         26.8439  -29.0269  -41.1201 C.3       5 UNK        -0.1982 
     37 C          24.4305  -28.8371  -40.3620 C.2       5 UNK         0.5017 
     38 O          23.5612  -29.5360  -40.8908 O.2       5 UNK        -0.5012 
     39 N          24.4854  -28.6041  -39.0449 N.am      6 UNK        -0.4439 
     40 CA         23.4875  -29.1010  -38.0866 C.3       6 UNK         0.0297 
     41 CB         23.7938  -28.5481  -36.6858 C.3       6 UNK        -0.2006 
     42 C          23.3665  -30.6372  -38.0513 C.2       6 UNK         0.4892 
     43 O          22.2566  -31.1527  -37.9166 O.2       6 UNK        -0.5089 
     44 N          24.5040  -31.3308  -38.2004 N.am      7 UNK        -0.4243 
     45 CA         24.5776  -32.7909  -38.2887 C.3       7 UNK         0.0196 
     46 CB         25.9713  -33.2530  -37.8328 C.3       7 UNK        -0.2007 
     47 C          24.2762  -33.3223  -39.7015 C.2       7 UNK         0.5020 
     48 O          23.7835  -34.4435  -39.8264 O.2       7 UNK        -0.5147 
     49 N          24.5911  -32.5316  -40.7377 N.am      8 UNK        -0.4734 
     50 CA         24.3855  -32.8940  -42.1450 C.3       8 UNK         0.0238 
     51 CB         25.3365  -32.0778  -43.0340 C.3       8 UNK        -0.1912 
     52 C          22.9310  -32.7057  -42.6039 C.2       8 UNK         0.5038 
     53 O          22.4845  -33.4395  -43.4865 O.2       8 UNK        -0.5046 
     54 N          22.2263  -31.7449  -41.9926 N.am      9 UNK        -0.4200 
     55 CA         20.8416  -31.3618  -42.2842 C.3       9 UNK         0.0839 
     56 C          20.6943  -30.6106  -43.6408 C.2       9 UNK         0.5513 
     57 N          19.4850  -30.5002  -44.1681 N.am      9 UNK        -0.7519 
     58 O          21.6529  -30.0610  -44.1834 O.2       9 UNK        -0.4960 
     59 C59        19.8577  -32.5507  -42.0597 C.3       10 UNK        -0.0876 
     60 S60        18.1341  -32.0951  -41.6731 S.3       10 UNK        -0.2414 
     61 C61        18.2963  -31.1885  -40.0999 C.3       10 UNK         0.0169 
     62 H62        13.0698  -27.2149  -48.7167 H         1 UNK         0.0903 
     63 H63        13.3259  -26.0598  -47.4076 H         1 UNK         0.0903 
     64 H64        14.1954  -25.8716  -48.9318 H         1 UNK         0.0903 
     65 H65        14.6324  -26.8879  -45.7792 H         1 UNK         0.3096 
     66 H66        16.2511  -29.2296  -46.1270 H         1 UNK         0.1121 
     67 H67        15.1414  -28.9213  -44.0092 H         1 UNK         0.0849 
     68 H68        16.8555  -28.8592  -43.7202 H         1 UNK         0.0849 
     69 H69        15.2484  -26.3502  -41.0542 H         1 UNK         0.0865 
     70 H70        14.7576  -27.9394  -41.5792 H         1 UNK         0.0865 
     71 H71        16.1924  -29.8245  -41.1343 H         1 UNK         0.1346 
     72 H72        20.1111  -29.2134  -39.4963 H         1 UNK         0.1412 
     73 H73        17.7670  -25.8571  -40.7817 H         1 UNK         0.1426 
     74 H74        19.7841  -25.4712  -39.5389 H         1 UNK         0.0716 
     75 H75        20.5294  -26.7885  -38.6728 H         1 UNK         0.0716 
     76 H76        21.2229  -24.7435  -42.4796 H         1 UNK         0.0695 
     77 H77        19.7759  -25.6607  -42.2076 H         1 UNK         0.0695 
     78 H78        21.0108  -27.6965  -43.2258 H         1 UNK         0.0983 
     79 H79        19.7535  -27.3575  -44.9835 H         1 UNK         0.3095 
     80 H80        18.5971  -24.5375  -46.7695 H         1 UNK         0.0454 
     81 H81        20.5200  -25.3500  -48.0869 H         1 UNK         0.0851 
     82 H82        19.0300  -26.0626  -48.6837 H         1 UNK         0.0851 
     83 H83        20.1366  -27.0177  -47.6987 H         1 UNK         0.0851 
     84 H84        16.9138  -25.8256  -46.2301 H         1 UNK         0.2976 
     85 H85        22.6117  -28.5154  -44.5813 H         1 UNK         0.3116 
     86 H86        24.8281  -26.9258  -45.5942 H         1 UNK         0.0646 
     87 H87        24.2311  -29.0772  -46.6498 H         1 UNK         0.0847 
     88 H88        25.8537  -29.1885  -45.9867 H         1 UNK         0.0847 
     89 H89        24.5081  -29.9440  -45.1422 H         1 UNK         0.0847 
     90 H90        24.1027  -28.7111  -42.6493 H         1 UNK         0.3040 
     91 H91        25.6889  -27.1883  -40.9490 H         1 UNK         0.1015 
     92 H92        26.7129  -30.0733  -41.3930 H         1 UNK         0.0786 
     93 H93        27.2254  -29.0024  -40.0987 H         1 UNK         0.0786 
     94 H94        27.6239  -28.6131  -41.7590 H         1 UNK         0.0786 
     95 H95        25.2275  -28.0259  -38.6765 H         1 UNK         0.3172 
     96 H96        22.5171  -28.7080  -38.3983 H         1 UNK         0.0595 
     97 H97        24.7717  -28.8710  -36.3265 H         1 UNK         0.0839 
     98 H98        23.0522  -28.8894  -35.9619 H         1 UNK         0.0839 
     99 H99        23.7736  -27.4582  -36.6756 H         1 UNK         0.0839 
    100 H100       25.3705  -30.8195  -38.2840 H         1 UNK         0.2998 
    101 H101       23.8392  -33.2235  -37.6096 H         1 UNK         0.0822 
    102 H102       26.1762  -32.9432  -36.8077 H         1 UNK         0.0787 
    103 H103       26.0502  -34.3408  -37.8625 H         1 UNK         0.0787 
    104 H104       26.7607  -32.8519  -38.4699 H         1 UNK         0.0787 
    105 H105       24.9477  -31.6073  -40.5491 H         1 UNK         0.3055 
    106 H106       24.6316  -33.9512  -42.2709 H         1 UNK         0.1106 
    107 H107       26.3783  -32.2350  -42.7548 H         1 UNK         0.0828 
    108 H108       25.2355  -32.3689  -44.0804 H         1 UNK         0.0828 
    109 H109       25.1253  -31.0112  -42.9743 H         1 UNK         0.0828 
    110 H110       22.7203  -31.1167  -41.3646 H         1 UNK         0.2931 
    111 H111       20.6338  -30.6039  -41.5322 H         1 UNK         0.0412 
    112 H112       19.3476  -29.9588  -45.0137 H         1 UNK         0.3472 
    113 H113       18.6972  -30.9235  -43.7009 H         1 UNK         0.3472 
    114 H114       19.8519  -33.2081  -42.9308 H         1 UNK         0.0970 
    115 H115       20.2083  -33.1698  -41.2321 H         1 UNK         0.0970 
    116 H116       17.5042  -31.5176  -39.4262 H         1 UNK         0.0612 
    117 H117       19.2386  -31.4451  -39.6127 H         1 UNK         0.0612 
@<TRIPOS>BOND
     1    1    2 1    
     2    1   62 1    
     3    1   63 1    
     4    1   64 1    
     5    2    3 2    
     6    2    4 am   BACKBONE|DICT|INTERRES
     7    4    5 1    
     8    4   65 1    
     9    5    6 1    
    10    5   25 1    
    11    5   66 1    
    12    6    7 1    
    13    6   67 1    
    14    6   68 1    
    15    7    8 1    
    16    8    9 1    
    17    8   69 1    
    18    8   70 1    
    19    9   10 ar   
    20    9   14 ar   
    21   10   11 ar   
    22   10   71 1    
    23   11   12 ar   
    24   11   61 1    
    25   12   13 ar   
    26   12   72 1    
    27   13   14 ar   
    28   13   15 1    
    29   14   73 1    
    30   15   16 1    
    31   15   74 1    
    32   15   75 1    
    33   16   17 1    
    34   17   18 1    
    35   17   76 1    
    36   17   77 1    
    37   18   19 1    
    38   18   27 1    
    39   18   78 1    
    40   19   20 am   BACKBONE|DICT|INTERRES
    41   19   79 1    
    42   20   21 2    
    43   20   22 1    
    44   22   23 1    
    45   22   24 1    
    46   22   80 1    
    47   23   81 1    
    48   23   82 1    
    49   23   83 1    
    50   24   25 am   BACKBONE|DICT|INTERRES
    51   24   84 1    
    52   25   26 2    
    53   27   28 2    
    54   27   29 am   BACKBONE|DICT|INTERRES
    55   29   30 1    
    56   29   85 1    
    57   30   31 1    
    58   30   32 1    
    59   30   86 1    
    60   31   87 1    
    61   31   88 1    
    62   31   89 1    
    63   32   33 2    
    64   32   34 am   BACKBONE|DICT|INTERRES
    65   34   35 1    
    66   34   90 1    
    67   35   36 1    
    68   35   37 1    
    69   35   91 1    
    70   36   92 1    
    71   36   93 1    
    72   36   94 1    
    73   37   38 2    
    74   37   39 am   BACKBONE|DICT|INTERRES
    75   39   40 1    
    76   39   95 1    
    77   40   41 1    
    78   40   42 1    
    79   40   96 1    
    80   41   97 1    
    81   41   98 1    
    82   41   99 1    
    83   42   43 2    
    84   42   44 am   BACKBONE|DICT|INTERRES
    85   44   45 1    
    86   44  100 1    
    87   45   46 1    
    88   45   47 1    
    89   45  101 1    
    90   46  102 1    
    91   46  103 1    
    92   46  104 1    
    93   47   48 2    
    94   47   49 am   BACKBONE|DICT|INTERRES
    95   49   50 1    
    96   49  105 1    
    97   50   51 1    
    98   50   52 1    
    99   50  106 1    
   100   51  107 1    
   101   51  108 1    
   102   51  109 1    
   103   52   53 2    
   104   52   54 am   BACKBONE|DICT|INTERRES
   105   54   55 1    
   106   54  110 1    
   107   55   56 1    
   108   55   59 1    
   109   55  111 1    
   110   56   57 am   BACKBONE|DICT|INTERRES
   111   56   58 2    
   112   57  112 1    
   113   57  113 1    
   114   59   60 1    
   115   59  114 1    
   116   59  115 1    
   117   60   61 1    
   118   61  116 1    
   119   61  117 1    
@<TRIPOS>SUBSTRUCTURE
     1 UNK         1 GROUP             0       ****    0 ROOT    
