@<TRIPOS>MOLECULE
3R8
117   119    1
SMALL
USER_CHARGES


@<TRIPOS>ATOM
      1 CA         24.2755  -24.1870  -48.4186 C.3       0 UNK        -0.2013 
      2 C          23.5564  -24.9045  -47.2860 C.2       0 UNK         0.4866 
      3 O          23.7868  -24.5901  -46.1180 O.2       0 UNK        -0.5176 
      4 N          22.6925  -25.8720  -47.6198 N.am      1 UNK        -0.4884 
      5 CA         21.8652  -26.6147  -46.6649 C.3       1 UNK         0.0853 
      6 C6         21.3768  -27.9636  -47.2786 C.3       10 UNK        -0.0849 
      7 S7         19.8902  -28.7533  -46.5548 S.3       10 UNK        -0.2776 
      8 C8         20.5389  -29.3941  -44.9755 C.3       10 UNK         0.0316 
      9 C9         19.4956  -30.1178  -44.1259 C.ar      10 UNK        -0.0863 
     10 C10        19.8853  -31.2354  -43.3838 C.ar      10 UNK        -0.1009 
     11 C11        18.9715  -31.9139  -42.5708 C.ar      10 UNK        -0.0712 
     12 C12        17.6493  -31.4649  -42.5085 C.ar      10 UNK        -0.0894 
     13 C13        17.2324  -30.3552  -43.2502 C.ar      10 UNK        -0.0745 
     14 C14        18.1649  -29.6844  -44.0528 C.ar      10 UNK        -0.0972 
     15 C15        15.7581  -29.9494  -43.2185 C.3       10 UNK         0.0209 
     16 S16        15.4574  -28.1505  -43.2773 S.3       10 UNK        -0.2568 
     17 C17        15.9553  -27.6225  -41.6029 C.3       10 UNK        -0.0983 
     18 CA         17.4557  -27.2557  -41.5082 C.3       3 UNK         0.0876 
     19 N          17.8755  -26.3187  -42.5599 N.am      3 UNK        -0.4424 
     20 C          19.1488  -26.1173  -42.9096 C.2       2 UNK         0.4918 
     21 O          20.1080  -26.6306  -42.3265 O.2       2 UNK        -0.4875 
     22 CA         19.4068  -25.1805  -44.0912 C.3       2 UNK         0.0481 
     23 CB         19.7265  -23.7555  -43.6107 C.3       2 UNK        -0.1831 
     24 N          20.5440  -25.7339  -44.8103 N.am      2 UNK        -0.4498 
     25 C          20.7324  -25.7092  -46.1327 C.2       1 UNK         0.5027 
     26 O          20.0461  -25.0524  -46.9203 O.2       1 UNK        -0.4969 
     27 C          17.8178  -26.7620  -40.0929 C.2       3 UNK         0.5005 
     28 O          18.0147  -27.5846  -39.1984 O.2       3 UNK        -0.5279 
     29 N          17.9337  -25.4357  -39.9227 N.am      4 UNK        -0.4463 
     30 CA         18.4316  -24.7938  -38.7035 C.3       4 UNK         0.0283 
     31 CB         18.1030  -23.2927  -38.7436 C.3       4 UNK        -0.1875 
     32 C          19.9421  -25.0092  -38.4975 C.2       4 UNK         0.4949 
     33 O          20.3865  -25.0968  -37.3529 O.2       4 UNK        -0.5039 
     34 N          20.6986  -25.0961  -39.6019 N.am      5 UNK        -0.4663 
     35 CA         22.1264  -25.4213  -39.5981 C.3       5 UNK         0.0242 
     36 CB         22.7844  -24.8860  -40.8814 C.3       5 UNK        -0.1982 
     37 C          22.3637  -26.9330  -39.4541 C.2       5 UNK         0.5017 
     38 O          23.3079  -27.3252  -38.7685 O.2       5 UNK        -0.5012 
     39 N          21.4989  -27.7365  -40.0963 N.am      6 UNK        -0.4439 
     40 CA         21.5060  -29.2030  -40.1510 C.3       6 UNK         0.0297 
     41 CB         21.2094  -29.8067  -38.7622 C.3       6 UNK        -0.2006 
     42 C          22.8049  -29.7327  -40.7847 C.2       6 UNK         0.4892 
     43 O          23.5458  -30.4918  -40.1569 O.2       6 UNK        -0.5089 
     44 N          23.0762  -29.2601  -42.0094 N.am      7 UNK        -0.4243 
     45 CA         24.2759  -29.5701  -42.7862 C.3       7 UNK         0.0196 
     46 CB         24.3198  -28.6761  -44.0376 C.3       7 UNK        -0.2007 
     47 C          24.3457  -31.0593  -43.1647 C.2       7 UNK         0.5020 
     48 O          23.5212  -31.5236  -43.9551 O.2       7 UNK        -0.5147 
     49 N          25.3370  -31.7609  -42.5988 N.am      8 UNK        -0.4734 
     50 CA         25.6724  -33.1823  -42.7601 C.3       8 UNK         0.0238 
     51 CB         26.0551  -33.5153  -44.2172 C.3       8 UNK        -0.1912 
     52 C          24.6069  -34.1509  -42.2166 C.2       8 UNK         0.5038 
     53 O          24.9033  -34.9054  -41.2886 O.2       8 UNK        -0.5046 
     54 N          23.4068  -34.1185  -42.8073 N.am      9 UNK        -0.4200 
     55 CA         22.2694  -35.0163  -42.5450 C.3       9 UNK         0.0839 
     56 C          22.5913  -36.5179  -42.8288 C.2       9 UNK         0.5513 
     57 N          21.8225  -37.4573  -42.2924 N.am      9 UNK        -0.7519 
     58 O          23.5021  -36.8474  -43.5869 O.2       9 UNK        -0.4960 
     59 C59        21.6023  -34.7529  -41.1601 C.3       10 UNK        -0.0876 
     60 S60        21.0015  -33.0385  -40.9983 S.3       10 UNK        -0.2414 
     61 C61        19.3791  -33.1766  -41.8192 C.3       10 UNK         0.0169 
     62 H62        24.0445  -23.1224  -48.3942 H         1 UNK         0.0903 
     63 H63        25.3536  -24.3043  -48.3122 H         1 UNK         0.0903 
     64 H64        23.9873  -24.5742  -49.3957 H         1 UNK         0.0903 
     65 H65        22.5169  -26.0621  -48.5964 H         1 UNK         0.3096 
     66 H66        22.5047  -26.8659  -45.8161 H         1 UNK         0.1121 
     67 H67        21.1357  -27.8119  -48.3322 H         1 UNK         0.0849 
     68 H68        22.1944  -28.6863  -47.2741 H         1 UNK         0.0849 
     69 H69        20.9448  -28.5722  -44.3876 H         1 UNK         0.0865 
     70 H70        21.3716  -30.0645  -45.1958 H         1 UNK         0.0865 
     71 H71        20.9068  -31.5859  -43.4446 H         1 UNK         0.1346 
     72 H72        16.9325  -32.0021  -41.9022 H         1 UNK         0.1412 
     73 H73        17.8496  -28.8268  -44.6301 H         1 UNK         0.1426 
     74 H74        15.2639  -30.3569  -42.3351 H         1 UNK         0.0716 
     75 H75        15.2663  -30.4043  -44.0791 H         1 UNK         0.0716 
     76 H76        15.7073  -28.4124  -40.8912 H         1 UNK         0.0695 
     77 H77        15.3365  -26.7649  -41.3321 H         1 UNK         0.0695 
     78 H78        18.0262  -28.1760  -41.6509 H         1 UNK         0.0983 
     79 H79        17.1351  -25.8842  -43.0924 H         1 UNK         0.3095 
     80 H80        18.5261  -25.1679  -44.7370 H         1 UNK         0.0454 
     81 H81        19.9305  -23.0935  -44.4524 H         1 UNK         0.0851 
     82 H82        20.5970  -23.7346  -42.9539 H         1 UNK         0.0851 
     83 H83        18.8877  -23.3287  -43.0598 H         1 UNK         0.0851 
     84 H84        21.1444  -26.3012  -44.2270 H         1 UNK         0.2976 
     85 H85        17.7217  -24.8342  -40.7055 H         1 UNK         0.3116 
     86 H86        17.9131  -25.2340  -37.8488 H         1 UNK         0.0646 
     87 H87        18.4426  -22.7962  -37.8334 H         1 UNK         0.0847 
     88 H88        17.0290  -23.1225  -38.8205 H         1 UNK         0.0847 
     89 H89        18.5848  -22.7928  -39.5848 H         1 UNK         0.0847 
     90 H90        20.2484  -25.0356  -40.5029 H         1 UNK         0.3040 
     91 H91        22.5987  -24.9277  -38.7453 H         1 UNK         0.1015 
     92 H92        22.6550  -23.8075  -40.9729 H         1 UNK         0.0786 
     93 H93        22.3750  -25.3504  -41.7786 H         1 UNK         0.0786 
     94 H94        23.8573  -25.0831  -40.8771 H         1 UNK         0.0786 
     95 H95        20.8172  -27.2869  -40.7012 H         1 UNK         0.3172 
     96 H96        20.6911  -29.4945  -40.8162 H         1 UNK         0.0595 
     97 H97        21.9935  -29.5769  -38.0405 H         1 UNK         0.0839 
     98 H98        21.1307  -30.8926  -38.8194 H         1 UNK         0.0839 
     99 H99        20.2656  -29.4332  -38.3644 H         1 UNK         0.0839 
    100 H100       22.4085  -28.6343  -42.4324 H         1 UNK         0.2998 
    101 H101       25.1403  -29.3190  -42.1675 H         1 UNK         0.0822 
    102 H102       23.4887  -28.8800  -44.7118 H         1 UNK         0.0787 
    103 H103       24.2930  -27.6181  -43.7753 H         1 UNK         0.0787 
    104 H104       25.2385  -28.8455  -44.6006 H         1 UNK         0.0787 
    105 H105       25.9106  -31.2736  -41.9233 H         1 UNK         0.3055 
    106 H106       26.5655  -33.3432  -42.1533 H         1 UNK         0.1106 
    107 H107       26.3566  -34.5597  -44.3096 H         1 UNK         0.0828 
    108 H108       25.2285  -33.3571  -44.9102 H         1 UNK         0.0828 
    109 H109       26.8935  -32.9059  -44.5545 H         1 UNK         0.0828 
    110 H110       23.2626  -33.4023  -43.5119 H         1 UNK         0.2931 
    111 H111       21.5392  -34.7575  -43.3119 H         1 UNK         0.0412 
    112 H112       21.0478  -37.2263  -41.6914 H         1 UNK         0.3472 
    113 H113       22.0221  -38.4241  -42.4984 H         1 UNK         0.3472 
    114 H114       20.7546  -35.4168  -40.9879 H         1 UNK         0.0970 
    115 H115       22.3089  -34.9518  -40.3529 H         1 UNK         0.0970 
    116 H116       19.3923  -33.9979  -42.5362 H         1 UNK         0.0612 
    117 H117       18.6359  -33.4370  -41.0641 H         1 UNK         0.0612 
@<TRIPOS>BOND
     1    1    2 1    
     2    1   62 1    
     3    1   63 1    
     4    1   64 1    
     5    2    3 2    
     6    2    4 am   BACKBONE|DICT|INTERRES
     7    4    5 1    
     8    4   65 1    
     9    5    6 1    
    10    5   25 1    
    11    5   66 1    
    12    6    7 1    
    13    6   67 1    
    14    6   68 1    
    15    7    8 1    
    16    8    9 1    
    17    8   69 1    
    18    8   70 1    
    19    9   10 ar   
    20    9   14 ar   
    21   10   11 ar   
    22   10   71 1    
    23   11   12 ar   
    24   11   61 1    
    25   12   13 ar   
    26   12   72 1    
    27   13   14 ar   
    28   13   15 1    
    29   14   73 1    
    30   15   16 1    
    31   15   74 1    
    32   15   75 1    
    33   16   17 1    
    34   17   18 1    
    35   17   76 1    
    36   17   77 1    
    37   18   19 1    
    38   18   27 1    
    39   18   78 1    
    40   19   20 am   BACKBONE|DICT|INTERRES
    41   19   79 1    
    42   20   21 2    
    43   20   22 1    
    44   22   23 1    
    45   22   24 1    
    46   22   80 1    
    47   23   81 1    
    48   23   82 1    
    49   23   83 1    
    50   24   25 am   BACKBONE|DICT|INTERRES
    51   24   84 1    
    52   25   26 2    
    53   27   28 2    
    54   27   29 am   BACKBONE|DICT|INTERRES
    55   29   30 1    
    56   29   85 1    
    57   30   31 1    
    58   30   32 1    
    59   30   86 1    
    60   31   87 1    
    61   31   88 1    
    62   31   89 1    
    63   32   33 2    
    64   32   34 am   BACKBONE|DICT|INTERRES
    65   34   35 1    
    66   34   90 1    
    67   35   36 1    
    68   35   37 1    
    69   35   91 1    
    70   36   92 1    
    71   36   93 1    
    72   36   94 1    
    73   37   38 2    
    74   37   39 am   BACKBONE|DICT|INTERRES
    75   39   40 1    
    76   39   95 1    
    77   40   41 1    
    78   40   42 1    
    79   40   96 1    
    80   41   97 1    
    81   41   98 1    
    82   41   99 1    
    83   42   43 2    
    84   42   44 am   BACKBONE|DICT|INTERRES
    85   44   45 1    
    86   44  100 1    
    87   45   46 1    
    88   45   47 1    
    89   45  101 1    
    90   46  102 1    
    91   46  103 1    
    92   46  104 1    
    93   47   48 2    
    94   47   49 am   BACKBONE|DICT|INTERRES
    95   49   50 1    
    96   49  105 1    
    97   50   51 1    
    98   50   52 1    
    99   50  106 1    
   100   51  107 1    
   101   51  108 1    
   102   51  109 1    
   103   52   53 2    
   104   52   54 am   BACKBONE|DICT|INTERRES
   105   54   55 1    
   106   54  110 1    
   107   55   56 1    
   108   55   59 1    
   109   55  111 1    
   110   56   57 am   BACKBONE|DICT|INTERRES
   111   56   58 2    
   112   57  112 1    
   113   57  113 1    
   114   59   60 1    
   115   59  114 1    
   116   59  115 1    
   117   60   61 1    
   118   61  116 1    
   119   61  117 1    
@<TRIPOS>SUBSTRUCTURE
     1 UNK         1 GROUP             0       ****    0 ROOT    
