@<TRIPOS>MOLECULE
3R8
117   119    1
SMALL
USER_CHARGES


@<TRIPOS>ATOM
      1 CA         16.4828  -22.0549  -41.6802 C.3       0 UNK        -0.2013 
      2 C          16.6456  -22.9301  -42.9140 C.2       0 UNK         0.4866 
      3 O          16.2178  -22.5414  -44.0016 O.2       0 UNK        -0.5176 
      4 N          17.2519  -24.1127  -42.7527 N.am      1 UNK        -0.4884 
      5 CA         17.5370  -25.0631  -43.8325 C.3       1 UNK         0.0853 
      6 C6         17.9729  -26.4432  -43.2802 C.3       10 UNK        -0.0849 
      7 S7         16.6632  -27.2590  -42.3061 S.3       10 UNK        -0.2776 
      8 C8         16.2481  -28.6973  -43.3488 C.3       10 UNK         0.0316 
      9 C9         17.3997  -29.6908  -43.4396 C.ar      10 UNK        -0.0863 
     10 C10        17.7510  -30.4615  -42.3260 C.ar      10 UNK        -0.1009 
     11 C11        18.8124  -31.3671  -42.4003 C.ar      10 UNK        -0.0712 
     12 C12        19.5255  -31.4953  -43.5942 C.ar      10 UNK        -0.0894 
     13 C13        19.1850  -30.7378  -44.7161 C.ar      10 UNK        -0.0745 
     14 C14        18.1102  -29.8449  -44.6360 C.ar      10 UNK        -0.0972 
     15 C15        19.9740  -30.9203  -46.0086 C.3       10 UNK         0.0209 
     16 S16        20.4964  -29.3550  -46.7802 S.3       10 UNK        -0.2568 
     17 C17        21.4921  -28.5747  -45.4612 C.3       10 UNK        -0.0983 
     18 CA         21.9327  -27.1410  -45.8530 C.3       3 UNK         0.0876 
     19 N          20.7827  -26.3175  -46.2409 N.am      3 UNK        -0.4424 
     20 C          20.8165  -25.1834  -46.9524 C.2       2 UNK         0.4918 
     21 O          21.8419  -24.7062  -47.4374 O.2       2 UNK        -0.4875 
     22 CA         19.4764  -24.4374  -47.1158 C.3       2 UNK         0.0481 
     23 CB         18.8745  -24.7200  -48.5013 C.3       2 UNK        -0.1831 
     24 N          18.4847  -24.7648  -46.0796 N.am      2 UNK        -0.4498 
     25 C          18.6333  -24.5182  -44.7687 C.2       1 UNK         0.5027 
     26 O          19.6276  -23.9688  -44.2868 O.2       1 UNK        -0.4969 
     27 C          22.7906  -26.4891  -44.7405 C.2       3 UNK         0.5005 
     28 O          23.8713  -26.9993  -44.4455 O.2       3 UNK        -0.5279 
     29 N          22.3102  -25.3804  -44.1514 N.am      4 UNK        -0.4463 
     30 CA         22.9708  -24.4641  -43.2115 C.3       4 UNK         0.0283 
     31 CB         24.2863  -23.9107  -43.7963 C.3       4 UNK        -0.1875 
     32 C          23.1762  -24.9879  -41.7795 C.2       4 UNK         0.4949 
     33 O          23.3765  -24.1666  -40.8833 O.2       4 UNK        -0.5039 
     34 N          23.1096  -26.3044  -41.5581 N.am      5 UNK        -0.4663 
     35 CA         23.2450  -26.9284  -40.2449 C.3       5 UNK         0.0242 
     36 CB         24.7358  -27.1387  -39.9178 C.3       5 UNK        -0.1982 
     37 C          22.4982  -28.2633  -40.2244 C.2       5 UNK         0.5017 
     38 O          22.4225  -28.9400  -41.2526 O.2       5 UNK        -0.5012 
     39 N          22.0246  -28.6485  -39.0312 N.am      6 UNK        -0.4439 
     40 CA         21.3889  -29.9426  -38.7575 C.3       6 UNK         0.0297 
     41 CB         20.6855  -29.8876  -37.3923 C.3       6 UNK        -0.2006 
     42 C          22.3671  -31.1316  -38.8120 C.2       6 UNK         0.4892 
     43 O          21.9200  -32.2708  -38.9387 O.2       6 UNK        -0.5089 
     44 N          23.6791  -30.8529  -38.7587 N.am      7 UNK        -0.4243 
     45 CA         24.7725  -31.8187  -38.9133 C.3       7 UNK         0.0196 
     46 CB         26.1142  -31.0905  -38.7340 C.3       7 UNK        -0.2007 
     47 C          24.7507  -32.5809  -40.2519 C.2       7 UNK         0.5020 
     48 O          25.2657  -33.6968  -40.3161 O.2       7 UNK        -0.5147 
     49 N          24.1118  -32.0014  -41.2793 N.am      8 UNK        -0.4734 
     50 CA         23.8404  -32.6375  -42.5716 C.3       8 UNK         0.0238 
     51 CB         23.2643  -31.5830  -43.5310 C.3       8 UNK        -0.1912 
     52 C          22.9194  -33.8738  -42.4854 C.2       8 UNK         0.5038 
     53 O          22.9566  -34.7032  -43.3948 O.2       8 UNK        -0.5046 
     54 N          22.1378  -33.9900  -41.4022 N.am      9 UNK        -0.4200 
     55 CA         21.3408  -35.1773  -41.0547 C.3       9 UNK         0.0839 
     56 C          22.1345  -36.2309  -40.2259 C.2       9 UNK         0.5513 
     57 N          23.4020  -36.0187  -39.8886 N.am      9 UNK        -0.7519 
     58 O          21.5913  -37.2813  -39.8934 O.2       9 UNK        -0.4960 
     59 C59        20.0071  -34.7868  -40.3583 C.3       10 UNK        -0.0876 
     60 S60        18.8481  -33.9685  -41.5029 S.3       10 UNK        -0.2414 
     61 C61        19.2078  -32.2112  -41.2012 C.3       10 UNK         0.0169 
     62 H62        16.8931  -22.5272  -40.7878 H         1 UNK         0.0903 
     63 H63        16.9939  -21.1035  -41.8256 H         1 UNK         0.0903 
     64 H64        15.4274  -21.8513  -41.5010 H         1 UNK         0.0903 
     65 H65        17.5863  -24.3811  -41.8383 H         1 UNK         0.3096 
     66 H66        16.6207  -25.1926  -44.4133 H         1 UNK         0.1121 
     67 H67        18.2721  -27.1026  -44.0954 H         1 UNK         0.0849 
     68 H68        18.8548  -26.3432  -42.6438 H         1 UNK         0.0849 
     69 H69        15.9488  -28.3519  -44.3396 H         1 UNK         0.0865 
     70 H70        15.3761  -29.1991  -42.9267 H         1 UNK         0.0865 
     71 H71        17.2000  -30.3497  -41.4020 H         1 UNK         0.1346 
     72 H72        20.3382  -32.2061  -43.6491 H         1 UNK         0.1412 
     73 H73        17.8356  -29.2633  -45.5054 H         1 UNK         0.1426 
     74 H74        19.3560  -31.4706  -46.7190 H         1 UNK         0.0716 
     75 H75        20.8627  -31.5297  -45.8380 H         1 UNK         0.0716 
     76 H76        22.3612  -29.2066  -45.2695 H         1 UNK         0.0695 
     77 H77        20.9117  -28.5563  -44.5367 H         1 UNK         0.0695 
     78 H78        22.5839  -27.2215  -46.7264 H         1 UNK         0.0983 
     79 H79        19.8834  -26.6565  -45.9373 H         1 UNK         0.3095 
     80 H80        19.6878  -23.3684  -47.0463 H         1 UNK         0.0454 
     81 H81        18.6238  -25.7741  -48.6269 H         1 UNK         0.0851 
     82 H82        19.5776  -24.4570  -49.2930 H         1 UNK         0.0851 
     83 H83        17.9698  -24.1356  -48.6693 H         1 UNK         0.0851 
     84 H84        17.6407  -25.2200  -46.3985 H         1 UNK         0.2976 
     85 H85        21.3855  -25.0701  -44.4314 H         1 UNK         0.3116 
     86 H86        22.2841  -23.6211  -43.1183 H         1 UNK         0.0646 
     87 H87        24.6954  -23.1256  -43.1591 H         1 UNK         0.0847 
     88 H88        24.1308  -23.4768  -44.7841 H         1 UNK         0.0847 
     89 H89        25.0508  -24.6832  -43.8837 H         1 UNK         0.0847 
     90 H90        22.9589  -26.9386  -42.3343 H         1 UNK         0.3040 
     91 H91        22.7972  -26.2758  -39.4915 H         1 UNK         0.1015 
     92 H92        25.2770  -26.1924  -39.9040 H         1 UNK         0.0786 
     93 H93        25.2193  -27.7877  -40.6495 H         1 UNK         0.0786 
     94 H94        24.8659  -27.5955  -38.9361 H         1 UNK         0.0786 
     95 H95        22.1365  -28.0286  -38.2407 H         1 UNK         0.3172 
     96 H96        20.6298  -30.1105  -39.5239 H         1 UNK         0.0595 
     97 H97        21.3906  -29.7102  -36.5793 H         1 UNK         0.0839 
     98 H98        20.1744  -30.8279  -37.1797 H         1 UNK         0.0839 
     99 H99        19.9322  -29.1000  -37.3642 H         1 UNK         0.0839 
    100 H100       23.9472  -29.8878  -38.6405 H         1 UNK         0.2998 
    101 H101       24.6704  -32.5600  -38.1179 H         1 UNK         0.0822 
    102 H102       26.1846  -30.6216  -37.7522 H         1 UNK         0.0787 
    103 H103       26.9503  -31.7865  -38.8184 H         1 UNK         0.0787 
    104 H104       26.2575  -30.3161  -39.4888 H         1 UNK         0.0787 
    105 H105       23.7150  -31.0811  -41.1391 H         1 UNK         0.3055 
    106 H106       24.7931  -32.9850  -42.9774 H         1 UNK         0.1106 
    107 H107       22.9995  -32.0246  -44.4926 H         1 UNK         0.0828 
    108 H108       22.3693  -31.1121  -43.1237 H         1 UNK         0.0828 
    109 H109       23.9887  -30.7925  -43.7286 H         1 UNK         0.0828 
    110 H110       22.1876  -33.2785  -40.6811 H         1 UNK         0.2931 
    111 H111       21.0770  -35.6938  -41.9796 H         1 UNK         0.0412 
    112 H112       23.8904  -35.1731  -40.1595 H         1 UNK         0.3472 
    113 H113       23.8889  -36.7241  -39.3587 H         1 UNK         0.3472 
    114 H114       20.1843  -34.1581  -39.4847 H         1 UNK         0.0970 
    115 H115       19.4934  -35.6745  -39.9843 H         1 UNK         0.0970 
    116 H116       20.2728  -32.0717  -41.0238 H         1 UNK         0.0612 
    117 H117       18.6935  -31.8852  -40.2960 H         1 UNK         0.0612 
@<TRIPOS>BOND
     1    1    2 1    
     2    1   62 1    
     3    1   63 1    
     4    1   64 1    
     5    2    3 2    
     6    2    4 am   BACKBONE|DICT|INTERRES
     7    4    5 1    
     8    4   65 1    
     9    5    6 1    
    10    5   25 1    
    11    5   66 1    
    12    6    7 1    
    13    6   67 1    
    14    6   68 1    
    15    7    8 1    
    16    8    9 1    
    17    8   69 1    
    18    8   70 1    
    19    9   10 ar   
    20    9   14 ar   
    21   10   11 ar   
    22   10   71 1    
    23   11   12 ar   
    24   11   61 1    
    25   12   13 ar   
    26   12   72 1    
    27   13   14 ar   
    28   13   15 1    
    29   14   73 1    
    30   15   16 1    
    31   15   74 1    
    32   15   75 1    
    33   16   17 1    
    34   17   18 1    
    35   17   76 1    
    36   17   77 1    
    37   18   19 1    
    38   18   27 1    
    39   18   78 1    
    40   19   20 am   BACKBONE|DICT|INTERRES
    41   19   79 1    
    42   20   21 2    
    43   20   22 1    
    44   22   23 1    
    45   22   24 1    
    46   22   80 1    
    47   23   81 1    
    48   23   82 1    
    49   23   83 1    
    50   24   25 am   BACKBONE|DICT|INTERRES
    51   24   84 1    
    52   25   26 2    
    53   27   28 2    
    54   27   29 am   BACKBONE|DICT|INTERRES
    55   29   30 1    
    56   29   85 1    
    57   30   31 1    
    58   30   32 1    
    59   30   86 1    
    60   31   87 1    
    61   31   88 1    
    62   31   89 1    
    63   32   33 2    
    64   32   34 am   BACKBONE|DICT|INTERRES
    65   34   35 1    
    66   34   90 1    
    67   35   36 1    
    68   35   37 1    
    69   35   91 1    
    70   36   92 1    
    71   36   93 1    
    72   36   94 1    
    73   37   38 2    
    74   37   39 am   BACKBONE|DICT|INTERRES
    75   39   40 1    
    76   39   95 1    
    77   40   41 1    
    78   40   42 1    
    79   40   96 1    
    80   41   97 1    
    81   41   98 1    
    82   41   99 1    
    83   42   43 2    
    84   42   44 am   BACKBONE|DICT|INTERRES
    85   44   45 1    
    86   44  100 1    
    87   45   46 1    
    88   45   47 1    
    89   45  101 1    
    90   46  102 1    
    91   46  103 1    
    92   46  104 1    
    93   47   48 2    
    94   47   49 am   BACKBONE|DICT|INTERRES
    95   49   50 1    
    96   49  105 1    
    97   50   51 1    
    98   50   52 1    
    99   50  106 1    
   100   51  107 1    
   101   51  108 1    
   102   51  109 1    
   103   52   53 2    
   104   52   54 am   BACKBONE|DICT|INTERRES
   105   54   55 1    
   106   54  110 1    
   107   55   56 1    
   108   55   59 1    
   109   55  111 1    
   110   56   57 am   BACKBONE|DICT|INTERRES
   111   56   58 2    
   112   57  112 1    
   113   57  113 1    
   114   59   60 1    
   115   59  114 1    
   116   59  115 1    
   117   60   61 1    
   118   61  116 1    
   119   61  117 1    
@<TRIPOS>SUBSTRUCTURE
     1 UNK         1 GROUP             0       ****    0 ROOT    
