@<TRIPOS>MOLECULE
3R8
117   119    1
SMALL
USER_CHARGES


@<TRIPOS>ATOM
      1 CA         15.9831  -23.3155  -41.3265 C.3       0 UNK        -0.2013 
      2 C          16.5360  -23.9838  -42.5766 C.2       0 UNK         0.4866 
      3 O          16.0815  -23.6830  -43.6810 O.2       0 UNK        -0.5176 
      4 N          17.5139  -24.8791  -42.4061 N.am      1 UNK        -0.4884 
      5 CA         18.2179  -25.5921  -43.4749 C.3       1 UNK         0.0853 
      6 C6         17.8199  -27.0896  -43.5506 C.3       10 UNK        -0.0849 
      7 S7         16.0793  -27.3483  -44.0286 S.3       10 UNK        -0.2776 
      8 C8         15.6958  -28.9156  -43.1651 C.3       10 UNK         0.0316 
      9 C9         16.4554  -30.1563  -43.6485 C.ar      10 UNK        -0.0863 
     10 C10        16.3862  -31.3214  -42.8774 C.ar      10 UNK        -0.1009 
     11 C11        17.0414  -32.4899  -43.2790 C.ar      10 UNK        -0.0712 
     12 C12        17.7932  -32.4872  -44.4567 C.ar      10 UNK        -0.0894 
     13 C13        17.8955  -31.3278  -45.2284 C.ar      10 UNK        -0.0745 
     14 C14        17.1986  -30.1807  -44.8362 C.ar      10 UNK        -0.0972 
     15 C15        18.7318  -31.3235  -46.5021 C.3       10 UNK         0.0209 
     16 S16        19.8827  -29.9111  -46.5833 S.3       10 UNK        -0.2568 
     17 C17        21.2495  -30.4456  -45.4995 C.3       10 UNK        -0.0983 
     18 CA         22.3801  -29.3867  -45.5194 C.3       3 UNK         0.0876 
     19 N          21.9897  -28.1495  -44.8287 N.am      3 UNK        -0.4424 
     20 C          22.4866  -26.9373  -45.1109 C.2       2 UNK         0.4918 
     21 O          23.2661  -26.7133  -46.0378 O.2       2 UNK        -0.4875 
     22 CA         21.9848  -25.7880  -44.2258 C.3       2 UNK         0.0481 
     23 CB         22.5478  -24.4111  -44.6259 C.3       2 UNK        -0.1831 
     24 N          20.5239  -25.7662  -44.2609 N.am      2 UNK        -0.4498 
     25 C          19.7313  -25.4561  -43.2293 C.2       1 UNK         0.5027 
     26 O          20.1495  -25.1080  -42.1214 O.2       1 UNK        -0.4969 
     27 C          23.7257  -29.9373  -44.9971 C.2       3 UNK         0.5005 
     28 O          24.3867  -30.6863  -45.7188 O.2       3 UNK        -0.5279 
     29 N          24.1352  -29.5173  -43.7928 N.am      4 UNK        -0.4463 
     30 CA         25.5034  -29.6115  -43.2870 C.3       4 UNK         0.0283 
     31 CB         25.5413  -30.5810  -42.0897 C.3       4 UNK        -0.1875 
     32 C          25.9525  -28.1788  -42.9495 C.2       4 UNK         0.4949 
     33 O          25.7073  -27.2684  -43.7420 O.2       4 UNK        -0.5039 
     34 N          26.5493  -27.9730  -41.7675 N.am      5 UNK        -0.4663 
     35 CA         26.8103  -26.6419  -41.2011 C.3       5 UNK         0.0242 
     36 CB         27.8048  -26.7787  -40.0366 C.3       5 UNK        -0.1982 
     37 C          25.5240  -25.9287  -40.7320 C.2       5 UNK         0.5017 
     38 O          25.5333  -24.7099  -40.5579 O.2       5 UNK        -0.5012 
     39 N          24.4521  -26.7047  -40.5393 N.am      6 UNK        -0.4439 
     40 CA         23.1062  -26.2937  -40.1652 C.3       6 UNK         0.0297 
     41 CB         23.0459  -25.9912  -38.6525 C.3       6 UNK        -0.2006 
     42 C          22.1456  -27.4154  -40.5958 C.2       6 UNK         0.4892 
     43 O          22.5160  -28.2619  -41.4198 O.2       6 UNK        -0.5089 
     44 N          20.9391  -27.4289  -40.0162 N.am      7 UNK        -0.4243 
     45 CA         19.8766  -28.4141  -40.2411 C.3       7 UNK         0.0196 
     46 CB         18.5327  -27.7927  -39.8142 C.3       7 UNK        -0.2007 
     47 C          20.1418  -29.7669  -39.5438 C.2       7 UNK         0.5020 
     48 O          19.2411  -30.3248  -38.9166 O.2       7 UNK        -0.5147 
     49 N          21.3711  -30.2809  -39.6723 N.am      8 UNK        -0.4734 
     50 CA         21.7986  -31.5910  -39.1647 C.3       8 UNK         0.0238 
     51 CB         23.2681  -31.5037  -38.7187 C.3       8 UNK        -0.1912 
     52 C          21.5921  -32.7192  -40.1951 C.2       8 UNK         0.5038 
     53 O          21.9766  -33.8577  -39.9257 O.2       8 UNK        -0.5046 
     54 N          20.9987  -32.3812  -41.3477 N.am      9 UNK        -0.4200 
     55 CA         20.6397  -33.2708  -42.4634 C.3       9 UNK         0.0839 
     56 C          21.8413  -33.7830  -43.3102 C.2       9 UNK         0.5513 
     57 N          23.0352  -33.2235  -43.1652 N.am      9 UNK        -0.7519 
     58 O          21.6823  -34.6744  -44.1399 O.2       9 UNK        -0.4960 
     59 C59        19.6573  -34.4122  -42.0652 C.3       10 UNK        -0.0876 
     60 S60        18.1869  -33.8350  -41.1438 S.3       10 UNK        -0.2414 
     61 C61        16.9195  -33.7573  -42.4463 C.3       10 UNK         0.0169 
     62 H62        14.9144  -23.5100  -41.2396 H         1 UNK         0.0903 
     63 H63        16.4678  -23.6791  -40.4205 H         1 UNK         0.0903 
     64 H64        16.1302  -22.2371  -41.3808 H         1 UNK         0.0903 
     65 H65        17.9200  -25.0089  -41.4892 H         1 UNK         0.3096 
     66 H66        18.0083  -25.1196  -44.4376 H         1 UNK         0.1121 
     67 H67        18.4365  -27.6162  -44.2810 H         1 UNK         0.0849 
     68 H68        18.0011  -27.5819  -42.5956 H         1 UNK         0.0849 
     69 H69        15.8730  -28.7741  -42.0977 H         1 UNK         0.0865 
     70 H70        14.6275  -29.1074  -43.2735 H         1 UNK         0.0865 
     71 H71        15.8097  -31.3245  -41.9620 H         1 UNK         0.1346 
     72 H72        18.3043  -33.3882  -44.7676 H         1 UNK         0.1412 
     73 H73        17.2539  -29.3061  -45.4672 H         1 UNK         0.1426 
     74 H74        18.0568  -31.2716  -47.3572 H         1 UNK         0.0716 
     75 H75        19.2953  -32.2518  -46.6091 H         1 UNK         0.0716 
     76 H76        21.6094  -31.4105  -45.8624 H         1 UNK         0.0695 
     77 H77        20.8762  -30.6086  -44.4872 H         1 UNK         0.0695 
     78 H78        22.5701  -29.1392  -46.5669 H         1 UNK         0.0983 
     79 H79        21.3412  -28.2445  -44.0613 H         1 UNK         0.3095 
     80 H80        22.3284  -26.0101  -43.2144 H         1 UNK         0.0454 
     81 H81        23.6383  -24.4142  -44.5994 H         1 UNK         0.0851 
     82 H82        22.2108  -23.6319  -43.9423 H         1 UNK         0.0851 
     83 H83        22.2438  -24.1285  -45.6343 H         1 UNK         0.0851 
     84 H84        20.1068  -26.0546  -45.1365 H         1 UNK         0.2976 
     85 H85        23.5281  -28.8922  -43.2748 H         1 UNK         0.3116 
     86 H86        26.1800  -29.9817  -44.0600 H         1 UNK         0.0646 
     87 H87        26.5556  -30.7110  -41.7106 H         1 UNK         0.0847 
     88 H88        25.1900  -31.5705  -42.3780 H         1 UNK         0.0847 
     89 H89        24.9147  -30.2287  -41.2713 H         1 UNK         0.0847 
     90 H90        26.7482  -28.7673  -41.1758 H         1 UNK         0.3040 
     91 H91        27.2660  -26.0172  -41.9730 H         1 UNK         0.1015 
     92 H92        28.0445  -25.8026  -39.6120 H         1 UNK         0.0786 
     93 H93        28.7432  -27.2252  -40.3660 H         1 UNK         0.0786 
     94 H94        27.4027  -27.3941  -39.2307 H         1 UNK         0.0786 
     95 H95        24.5243  -27.6841  -40.7793 H         1 UNK         0.3172 
     96 H96        22.8400  -25.3970  -40.7284 H         1 UNK         0.0595 
     97 H97        23.2139  -26.8886  -38.0552 H         1 UNK         0.0839 
     98 H98        22.0802  -25.5754  -38.3640 H         1 UNK         0.0839 
     99 H99        23.7981  -25.2572  -38.3633 H         1 UNK         0.0839 
    100 H100       20.7332  -26.7064  -39.3420 H         1 UNK         0.2998 
    101 H101       19.8259  -28.6181  -41.3124 H         1 UNK         0.0822 
    102 H102       18.3596  -26.8366  -40.3064 H         1 UNK         0.0787 
    103 H103       18.4920  -27.6236  -38.7374 H         1 UNK         0.0787 
    104 H104       17.6984  -28.4459  -40.0740 H         1 UNK         0.0787 
    105 H105       22.0398  -29.7538  -40.2259 H         1 UNK         0.3055 
    106 H106       21.1988  -31.8518  -38.2896 H         1 UNK         0.1106 
    107 H107       23.9385  -31.3427  -39.5606 H         1 UNK         0.0828 
    108 H108       23.4208  -30.6944  -38.0045 H         1 UNK         0.0828 
    109 H109       23.5819  -32.4269  -38.2298 H         1 UNK         0.0828 
    110 H110       20.7275  -31.4169  -41.4598 H         1 UNK         0.2931 
    111 H111       20.1059  -32.6167  -43.1491 H         1 UNK         0.0412 
    112 H112       23.1750  -32.4929  -42.4883 H         1 UNK         0.3472 
    113 H113       23.8032  -33.5484  -43.7310 H         1 UNK         0.3472 
    114 H114       19.3270  -34.9581  -42.9503 H         1 UNK         0.0970 
    115 H115       20.1712  -35.1484  -41.4453 H         1 UNK         0.0970 
    116 H116       15.9366  -33.7891  -41.9738 H         1 UNK         0.0612 
    117 H117       16.9762  -34.6438  -43.0796 H         1 UNK         0.0612 
@<TRIPOS>BOND
     1    1    2 1    
     2    1   62 1    
     3    1   63 1    
     4    1   64 1    
     5    2    3 2    
     6    2    4 am   BACKBONE|DICT|INTERRES
     7    4    5 1    
     8    4   65 1    
     9    5    6 1    
    10    5   25 1    
    11    5   66 1    
    12    6    7 1    
    13    6   67 1    
    14    6   68 1    
    15    7    8 1    
    16    8    9 1    
    17    8   69 1    
    18    8   70 1    
    19    9   10 ar   
    20    9   14 ar   
    21   10   11 ar   
    22   10   71 1    
    23   11   12 ar   
    24   11   61 1    
    25   12   13 ar   
    26   12   72 1    
    27   13   14 ar   
    28   13   15 1    
    29   14   73 1    
    30   15   16 1    
    31   15   74 1    
    32   15   75 1    
    33   16   17 1    
    34   17   18 1    
    35   17   76 1    
    36   17   77 1    
    37   18   19 1    
    38   18   27 1    
    39   18   78 1    
    40   19   20 am   BACKBONE|DICT|INTERRES
    41   19   79 1    
    42   20   21 2    
    43   20   22 1    
    44   22   23 1    
    45   22   24 1    
    46   22   80 1    
    47   23   81 1    
    48   23   82 1    
    49   23   83 1    
    50   24   25 am   BACKBONE|DICT|INTERRES
    51   24   84 1    
    52   25   26 2    
    53   27   28 2    
    54   27   29 am   BACKBONE|DICT|INTERRES
    55   29   30 1    
    56   29   85 1    
    57   30   31 1    
    58   30   32 1    
    59   30   86 1    
    60   31   87 1    
    61   31   88 1    
    62   31   89 1    
    63   32   33 2    
    64   32   34 am   BACKBONE|DICT|INTERRES
    65   34   35 1    
    66   34   90 1    
    67   35   36 1    
    68   35   37 1    
    69   35   91 1    
    70   36   92 1    
    71   36   93 1    
    72   36   94 1    
    73   37   38 2    
    74   37   39 am   BACKBONE|DICT|INTERRES
    75   39   40 1    
    76   39   95 1    
    77   40   41 1    
    78   40   42 1    
    79   40   96 1    
    80   41   97 1    
    81   41   98 1    
    82   41   99 1    
    83   42   43 2    
    84   42   44 am   BACKBONE|DICT|INTERRES
    85   44   45 1    
    86   44  100 1    
    87   45   46 1    
    88   45   47 1    
    89   45  101 1    
    90   46  102 1    
    91   46  103 1    
    92   46  104 1    
    93   47   48 2    
    94   47   49 am   BACKBONE|DICT|INTERRES
    95   49   50 1    
    96   49  105 1    
    97   50   51 1    
    98   50   52 1    
    99   50  106 1    
   100   51  107 1    
   101   51  108 1    
   102   51  109 1    
   103   52   53 2    
   104   52   54 am   BACKBONE|DICT|INTERRES
   105   54   55 1    
   106   54  110 1    
   107   55   56 1    
   108   55   59 1    
   109   55  111 1    
   110   56   57 am   BACKBONE|DICT|INTERRES
   111   56   58 2    
   112   57  112 1    
   113   57  113 1    
   114   59   60 1    
   115   59  114 1    
   116   59  115 1    
   117   60   61 1    
   118   61  116 1    
   119   61  117 1    
@<TRIPOS>SUBSTRUCTURE
     1 UNK         1 GROUP             0       ****    0 ROOT    
