@<TRIPOS>MOLECULE
3R8
117   119    1
SMALL
USER_CHARGES


@<TRIPOS>ATOM
      1 CA         15.7721  -23.9942  -42.2280 C.3       0 UNK        -0.2013 
      2 C          16.4791  -25.2448  -42.7272 C.2       0 UNK         0.4866 
      3 O          17.2836  -25.1648  -43.6561 O.2       0 UNK        -0.5176 
      4 N          16.1922  -26.4011  -42.1158 N.am      1 UNK        -0.4884 
      5 CA         16.7694  -27.7089  -42.4513 C.3       1 UNK         0.0853 
      6 C6         15.8390  -28.8710  -42.0206 C.3       10 UNK        -0.0849 
      7 S7         14.3498  -28.9188  -43.0772 S.3       10 UNK        -0.2776 
      8 C8         14.7123  -30.3022  -44.2130 C.3       10 UNK         0.0316 
      9 C9         16.0867  -30.1927  -44.8645 C.ar      10 UNK        -0.0863 
     10 C10        17.1112  -31.0622  -44.4788 C.ar      10 UNK        -0.1009 
     11 C11        18.3832  -30.9615  -45.0478 C.ar      10 UNK        -0.0712 
     12 C12        18.6177  -30.0007  -46.0342 C.ar      10 UNK        -0.0894 
     13 C13        17.6015  -29.1293  -46.4393 C.ar      10 UNK        -0.0745 
     14 C14        16.3367  -29.2302  -45.8484 C.ar      10 UNK        -0.0972 
     15 C15        17.8535  -28.1048  -47.5386 C.3       10 UNK         0.0209 
     16 S16        18.7232  -26.6230  -46.9299 S.3       10 UNK        -0.2568 
     17 C17        20.4747  -27.0991  -47.1395 C.3       10 UNK        -0.0983 
     18 CA         21.3807  -26.6365  -45.9703 C.3       3 UNK         0.0876 
     19 N          20.8869  -27.0632  -44.6610 N.am      3 UNK        -0.4424 
     20 C          21.2334  -26.4920  -43.4996 C.2       2 UNK         0.4918 
     21 O          21.9915  -25.5242  -43.4164 O.2       2 UNK        -0.4875 
     22 CA         20.5512  -27.0542  -42.2438 C.3       2 UNK         0.0481 
     23 CB         20.8641  -26.2482  -40.9667 C.3       2 UNK        -0.1831 
     24 N          19.1148  -27.0750  -42.4949 N.am      2 UNK        -0.4498 
     25 C          18.2007  -27.8391  -41.8932 C.2       1 UNK         0.5027 
     26 O          18.4417  -28.5887  -40.9461 O.2       1 UNK        -0.4969 
     27 C          22.8208  -27.1500  -46.1468 C.2       3 UNK         0.5005 
     28 O          23.0137  -28.3622  -46.2700 O.2       3 UNK        -0.5279 
     29 N          23.7997  -26.2339  -46.1125 N.am      4 UNK        -0.4463 
     30 CA         25.2561  -26.4370  -46.1935 C.3       4 UNK         0.0283 
     31 CB         25.6683  -27.1001  -47.5227 C.3       4 UNK        -0.1875 
     32 C          25.8704  -27.1776  -44.9890 C.2       4 UNK         0.4949 
     33 O          26.9034  -26.7406  -44.4807 O.2       4 UNK        -0.5039 
     34 N          25.2361  -28.2698  -44.5485 N.am      5 UNK        -0.4663 
     35 CA         25.5851  -29.0290  -43.3489 C.3       5 UNK         0.0242 
     36 CB         24.8048  -30.3533  -43.3538 C.3       5 UNK        -0.1982 
     37 C          25.2673  -28.2295  -42.0758 C.2       5 UNK         0.5017 
     38 O          24.2281  -27.5682  -42.0152 O.2       5 UNK        -0.5012 
     39 N          26.1346  -28.3413  -41.0616 N.am      6 UNK        -0.4439 
     40 CA         26.0318  -27.6485  -39.7717 C.3       6 UNK         0.0297 
     41 CB         27.4272  -27.6022  -39.1206 C.3       6 UNK        -0.2006 
     42 C          24.9666  -28.2722  -38.8459 C.2       6 UNK         0.4892 
     43 O          25.2942  -28.7350  -37.7521 O.2       6 UNK        -0.5089 
     44 N          23.7138  -28.2877  -39.3231 N.am      7 UNK        -0.4243 
     45 CA         22.5091  -28.8292  -38.6793 C.3       7 UNK         0.0196 
     46 CB         22.1332  -27.9983  -37.4344 C.3       7 UNK        -0.2007 
     47 C          22.5859  -30.3429  -38.3916 C.2       7 UNK         0.5020 
     48 O          21.9677  -30.8220  -37.4405 O.2       7 UNK        -0.5147 
     49 N          23.3252  -31.0781  -39.2348 N.am      8 UNK        -0.4734 
     50 CA         23.4654  -32.5382  -39.1683 C.3       8 UNK         0.0238 
     51 CB         24.7486  -32.9519  -39.9081 C.3       8 UNK        -0.1912 
     52 C          22.2470  -33.2933  -39.7348 C.2       8 UNK         0.5038 
     53 O          22.1464  -34.5046  -39.5348 O.2       8 UNK        -0.5046 
     54 N          21.3674  -32.5730  -40.4425 N.am      9 UNK        -0.4200 
     55 CA         20.1085  -33.0468  -41.0301 C.3       9 UNK         0.0839 
     56 C          19.1436  -33.6723  -39.9851 C.2       9 UNK         0.5513 
     57 N          18.4597  -34.7510  -40.3411 N.am      9 UNK        -0.7519 
     58 O          18.9744  -33.1608  -38.8804 O.2       9 UNK        -0.4960 
     59 C59        19.3984  -31.8986  -41.7904 C.3       10 UNK        -0.0876 
     60 S60        20.3998  -31.2397  -43.1697 S.3       10 UNK        -0.2414 
     61 C61        19.5058  -31.8941  -44.6147 C.3       10 UNK         0.0169 
     62 H62        15.0867  -24.2116  -41.4090 H         1 UNK         0.0903 
     63 H63        16.5024  -23.2663  -41.8755 H         1 UNK         0.0903 
     64 H64        15.2006  -23.5394  -43.0367 H         1 UNK         0.0903 
     65 H65        15.5324  -26.4040  -41.3509 H         1 UNK         0.3096 
     66 H66        16.8749  -27.7625  -43.5370 H         1 UNK         0.1121 
     67 H67        16.3490  -29.8339  -42.0763 H         1 UNK         0.0849 
     68 H68        15.5352  -28.7582  -40.9785 H         1 UNK         0.0849 
     69 H69        13.9466  -30.3324  -44.9895 H         1 UNK         0.0865 
     70 H70        14.6205  -31.2406  -43.6637 H         1 UNK         0.0865 
     71 H71        16.9150  -31.8158  -43.7302 H         1 UNK         0.1346 
     72 H72        19.5949  -29.9460  -46.4898 H         1 UNK         0.1412 
     73 H73        15.5440  -28.5591  -46.1512 H         1 UNK         0.1426 
     74 H74        18.4151  -28.5601  -48.3558 H         1 UNK         0.0716 
     75 H75        16.9043  -27.7874  -47.9729 H         1 UNK         0.0716 
     76 H76        20.5479  -28.1761  -47.2817 H         1 UNK         0.0695 
     77 H77        20.8246  -26.6579  -48.0745 H         1 UNK         0.0695 
     78 H78        21.3923  -25.5441  -45.9865 H         1 UNK         0.0983 
     79 H79        20.2612  -27.8553  -44.6552 H         1 UNK         0.3095 
     80 H80        20.9069  -28.0782  -42.1114 H         1 UNK         0.0454 
     81 H81        20.5205  -25.2167  -41.0507 H         1 UNK         0.0851 
     82 H82        20.3902  -26.6869  -40.0890 H         1 UNK         0.0851 
     83 H83        21.9376  -26.2204  -40.7765 H         1 UNK         0.0851 
     84 H84        18.7816  -26.4307  -43.2087 H         1 UNK         0.2976 
     85 H85        23.5243  -25.2769  -45.9347 H         1 UNK         0.3116 
     86 H86        25.6862  -25.4339  -46.1889 H         1 UNK         0.0646 
     87 H87        26.7544  -27.1449  -47.6123 H         1 UNK         0.0847 
     88 H88        25.2961  -26.5382  -48.3792 H         1 UNK         0.0847 
     89 H89        25.2973  -28.1220  -47.6048 H         1 UNK         0.0847 
     90 H90        24.3820  -28.5325  -45.0353 H         1 UNK         0.3040 
     91 H91        26.6552  -29.2458  -43.3814 H         1 UNK         0.1015 
     92 H92        25.0233  -30.9395  -44.2467 H         1 UNK         0.0786 
     93 H93        23.7264  -30.1882  -43.3187 H         1 UNK         0.0786 
     94 H94        25.0721  -30.9654  -42.4928 H         1 UNK         0.0786 
     95 H95        26.9399  -28.9398  -41.1794 H         1 UNK         0.3172 
     96 H96        25.7245  -26.6172  -39.9592 H         1 UNK         0.0595 
     97 H97        27.3997  -27.0568  -38.1761 H         1 UNK         0.0839 
     98 H98        28.1488  -27.0955  -39.7617 H         1 UNK         0.0839 
     99 H99        27.8090  -28.6017  -38.9081 H         1 UNK         0.0839 
    100 H100       23.5923  -27.9159  -40.2628 H         1 UNK         0.2998 
    101 H101       21.7023  -28.7126  -39.4042 H         1 UNK         0.0822 
    102 H102       21.1658  -28.3055  -37.0352 H         1 UNK         0.0787 
    103 H103       22.8662  -28.1132  -36.6353 H         1 UNK         0.0787 
    104 H104       22.0599  -26.9374  -37.6736 H         1 UNK         0.0787 
    105 H105       23.8176  -30.6034  -39.9770 H         1 UNK         0.3055 
    106 H106       23.5660  -32.8297  -38.1201 H         1 UNK         0.1106 
    107 H107       24.9333  -34.0212  -39.7957 H         1 UNK         0.0828 
    108 H108       24.6837  -32.7476  -40.9767 H         1 UNK         0.0828 
    109 H109       25.6224  -32.4319  -39.5147 H         1 UNK         0.0828 
    110 H110       21.5515  -31.5883  -40.5506 H         1 UNK         0.2931 
    111 H111       20.3727  -33.8224  -41.7520 H         1 UNK         0.0412 
    112 H112       17.8153  -35.1620  -39.6834 H         1 UNK         0.3472 
    113 H113       18.5856  -35.1736  -41.2481 H         1 UNK         0.3472 
    114 H114       19.1729  -31.0782  -41.1077 H         1 UNK         0.0970 
    115 H115       18.4355  -32.2389  -42.1690 H         1 UNK         0.0970 
    116 H116       20.2178  -32.0206  -45.4317 H         1 UNK         0.0612 
    117 H117       19.1169  -32.8904  -44.3988 H         1 UNK         0.0612 
@<TRIPOS>BOND
     1    1    2 1    
     2    1   62 1    
     3    1   63 1    
     4    1   64 1    
     5    2    3 2    
     6    2    4 am   BACKBONE|DICT|INTERRES
     7    4    5 1    
     8    4   65 1    
     9    5    6 1    
    10    5   25 1    
    11    5   66 1    
    12    6    7 1    
    13    6   67 1    
    14    6   68 1    
    15    7    8 1    
    16    8    9 1    
    17    8   69 1    
    18    8   70 1    
    19    9   10 ar   
    20    9   14 ar   
    21   10   11 ar   
    22   10   71 1    
    23   11   12 ar   
    24   11   61 1    
    25   12   13 ar   
    26   12   72 1    
    27   13   14 ar   
    28   13   15 1    
    29   14   73 1    
    30   15   16 1    
    31   15   74 1    
    32   15   75 1    
    33   16   17 1    
    34   17   18 1    
    35   17   76 1    
    36   17   77 1    
    37   18   19 1    
    38   18   27 1    
    39   18   78 1    
    40   19   20 am   BACKBONE|DICT|INTERRES
    41   19   79 1    
    42   20   21 2    
    43   20   22 1    
    44   22   23 1    
    45   22   24 1    
    46   22   80 1    
    47   23   81 1    
    48   23   82 1    
    49   23   83 1    
    50   24   25 am   BACKBONE|DICT|INTERRES
    51   24   84 1    
    52   25   26 2    
    53   27   28 2    
    54   27   29 am   BACKBONE|DICT|INTERRES
    55   29   30 1    
    56   29   85 1    
    57   30   31 1    
    58   30   32 1    
    59   30   86 1    
    60   31   87 1    
    61   31   88 1    
    62   31   89 1    
    63   32   33 2    
    64   32   34 am   BACKBONE|DICT|INTERRES
    65   34   35 1    
    66   34   90 1    
    67   35   36 1    
    68   35   37 1    
    69   35   91 1    
    70   36   92 1    
    71   36   93 1    
    72   36   94 1    
    73   37   38 2    
    74   37   39 am   BACKBONE|DICT|INTERRES
    75   39   40 1    
    76   39   95 1    
    77   40   41 1    
    78   40   42 1    
    79   40   96 1    
    80   41   97 1    
    81   41   98 1    
    82   41   99 1    
    83   42   43 2    
    84   42   44 am   BACKBONE|DICT|INTERRES
    85   44   45 1    
    86   44  100 1    
    87   45   46 1    
    88   45   47 1    
    89   45  101 1    
    90   46  102 1    
    91   46  103 1    
    92   46  104 1    
    93   47   48 2    
    94   47   49 am   BACKBONE|DICT|INTERRES
    95   49   50 1    
    96   49  105 1    
    97   50   51 1    
    98   50   52 1    
    99   50  106 1    
   100   51  107 1    
   101   51  108 1    
   102   51  109 1    
   103   52   53 2    
   104   52   54 am   BACKBONE|DICT|INTERRES
   105   54   55 1    
   106   54  110 1    
   107   55   56 1    
   108   55   59 1    
   109   55  111 1    
   110   56   57 am   BACKBONE|DICT|INTERRES
   111   56   58 2    
   112   57  112 1    
   113   57  113 1    
   114   59   60 1    
   115   59  114 1    
   116   59  115 1    
   117   60   61 1    
   118   61  116 1    
   119   61  117 1    
@<TRIPOS>SUBSTRUCTURE
     1 UNK         1 GROUP             0       ****    0 ROOT    
