@<TRIPOS>MOLECULE
3R8
117   119    1
SMALL
USER_CHARGES


@<TRIPOS>ATOM
      1 CA         15.1087  -28.4573  -40.2498 C.3       0 UNK        -0.2013 
      2 C          15.4445  -27.5932  -41.4557 C.2       0 UNK         0.4866 
      3 O          14.9363  -26.4779  -41.5724 O.2       0 UNK        -0.5176 
      4 N          16.3047  -28.0955  -42.3497 N.am      1 UNK        -0.4884 
      5 CA         16.7579  -27.3985  -43.5639 C.3       1 UNK         0.0853 
      6 C6         17.2318  -28.3803  -44.6706 C.3       10 UNK        -0.0849 
      7 S7         15.9889  -29.6435  -45.1140 S.3       10 UNK        -0.2776 
      8 C8         16.8825  -30.6275  -46.3666 C.3       10 UNK         0.0316 
      9 C9         18.1194  -31.3097  -45.7946 C.ar      10 UNK        -0.0863 
     10 C10        17.9919  -32.4484  -44.9919 C.ar      10 UNK        -0.1009 
     11 C11        19.1186  -33.0410  -44.4121 C.ar      10 UNK        -0.0712 
     12 C12        20.3833  -32.5104  -44.6889 C.ar      10 UNK        -0.0894 
     13 C13        20.5340  -31.3869  -45.5079 C.ar      10 UNK        -0.0745 
     14 C14        19.3923  -30.7954  -46.0623 C.ar      10 UNK        -0.0972 
     15 C15        21.9453  -30.8711  -45.7972 C.3       10 UNK         0.0209 
     16 S16        22.0746  -29.0796  -46.1290 S.3       10 UNK        -0.2568 
     17 C17        21.8276  -28.3901  -44.4610 C.3       10 UNK        -0.0983 
     18 CA         21.9650  -26.8389  -44.4454 C.3       3 UNK         0.0876 
     19 N          20.9630  -26.2224  -43.5657 N.am      3 UNK        -0.4424 
     20 C          20.9559  -26.1879  -42.2264 C.2       2 UNK         0.4918 
     21 O          21.9090  -26.5175  -41.5224 O.2       2 UNK        -0.4875 
     22 CA         19.6495  -25.7373  -41.5506 C.3       2 UNK         0.0481 
     23 CB         19.4804  -24.2069  -41.6044 C.3       2 UNK        -0.1831 
     24 N          18.4655  -26.4515  -42.0514 N.am      2 UNK        -0.4498 
     25 C          17.8842  -26.3864  -43.2615 C.2       1 UNK         0.5027 
     26 O          18.2461  -25.6108  -44.1480 O.2       1 UNK        -0.4969 
     27 C          23.4108  -26.3436  -44.1909 C.2       3 UNK         0.5005 
     28 O          24.3617  -27.1209  -44.2835 O.2       3 UNK        -0.5279 
     29 N          23.5495  -25.0608  -43.8135 N.am      4 UNK        -0.4463 
     30 CA         24.7919  -24.3927  -43.3916 C.3       4 UNK         0.0283 
     31 CB         25.7339  -24.1946  -44.5981 C.3       4 UNK        -0.1875 
     32 C          25.4960  -25.0850  -42.2010 C.2       4 UNK         0.4949 
     33 O          26.7202  -25.0137  -42.0904 O.2       4 UNK        -0.5039 
     34 N          24.7068  -25.7641  -41.3530 N.am      5 UNK        -0.4663 
     35 CA         25.0964  -26.6149  -40.2221 C.3       5 UNK         0.0242 
     36 CB         25.8996  -25.8264  -39.1663 C.3       5 UNK        -0.1982 
     37 C          25.7903  -27.9339  -40.6199 C.2       5 UNK         0.5017 
     38 O          26.2028  -28.6781  -39.7282 O.2       5 UNK        -0.5012 
     39 N          25.8784  -28.2465  -41.9212 N.am      6 UNK        -0.4439 
     40 CA         26.4302  -29.4972  -42.4436 C.3       6 UNK         0.0297 
     41 CB         27.0481  -29.2378  -43.8303 C.3       6 UNK        -0.2006 
     42 C          25.3276  -30.5687  -42.4699 C.2       6 UNK         0.4892 
     43 O          24.8534  -30.9311  -43.5462 O.2       6 UNK        -0.5089 
     44 N          24.9389  -31.0192  -41.2669 N.am      7 UNK        -0.4243 
     45 CA         23.7820  -31.8602  -40.9383 C.3       7 UNK         0.0196 
     46 CB         23.7735  -33.1915  -41.7207 C.3       7 UNK        -0.2007 
     47 C          22.4833  -31.0571  -41.1114 C.2       7 UNK         0.5020 
     48 O          21.8825  -31.0591  -42.1828 O.2       7 UNK        -0.5147 
     49 N          22.0708  -30.3670  -40.0413 N.am      8 UNK        -0.4734 
     50 CA         20.9192  -29.4550  -40.0092 C.3       8 UNK         0.0238 
     51 CB         21.0978  -28.4788  -38.8315 C.3       8 UNK        -0.1912 
     52 C          19.5320  -30.1351  -39.9847 C.2       8 UNK         0.5038 
     53 O          18.5518  -29.4800  -39.6266 O.2       8 UNK        -0.5046 
     54 N          19.4591  -31.4154  -40.3695 N.am      9 UNK        -0.4200 
     55 CA         18.2324  -32.2205  -40.4916 C.3       9 UNK         0.0839 
     56 C          17.1943  -31.7114  -41.5291 C.2       9 UNK         0.5513 
     57 N          17.5588  -30.8159  -42.4340 N.am      9 UNK        -0.7519 
     58 O          16.0425  -32.1356  -41.5090 O.2       9 UNK        -0.4960 
     59 C59        18.5463  -33.7288  -40.7042 C.3       10 UNK        -0.0876 
     60 S60        19.8645  -34.0932  -41.9226 S.3       10 UNK        -0.2414 
     61 C61        18.9714  -34.2640  -43.5086 C.3       10 UNK         0.0169 
     62 H62        15.3319  -27.9196  -39.3287 H         1 UNK         0.0903 
     63 H63        14.0488  -28.7096  -40.2514 H         1 UNK         0.0903 
     64 H64        15.6793  -29.3857  -40.2424 H         1 UNK         0.0903 
     65 H65        16.6967  -29.0183  -42.1960 H         1 UNK         0.3096 
     66 H66        15.9196  -26.8239  -43.9648 H         1 UNK         0.1121 
     67 H67        18.1493  -28.8829  -44.3605 H         1 UNK         0.0849 
     68 H68        17.4837  -27.8320  -45.5808 H         1 UNK         0.0849 
     69 H69        16.2070  -31.3839  -46.7689 H         1 UNK         0.0865 
     70 H70        17.1491  -29.9837  -47.2064 H         1 UNK         0.0865 
     71 H71        17.0080  -32.8474  -44.7856 H         1 UNK         0.1346 
     72 H72        21.2592  -32.9696  -44.2507 H         1 UNK         0.1412 
     73 H73        19.4894  -29.9272  -46.6988 H         1 UNK         0.1426 
     74 H74        22.3321  -31.4085  -46.6634 H         1 UNK         0.0716 
     75 H75        22.6075  -31.1126  -44.9646 H         1 UNK         0.0716 
     76 H76        22.5084  -28.8690  -43.7540 H         1 UNK         0.0695 
     77 H77        20.8268  -28.6908  -44.1461 H         1 UNK         0.0695 
     78 H78        21.7115  -26.4652  -45.4388 H         1 UNK         0.0983 
     79 H79        20.1131  -25.9040  -44.0250 H         1 UNK         0.3095 
     80 H80        19.7294  -26.0140  -40.4985 H         1 UNK         0.0454 
     81 H81        18.5761  -23.8914  -41.0842 H         1 UNK         0.0851 
     82 H82        19.4272  -23.8290  -42.6254 H         1 UNK         0.0851 
     83 H83        20.3216  -23.7084  -41.1210 H         1 UNK         0.0851 
     84 H84        18.0856  -27.1409  -41.4164 H         1 UNK         0.2976 
     85 H85        22.7086  -24.5036  -43.7466 H         1 UNK         0.3116 
     86 H86        24.5009  -23.4041  -43.0338 H         1 UNK         0.0646 
     87 H87        26.1185  -25.1447  -44.9706 H         1 UNK         0.0847 
     88 H88        25.2259  -23.6926  -45.4213 H         1 UNK         0.0847 
     89 H89        26.5938  -23.5801  -44.3286 H         1 UNK         0.0847 
     90 H90        23.7118  -25.7961  -41.5615 H         1 UNK         0.3040 
     91 H91        24.1577  -26.9155  -39.7546 H         1 UNK         0.1015 
     92 H92        26.0309  -26.4144  -38.2571 H         1 UNK         0.0786 
     93 H93        25.3881  -24.9065  -38.8835 H         1 UNK         0.0786 
     94 H94        26.8951  -25.5628  -39.5239 H         1 UNK         0.0786 
     95 H95        25.4435  -27.6342  -42.6058 H         1 UNK         0.3172 
     96 H96        27.2305  -29.8506  -41.7897 H         1 UNK         0.0595 
     97 H97        26.3037  -28.8988  -44.5515 H         1 UNK         0.0839 
     98 H98        27.4968  -30.1474  -44.2312 H         1 UNK         0.0839 
     99 H99        27.8325  -28.4825  -43.7801 H         1 UNK         0.0839 
    100 H100       25.4035  -30.5998  -40.4692 H         1 UNK         0.2998 
    101 H101       23.8799  -32.1144  -39.8816 H         1 UNK         0.0822 
    102 H102       22.9839  -33.8471  -41.3522 H         1 UNK         0.0787 
    103 H103       23.5921  -33.0465  -42.7859 H         1 UNK         0.0787 
    104 H104       24.7177  -33.7241  -41.6099 H         1 UNK         0.0787 
    105 H105       22.6028  -30.4386  -39.1855 H         1 UNK         0.3055 
    106 H106       20.9393  -28.8740  -40.9322 H         1 UNK         0.1106 
    107 H107       22.0394  -27.9353  -38.9071 H         1 UNK         0.0828 
    108 H108       20.3043  -27.7310  -38.8101 H         1 UNK         0.0828 
    109 H109       21.0817  -28.9974  -37.8725 H         1 UNK         0.0828 
    110 H110       20.2971  -31.8454  -40.7366 H         1 UNK         0.2931 
    111 H111       17.7257  -32.1372  -39.5282 H         1 UNK         0.0412 
    112 H112       16.9161  -30.6053  -43.1852 H         1 UNK         0.3472 
    113 H113       18.5367  -30.5883  -42.5228 H         1 UNK         0.3472 
    114 H114       18.8861  -34.1433  -39.7540 H         1 UNK         0.0970 
    115 H115       17.6477  -34.2992  -40.9478 H         1 UNK         0.0970 
    116 H116       19.3741  -35.1285  -44.0375 H         1 UNK         0.0612 
    117 H117       17.9203  -34.4845  -43.3176 H         1 UNK         0.0612 
@<TRIPOS>BOND
     1    1    2 1    
     2    1   62 1    
     3    1   63 1    
     4    1   64 1    
     5    2    3 2    
     6    2    4 am   BACKBONE|DICT|INTERRES
     7    4    5 1    
     8    4   65 1    
     9    5    6 1    
    10    5   25 1    
    11    5   66 1    
    12    6    7 1    
    13    6   67 1    
    14    6   68 1    
    15    7    8 1    
    16    8    9 1    
    17    8   69 1    
    18    8   70 1    
    19    9   10 ar   
    20    9   14 ar   
    21   10   11 ar   
    22   10   71 1    
    23   11   12 ar   
    24   11   61 1    
    25   12   13 ar   
    26   12   72 1    
    27   13   14 ar   
    28   13   15 1    
    29   14   73 1    
    30   15   16 1    
    31   15   74 1    
    32   15   75 1    
    33   16   17 1    
    34   17   18 1    
    35   17   76 1    
    36   17   77 1    
    37   18   19 1    
    38   18   27 1    
    39   18   78 1    
    40   19   20 am   BACKBONE|DICT|INTERRES
    41   19   79 1    
    42   20   21 2    
    43   20   22 1    
    44   22   23 1    
    45   22   24 1    
    46   22   80 1    
    47   23   81 1    
    48   23   82 1    
    49   23   83 1    
    50   24   25 am   BACKBONE|DICT|INTERRES
    51   24   84 1    
    52   25   26 2    
    53   27   28 2    
    54   27   29 am   BACKBONE|DICT|INTERRES
    55   29   30 1    
    56   29   85 1    
    57   30   31 1    
    58   30   32 1    
    59   30   86 1    
    60   31   87 1    
    61   31   88 1    
    62   31   89 1    
    63   32   33 2    
    64   32   34 am   BACKBONE|DICT|INTERRES
    65   34   35 1    
    66   34   90 1    
    67   35   36 1    
    68   35   37 1    
    69   35   91 1    
    70   36   92 1    
    71   36   93 1    
    72   36   94 1    
    73   37   38 2    
    74   37   39 am   BACKBONE|DICT|INTERRES
    75   39   40 1    
    76   39   95 1    
    77   40   41 1    
    78   40   42 1    
    79   40   96 1    
    80   41   97 1    
    81   41   98 1    
    82   41   99 1    
    83   42   43 2    
    84   42   44 am   BACKBONE|DICT|INTERRES
    85   44   45 1    
    86   44  100 1    
    87   45   46 1    
    88   45   47 1    
    89   45  101 1    
    90   46  102 1    
    91   46  103 1    
    92   46  104 1    
    93   47   48 2    
    94   47   49 am   BACKBONE|DICT|INTERRES
    95   49   50 1    
    96   49  105 1    
    97   50   51 1    
    98   50   52 1    
    99   50  106 1    
   100   51  107 1    
   101   51  108 1    
   102   51  109 1    
   103   52   53 2    
   104   52   54 am   BACKBONE|DICT|INTERRES
   105   54   55 1    
   106   54  110 1    
   107   55   56 1    
   108   55   59 1    
   109   55  111 1    
   110   56   57 am   BACKBONE|DICT|INTERRES
   111   56   58 2    
   112   57  112 1    
   113   57  113 1    
   114   59   60 1    
   115   59  114 1    
   116   59  115 1    
   117   60   61 1    
   118   61  116 1    
   119   61  117 1    
@<TRIPOS>SUBSTRUCTURE
     1 UNK         1 GROUP             0       ****    0 ROOT    
