@<TRIPOS>MOLECULE
3R8
117   119    1
SMALL
USER_CHARGES


@<TRIPOS>ATOM
      1 CA         14.4289  -25.9188  -46.3604 C.3       0 UNK        -0.2013 
      2 C          15.8882  -25.6240  -46.6738 C.2       0 UNK         0.4866 
      3 O          16.1886  -25.0937  -47.7438 O.2       0 UNK        -0.5176 
      4 N          16.7892  -25.9643  -45.7473 N.am      1 UNK        -0.4884 
      5 CA         18.2315  -25.7188  -45.8240 C.3       1 UNK         0.0853 
      6 C6         19.0529  -27.0098  -46.0997 C.3       10 UNK        -0.0849 
      7 S7         18.5342  -27.9901  -47.5570 S.3       10 UNK        -0.2776 
      8 C8         17.3773  -29.2292  -46.8648 C.3       10 UNK         0.0316 
      9 C9         17.8746  -29.8418  -45.5625 C.ar      10 UNK        -0.0863 
     10 C10        19.0082  -30.6586  -45.5497 C.ar      10 UNK        -0.1009 
     11 C11        19.5245  -31.1337  -44.3408 C.ar      10 UNK        -0.0712 
     12 C12        18.8966  -30.7928  -43.1380 C.ar      10 UNK        -0.0894 
     13 C13        17.7475  -29.9974  -43.1422 C.ar      10 UNK        -0.0745 
     14 C14        17.2360  -29.5345  -44.3578 C.ar      10 UNK        -0.0972 
     15 C15        17.0482  -29.6286  -41.8434 C.3       10 UNK         0.0209 
     16 S16        17.2601  -27.8618  -41.4520 S.3       10 UNK        -0.2568 
     17 C17        18.6666  -27.8618  -40.2892 C.3       10 UNK        -0.0983 
     18 CA         20.0278  -27.4766  -40.9232 C.3       3 UNK         0.0876 
     19 N          19.9559  -26.2322  -41.6997 N.am      3 UNK        -0.4424 
     20 C          20.9742  -25.6376  -42.3363 C.2       2 UNK         0.4918 
     21 O          22.1258  -26.0777  -42.3519 O.2       2 UNK        -0.4875 
     22 CA         20.6274  -24.3671  -43.1378 C.3       2 UNK         0.0481 
     23 CB         21.8699  -23.5187  -43.4650 C.3       2 UNK        -0.1831 
     24 N          19.9608  -24.7337  -44.3882 N.am      2 UNK        -0.4498 
     25 C          18.6761  -25.1007  -44.4833 C.2       1 UNK         0.5027 
     26 O          17.8800  -25.0178  -43.5422 O.2       1 UNK        -0.4969 
     27 C          21.0994  -27.3937  -39.8155 C.2       3 UNK         0.5005 
     28 O          21.1931  -26.3687  -39.1352 O.2       3 UNK        -0.5279 
     29 N          21.8959  -28.4600  -39.6717 N.am      4 UNK        -0.4463 
     30 CA         23.0373  -28.6460  -38.7634 C.3       4 UNK         0.0283 
     31 CB         22.6497  -28.4402  -37.2863 C.3       4 UNK        -0.1875 
     32 C          24.2810  -27.8222  -39.1429 C.2       4 UNK         0.4949 
     33 O          25.3932  -28.3274  -38.9940 O.2       4 UNK        -0.5039 
     34 N          24.0868  -26.5938  -39.6399 N.am      5 UNK        -0.4663 
     35 CA         25.1436  -25.7133  -40.1397 C.3       5 UNK         0.0242 
     36 CB         24.5926  -24.2893  -40.3118 C.3       5 UNK        -0.1982 
     37 C          25.7610  -26.2359  -41.4468 C.2       5 UNK         0.5017 
     38 O          26.9854  -26.3343  -41.5363 O.2       5 UNK        -0.5012 
     39 N          24.9074  -26.5806  -42.4219 N.am      6 UNK        -0.4439 
     40 CA         25.3060  -27.2372  -43.6684 C.3       6 UNK         0.0297 
     41 CB         24.2310  -27.0164  -44.7473 C.3       6 UNK        -0.2006 
     42 C          25.5621  -28.7341  -43.4367 C.2       6 UNK         0.4892 
     43 O          26.6439  -29.2261  -43.7590 O.2       6 UNK        -0.5089 
     44 N          24.5662  -29.4135  -42.8579 N.am      7 UNK        -0.4243 
     45 CA         24.5697  -30.8209  -42.4712 C.3       7 UNK         0.0196 
     46 CB         24.5736  -31.7341  -43.7130 C.3       7 UNK        -0.2007 
     47 C          23.3245  -31.0708  -41.6153 C.2       7 UNK         0.5020 
     48 O          22.3624  -30.3013  -41.6986 O.2       7 UNK        -0.5147 
     49 N          23.3521  -32.1325  -40.8030 N.am      8 UNK        -0.4734 
     50 CA         22.2362  -32.5109  -39.9299 C.3       8 UNK         0.0238 
     51 CB         22.7664  -33.3433  -38.7513 C.3       8 UNK        -0.1912 
     52 C          21.1215  -33.2695  -40.6695 C.2       8 UNK         0.5038 
     53 O          19.9495  -33.0510  -40.3611 O.2       8 UNK        -0.5046 
     54 N          21.5061  -34.1382  -41.6183 N.am      9 UNK        -0.4200 
     55 CA         20.6309  -35.0821  -42.3410 C.3       9 UNK         0.0839 
     56 C          19.9418  -36.1259  -41.4034 C.2       9 UNK         0.5513 
     57 N          18.9961  -36.9094  -41.9055 N.am      9 UNK        -0.7519 
     58 O          20.2942  -36.2843  -40.2358 O.2       9 UNK        -0.4960 
     59 C59        19.6506  -34.3637  -43.3201 C.3       10 UNK        -0.0876 
     60 S60        20.5029  -33.7027  -44.7923 S.3       10 UNK        -0.2414 
     61 C61        20.7939  -31.9684  -44.3374 C.3       10 UNK         0.0169 
     62 H62        14.3083  -26.3936  -45.3868 H         1 UNK         0.0903 
     63 H63        13.8506  -24.9952  -46.3613 H         1 UNK         0.0903 
     64 H64        14.0108  -26.5840  -47.1154 H         1 UNK         0.0903 
     65 H65        16.4817  -26.2967  -44.8426 H         1 UNK         0.3096 
     66 H66        18.4433  -24.9854  -46.6053 H         1 UNK         0.1121 
     67 H67        20.0951  -26.7432  -46.2823 H         1 UNK         0.0849 
     68 H68        19.0873  -27.6399  -45.2115 H         1 UNK         0.0849 
     69 H69        16.4043  -28.7577  -46.7203 H         1 UNK         0.0865 
     70 H70        17.2227  -30.0201  -47.6000 H         1 UNK         0.0865 
     71 H71        19.5101  -30.8942  -46.4785 H         1 UNK         0.1346 
     72 H72        19.3058  -31.1429  -42.2000 H         1 UNK         0.1412 
     73 H73        16.3592  -28.9015  -44.3574 H         1 UNK         0.1426 
     74 H74        17.3931  -30.2526  -41.0177 H         1 UNK         0.0716 
     75 H75        15.9819  -29.8337  -41.9486 H         1 UNK         0.0716 
     76 H76        18.7364  -28.8384  -39.8067 H         1 UNK         0.0695 
     77 H77        18.4115  -27.1579  -39.4941 H         1 UNK         0.0695 
     78 H78        20.3135  -28.2634  -41.6253 H         1 UNK         0.0983 
     79 H79        19.0316  -25.8322  -41.8031 H         1 UNK         0.3095 
     80 H80        19.9560  -23.7537  -42.5330 H         1 UNK         0.0454 
     81 H81        22.6055  -24.0746  -44.0475 H         1 UNK         0.0851 
     82 H82        22.3610  -23.1823  -42.5522 H         1 UNK         0.0851 
     83 H83        21.6020  -22.6260  -44.0301 H         1 UNK         0.0851 
     84 H84        20.5604  -24.8418  -45.1937 H         1 UNK         0.2976 
     85 H85        21.8068  -29.2006  -40.3671 H         1 UNK         0.3116 
     86 H86        23.3228  -29.6931  -38.8721 H         1 UNK         0.0646 
     87 H87        22.4035  -27.4014  -37.0658 H         1 UNK         0.0847 
     88 H88        23.4742  -28.7194  -36.6291 H         1 UNK         0.0847 
     89 H89        21.7933  -29.0554  -37.0108 H         1 UNK         0.0847 
     90 H90        23.1308  -26.2568  -39.6933 H         1 UNK         0.3040 
     91 H91        25.9382  -25.6803  -39.3906 H         1 UNK         0.1015 
     92 H92        23.7531  -24.2635  -41.0053 H         1 UNK         0.0786 
     93 H93        25.3593  -23.6167  -40.6987 H         1 UNK         0.0786 
     94 H94        24.2518  -23.8799  -39.3606 H         1 UNK         0.0786 
     95 H95        23.9091  -26.4343  -42.2772 H         1 UNK         0.3172 
     96 H96        26.2338  -26.7844  -44.0248 H         1 UNK         0.0595 
     97 H97        23.2639  -27.4281  -44.4562 H         1 UNK         0.0839 
     98 H98        24.5183  -27.4931  -45.6853 H         1 UNK         0.0839 
     99 H99        24.0919  -25.9553  -44.9532 H         1 UNK         0.0839 
    100 H100       23.7085  -28.9317  -42.6171 H         1 UNK         0.2998 
    101 H101       25.4557  -31.0146  -41.8633 H         1 UNK         0.0822 
    102 H102       25.5098  -31.6525  -44.2650 H         1 UNK         0.0787 
    103 H103       24.4572  -32.7830  -43.4376 H         1 UNK         0.0787 
    104 H104       23.7645  -31.4829  -44.3978 H         1 UNK         0.0787 
    105 H105       24.1778  -32.7147  -40.7768 H         1 UNK         0.3055 
    106 H106       21.7867  -31.6046  -39.5173 H         1 UNK         0.1106 
    107 H107       21.9554  -33.6239  -38.0775 H         1 UNK         0.0828 
    108 H108       23.2433  -34.2654  -39.0857 H         1 UNK         0.0828 
    109 H109       23.4931  -32.7815  -38.1641 H         1 UNK         0.0828 
    110 H110       22.4943  -34.2496  -41.7855 H         1 UNK         0.2931 
    111 H111       21.3118  -35.6867  -42.9414 H         1 UNK         0.0412 
    112 H112       18.5678  -37.5990  -41.3073 H         1 UNK         0.3472 
    113 H113       18.7138  -36.8426  -42.8706 H         1 UNK         0.3472 
    114 H114       19.0867  -33.5804  -42.8146 H         1 UNK         0.0970 
    115 H115       18.8987  -35.0502  -43.7086 H         1 UNK         0.0970 
    116 H116       21.5051  -31.5368  -45.0421 H         1 UNK         0.0612 
    117 H117       21.2701  -31.9372  -43.3617 H         1 UNK         0.0612 
@<TRIPOS>BOND
     1    1    2 1    
     2    1   62 1    
     3    1   63 1    
     4    1   64 1    
     5    2    3 2    
     6    2    4 am   BACKBONE|DICT|INTERRES
     7    4    5 1    
     8    4   65 1    
     9    5    6 1    
    10    5   25 1    
    11    5   66 1    
    12    6    7 1    
    13    6   67 1    
    14    6   68 1    
    15    7    8 1    
    16    8    9 1    
    17    8   69 1    
    18    8   70 1    
    19    9   10 ar   
    20    9   14 ar   
    21   10   11 ar   
    22   10   71 1    
    23   11   12 ar   
    24   11   61 1    
    25   12   13 ar   
    26   12   72 1    
    27   13   14 ar   
    28   13   15 1    
    29   14   73 1    
    30   15   16 1    
    31   15   74 1    
    32   15   75 1    
    33   16   17 1    
    34   17   18 1    
    35   17   76 1    
    36   17   77 1    
    37   18   19 1    
    38   18   27 1    
    39   18   78 1    
    40   19   20 am   BACKBONE|DICT|INTERRES
    41   19   79 1    
    42   20   21 2    
    43   20   22 1    
    44   22   23 1    
    45   22   24 1    
    46   22   80 1    
    47   23   81 1    
    48   23   82 1    
    49   23   83 1    
    50   24   25 am   BACKBONE|DICT|INTERRES
    51   24   84 1    
    52   25   26 2    
    53   27   28 2    
    54   27   29 am   BACKBONE|DICT|INTERRES
    55   29   30 1    
    56   29   85 1    
    57   30   31 1    
    58   30   32 1    
    59   30   86 1    
    60   31   87 1    
    61   31   88 1    
    62   31   89 1    
    63   32   33 2    
    64   32   34 am   BACKBONE|DICT|INTERRES
    65   34   35 1    
    66   34   90 1    
    67   35   36 1    
    68   35   37 1    
    69   35   91 1    
    70   36   92 1    
    71   36   93 1    
    72   36   94 1    
    73   37   38 2    
    74   37   39 am   BACKBONE|DICT|INTERRES
    75   39   40 1    
    76   39   95 1    
    77   40   41 1    
    78   40   42 1    
    79   40   96 1    
    80   41   97 1    
    81   41   98 1    
    82   41   99 1    
    83   42   43 2    
    84   42   44 am   BACKBONE|DICT|INTERRES
    85   44   45 1    
    86   44  100 1    
    87   45   46 1    
    88   45   47 1    
    89   45  101 1    
    90   46  102 1    
    91   46  103 1    
    92   46  104 1    
    93   47   48 2    
    94   47   49 am   BACKBONE|DICT|INTERRES
    95   49   50 1    
    96   49  105 1    
    97   50   51 1    
    98   50   52 1    
    99   50  106 1    
   100   51  107 1    
   101   51  108 1    
   102   51  109 1    
   103   52   53 2    
   104   52   54 am   BACKBONE|DICT|INTERRES
   105   54   55 1    
   106   54  110 1    
   107   55   56 1    
   108   55   59 1    
   109   55  111 1    
   110   56   57 am   BACKBONE|DICT|INTERRES
   111   56   58 2    
   112   57  112 1    
   113   57  113 1    
   114   59   60 1    
   115   59  114 1    
   116   59  115 1    
   117   60   61 1    
   118   61  116 1    
   119   61  117 1    
@<TRIPOS>SUBSTRUCTURE
     1 UNK         1 GROUP             0       ****    0 ROOT    
