@<TRIPOS>MOLECULE
3R8
117   119    1
SMALL
USER_CHARGES


@<TRIPOS>ATOM
      1 CA         14.3134  -23.7996  -45.3368 C.3       0 UNK        -0.2013 
      2 C          15.6324  -24.5476  -45.2172 C.2       0 UNK         0.4866 
      3 O          16.2036  -24.9519  -46.2313 O.2       0 UNK        -0.5176 
      4 N          16.1286  -24.7327  -43.9873 N.am      1 UNK        -0.4884 
      5 CA         17.3809  -25.4302  -43.6733 C.3       1 UNK         0.0853 
      6 C6         17.3963  -25.9688  -42.2210 C.3       10 UNK        -0.0849 
      7 S7         16.1278  -27.2494  -41.9343 S.3       10 UNK        -0.2776 
      8 C8         17.0916  -28.5520  -41.0937 C.3       10 UNK         0.0316 
      9 C9         17.5358  -29.6794  -42.0225 C.ar      10 UNK        -0.0863 
     10 C10        17.2307  -30.9986  -41.6761 C.ar      10 UNK        -0.1009 
     11 C11        17.6309  -32.0604  -42.4872 C.ar      10 UNK        -0.0712 
     12 C12        18.3222  -31.7944  -43.6711 C.ar      10 UNK        -0.0894 
     13 C13        18.6652  -30.4869  -44.0282 C.ar      10 UNK        -0.0745 
     14 C14        18.2700  -29.4304  -43.1910 C.ar      10 UNK        -0.0972 
     15 C15        19.4578  -30.3031  -45.3266 C.3       10 UNK         0.0209 
     16 S16        19.7951  -28.5876  -45.8482 S.3       10 UNK        -0.2568 
     17 C17        21.3372  -28.2095  -44.9442 C.3       10 UNK        -0.0983 
     18 CA         22.0230  -26.9192  -45.4672 C.3       3 UNK         0.0876 
     19 N          21.0740  -25.8062  -45.4851 N.am      3 UNK        -0.4424 
     20 C          21.2746  -24.5315  -45.8422 C.2       2 UNK         0.4918 
     21 O          22.3524  -24.0863  -46.2382 O.2       2 UNK        -0.4875 
     22 CA         20.0430  -23.5993  -45.7825 C.3       2 UNK         0.0481 
     23 CB         19.7215  -23.0318  -47.1752 C.3       2 UNK        -0.1831 
     24 N          18.8420  -24.2629  -45.2575 N.am      2 UNK        -0.4498 
     25 C          18.6051  -24.5351  -43.9678 C.2       1 UNK         0.5027 
     26 O          19.3181  -24.1320  -43.0477 O.2       1 UNK        -0.4969 
     27 C          23.2820  -26.5933  -44.6363 C.2       3 UNK         0.5005 
     28 O          23.1608  -26.0823  -43.5203 O.2       3 UNK        -0.5279 
     29 N          24.4642  -26.9141  -45.1826 N.am      4 UNK        -0.4463 
     30 CA         25.7743  -26.6005  -44.5952 C.3       4 UNK         0.0283 
     31 CB         26.8761  -26.9120  -45.6213 C.3       4 UNK        -0.1875 
     32 C          26.0697  -27.3153  -43.2636 C.2       4 UNK         0.4949 
     33 O          26.8645  -26.8070  -42.4726 O.2       4 UNK        -0.5039 
     34 N          25.4273  -28.4667  -43.0392 N.am      5 UNK        -0.4663 
     35 CA         25.5187  -29.2619  -41.8162 C.3       5 UNK         0.0242 
     36 CB         26.4227  -30.4850  -42.0651 C.3       5 UNK        -0.1982 
     37 C          24.1070  -29.6449  -41.3522 C.2       5 UNK         0.5017 
     38 O          23.8599  -30.8137  -41.0536 O.2       5 UNK        -0.5012 
     39 N          23.1988  -28.6568  -41.3205 N.am      6 UNK        -0.4439 
     40 CA         21.7686  -28.7837  -41.0008 C.3       6 UNK         0.0297 
     41 CB         21.1493  -27.3786  -40.9153 C.3       6 UNK        -0.2006 
     42 C          21.4403  -29.5774  -39.7228 C.2       6 UNK         0.4892 
     43 O          20.4656  -30.3275  -39.7152 O.2       6 UNK        -0.5089 
     44 N          22.2793  -29.4367  -38.6867 N.am      7 UNK        -0.4243 
     45 CA         22.1754  -30.1646  -37.4168 C.3       7 UNK         0.0196 
     46 CB         23.1833  -29.5732  -36.4180 C.3       7 UNK        -0.2007 
     47 C          22.3766  -31.6885  -37.5419 C.2       7 UNK         0.5020 
     48 O          21.9041  -32.4264  -36.6770 O.2       7 UNK        -0.5147 
     49 N          23.0637  -32.1311  -38.6021 N.am      8 UNK        -0.4734 
     50 CA         23.3078  -33.5359  -38.9361 C.3       8 UNK         0.0238 
     51 CB         24.8287  -33.7456  -39.0539 C.3       8 UNK        -0.1912 
     52 C          22.5929  -33.9461  -40.2382 C.2       8 UNK         0.5038 
     53 O          22.8613  -35.0366  -40.7450 O.2       8 UNK        -0.5046 
     54 N          21.7210  -33.0745  -40.7666 N.am      9 UNK        -0.4200 
     55 CA         21.0413  -33.1975  -42.0662 C.3       9 UNK         0.0839 
     56 C          21.9946  -33.1643  -43.3005 C.2       9 UNK         0.5513 
     57 N          23.1781  -32.5733  -43.2013 N.am      9 UNK        -0.7519 
     58 O          21.6518  -33.6518  -44.3748 O.2       9 UNK        -0.4960 
     59 C59        20.0171  -34.3710  -42.1177 C.3       10 UNK        -0.0876 
     60 S60        18.6257  -34.1463  -40.9582 S.3       10 UNK        -0.2414 
     61 C61        17.3338  -33.4929  -42.0677 C.3       10 UNK         0.0169 
     62 H62        13.5699  -24.4279  -45.8265 H         1 UNK         0.0903 
     63 H63        13.9210  -23.5059  -44.3634 H         1 UNK         0.0903 
     64 H64        14.4462  -22.8989  -45.9354 H         1 UNK         0.0903 
     65 H65        15.6221  -24.3731  -43.1902 H         1 UNK         0.3096 
     66 H66        17.4636  -26.2948  -44.3370 H         1 UNK         0.1121 
     67 H67        18.3774  -26.3867  -41.9910 H         1 UNK         0.0849 
     68 H68        17.2404  -25.1590  -41.5056 H         1 UNK         0.0849 
     69 H69        17.9565  -28.1331  -40.5824 H         1 UNK         0.0865 
     70 H70        16.4589  -28.9525  -40.3000 H         1 UNK         0.0865 
     71 H71        16.6938  -31.2071  -40.7607 H         1 UNK         0.1346 
     72 H72        18.6256  -32.6159  -44.3058 H         1 UNK         0.1412 
     73 H73        18.5216  -28.4118  -43.4419 H         1 UNK         0.1426 
     74 H74        20.4004  -30.8476  -45.2511 H         1 UNK         0.0716 
     75 H75        18.8983  -30.7793  -46.1330 H         1 UNK         0.0716 
     76 H76        21.0896  -28.1166  -43.8868 H         1 UNK         0.0695 
     77 H77        22.0151  -29.0608  -45.0308 H         1 UNK         0.0695 
     78 H78        22.3264  -27.0839  -46.5031 H         1 UNK         0.0983 
     79 H79        20.1384  -26.0560  -45.2090 H         1 UNK         0.3095 
     80 H80        20.2974  -22.7654  -45.1253 H         1 UNK         0.0454 
     81 H81        19.4703  -23.8214  -47.8844 H         1 UNK         0.0851 
     82 H82        18.8832  -22.3361  -47.1364 H         1 UNK         0.0851 
     83 H83        20.5732  -22.4859  -47.5833 H         1 UNK         0.0851 
     84 H84        18.1521  -24.5778  -45.9344 H         1 UNK         0.2976 
     85 H85        24.4772  -27.3424  -46.0978 H         1 UNK         0.3116 
     86 H86        25.7934  -25.5272  -44.3934 H         1 UNK         0.0646 
     87 H87        27.8610  -26.6600  -45.2251 H         1 UNK         0.0847 
     88 H88        26.7429  -26.3358  -46.5371 H         1 UNK         0.0847 
     89 H89        26.8944  -27.9697  -45.8870 H         1 UNK         0.0847 
     90 H90        24.7833  -28.7998  -43.7429 H         1 UNK         0.3040 
     91 H91        25.9569  -28.6719  -41.0081 H         1 UNK         0.1015 
     92 H92        27.4236  -30.1802  -42.3711 H         1 UNK         0.0786 
     93 H93        26.0182  -31.1345  -42.8422 H         1 UNK         0.0786 
     94 H94        26.5307  -31.0843  -41.1600 H         1 UNK         0.0786 
     95 H95        23.5030  -27.7377  -41.6156 H         1 UNK         0.3172 
     96 H96        21.3008  -29.3177  -41.8302 H         1 UNK         0.0595 
     97 H97        20.1043  -27.4265  -40.6146 H         1 UNK         0.0839 
     98 H98        21.1833  -26.8602  -41.8729 H         1 UNK         0.0839 
     99 H99        21.6637  -26.7560  -40.1825 H         1 UNK         0.0839 
    100 H100       23.0598  -28.8044  -38.7877 H         1 UNK         0.2998 
    101 H101       21.1687  -30.0040  -37.0248 H         1 UNK         0.0822 
    102 H102       22.9996  -28.5120  -36.2482 H         1 UNK         0.0787 
    103 H103       23.1114  -30.0709  -35.4497 H         1 UNK         0.0787 
    104 H104       24.2106  -29.6866  -36.7668 H         1 UNK         0.0787 
    105 H105       23.3927  -31.4599  -39.2915 H         1 UNK         0.3055 
    106 H106       22.9280  -34.1908  -38.1490 H         1 UNK         0.1106 
    107 H107       25.0694  -34.7911  -39.2506 H         1 UNK         0.0828 
    108 H108       25.2530  -33.1536  -39.8661 H         1 UNK         0.0828 
    109 H109       25.3396  -33.4660  -38.1326 H         1 UNK         0.0828 
    110 H110       21.5451  -32.2106  -40.2704 H         1 UNK         0.2931 
    111 H111       20.4807  -32.2683  -42.1520 H         1 UNK         0.0412 
    112 H112       23.7880  -32.5572  -44.0021 H         1 UNK         0.3472 
    113 H113       23.4517  -32.1095  -42.3400 H         1 UNK         0.3472 
    114 H114       20.5073  -35.3190  -41.8940 H         1 UNK         0.0970 
    115 H115       19.6050  -34.4930  -43.1200 H         1 UNK         0.0970 
    116 H116       17.2315  -34.1386  -42.9412 H         1 UNK         0.0612 
    117 H117       16.3750  -33.5318  -41.5487 H         1 UNK         0.0612 
@<TRIPOS>BOND
     1    1    2 1    
     2    1   62 1    
     3    1   63 1    
     4    1   64 1    
     5    2    3 2    
     6    2    4 am   BACKBONE|DICT|INTERRES
     7    4    5 1    
     8    4   65 1    
     9    5    6 1    
    10    5   25 1    
    11    5   66 1    
    12    6    7 1    
    13    6   67 1    
    14    6   68 1    
    15    7    8 1    
    16    8    9 1    
    17    8   69 1    
    18    8   70 1    
    19    9   10 ar   
    20    9   14 ar   
    21   10   11 ar   
    22   10   71 1    
    23   11   12 ar   
    24   11   61 1    
    25   12   13 ar   
    26   12   72 1    
    27   13   14 ar   
    28   13   15 1    
    29   14   73 1    
    30   15   16 1    
    31   15   74 1    
    32   15   75 1    
    33   16   17 1    
    34   17   18 1    
    35   17   76 1    
    36   17   77 1    
    37   18   19 1    
    38   18   27 1    
    39   18   78 1    
    40   19   20 am   BACKBONE|DICT|INTERRES
    41   19   79 1    
    42   20   21 2    
    43   20   22 1    
    44   22   23 1    
    45   22   24 1    
    46   22   80 1    
    47   23   81 1    
    48   23   82 1    
    49   23   83 1    
    50   24   25 am   BACKBONE|DICT|INTERRES
    51   24   84 1    
    52   25   26 2    
    53   27   28 2    
    54   27   29 am   BACKBONE|DICT|INTERRES
    55   29   30 1    
    56   29   85 1    
    57   30   31 1    
    58   30   32 1    
    59   30   86 1    
    60   31   87 1    
    61   31   88 1    
    62   31   89 1    
    63   32   33 2    
    64   32   34 am   BACKBONE|DICT|INTERRES
    65   34   35 1    
    66   34   90 1    
    67   35   36 1    
    68   35   37 1    
    69   35   91 1    
    70   36   92 1    
    71   36   93 1    
    72   36   94 1    
    73   37   38 2    
    74   37   39 am   BACKBONE|DICT|INTERRES
    75   39   40 1    
    76   39   95 1    
    77   40   41 1    
    78   40   42 1    
    79   40   96 1    
    80   41   97 1    
    81   41   98 1    
    82   41   99 1    
    83   42   43 2    
    84   42   44 am   BACKBONE|DICT|INTERRES
    85   44   45 1    
    86   44  100 1    
    87   45   46 1    
    88   45   47 1    
    89   45  101 1    
    90   46  102 1    
    91   46  103 1    
    92   46  104 1    
    93   47   48 2    
    94   47   49 am   BACKBONE|DICT|INTERRES
    95   49   50 1    
    96   49  105 1    
    97   50   51 1    
    98   50   52 1    
    99   50  106 1    
   100   51  107 1    
   101   51  108 1    
   102   51  109 1    
   103   52   53 2    
   104   52   54 am   BACKBONE|DICT|INTERRES
   105   54   55 1    
   106   54  110 1    
   107   55   56 1    
   108   55   59 1    
   109   55  111 1    
   110   56   57 am   BACKBONE|DICT|INTERRES
   111   56   58 2    
   112   57  112 1    
   113   57  113 1    
   114   59   60 1    
   115   59  114 1    
   116   59  115 1    
   117   60   61 1    
   118   61  116 1    
   119   61  117 1    
@<TRIPOS>SUBSTRUCTURE
     1 UNK         1 GROUP             0       ****    0 ROOT    
