@<TRIPOS>MOLECULE
3R8
117   119    1
SMALL
USER_CHARGES


@<TRIPOS>ATOM
      1 CA         15.0323  -23.5203  -41.4952 C.3       0 UNK        -0.2013 
      2 C          15.5904  -23.7360  -42.8936 C.2       0 UNK         0.4866 
      3 O          15.4004  -22.8883  -43.7663 O.2       0 UNK        -0.5176 
      4 N          16.2689  -24.8679  -43.1163 N.am      1 UNK        -0.4884 
      5 CA         16.9125  -25.2264  -44.3844 C.3       1 UNK         0.0853 
      6 C6         17.3511  -26.7147  -44.4065 C.3       10 UNK        -0.0849 
      7 S7         15.9705  -27.8726  -44.1128 S.3       10 UNK        -0.2776 
      8 C8         16.4001  -29.2714  -45.2012 C.3       10 UNK         0.0316 
      9 C9         17.6742  -29.9793  -44.7563 C.ar      10 UNK        -0.0863 
     10 C10        17.6638  -30.8086  -43.6300 C.ar      10 UNK        -0.1009 
     11 C11        18.8275  -31.4700  -43.2256 C.ar      10 UNK        -0.0712 
     12 C12        20.0124  -31.2817  -43.9441 C.ar      10 UNK        -0.0894 
     13 C13        20.0351  -30.4647  -45.0778 C.ar      10 UNK        -0.0745 
     14 C14        18.8582  -29.8263  -45.4847 C.ar      10 UNK        -0.0972 
     15 C15        21.3219  -30.2975  -45.8793 C.3       10 UNK         0.0209 
     16 S16        22.3286  -28.8898  -45.3059 S.3       10 UNK        -0.2568 
     17 C17        21.2016  -27.5025  -45.6600 C.3       10 UNK        -0.0983 
     18 CA         21.8235  -26.0829  -45.6805 C.3       3 UNK         0.0876 
     19 N          20.7769  -25.1461  -46.0918 N.am      3 UNK        -0.4424 
     20 C          20.8407  -23.8142  -46.2007 C.2       2 UNK         0.4918 
     21 O          21.8813  -23.1603  -46.1404 O.2       2 UNK        -0.4875 
     22 CA         19.4837  -23.0938  -46.3566 C.3       2 UNK         0.0481 
     23 CB         19.2649  -22.6748  -47.8189 C.3       2 UNK        -0.1831 
     24 N          18.3259  -23.8846  -45.8974 N.am      2 UNK        -0.4498 
     25 C          18.1350  -24.3212  -44.6410 C.2       1 UNK         0.5027 
     26 O          18.9257  -24.1050  -43.7186 O.2       1 UNK        -0.4969 
     27 C          22.4526  -25.7262  -44.3117 C.2       3 UNK         0.5005 
     28 O          23.6434  -25.9739  -44.1166 O.2       3 UNK        -0.5279 
     29 N          21.6427  -25.1695  -43.3917 N.am      4 UNK        -0.4463 
     30 CA         21.9596  -24.9041  -41.9820 C.3       4 UNK         0.0283 
     31 CB         23.0449  -23.8153  -41.8463 C.3       4 UNK        -0.1875 
     32 C          22.2963  -26.1972  -41.2126 C.2       4 UNK         0.4949 
     33 O          23.2161  -26.2121  -40.3929 O.2       4 UNK        -0.5039 
     34 N          21.5566  -27.2715  -41.5285 N.am      5 UNK        -0.4663 
     35 CA         21.6485  -28.6539  -41.0353 C.3       5 UNK         0.0242 
     36 CB         21.4130  -28.7252  -39.5133 C.3       5 UNK        -0.1982 
     37 C          22.9345  -29.4048  -41.4233 C.2       5 UNK         0.5017 
     38 O          22.8593  -30.5913  -41.7431 O.2       5 UNK        -0.5012 
     39 N          24.0890  -28.7265  -41.3498 N.am      6 UNK        -0.4439 
     40 CA         25.4410  -29.1980  -41.6873 C.3       6 UNK         0.0297 
     41 CB         25.5612  -29.3938  -43.2130 C.3       6 UNK        -0.2006 
     42 C          25.8937  -30.4510  -40.9046 C.2       6 UNK         0.4892 
     43 O          26.7727  -31.1754  -41.3733 O.2       6 UNK        -0.5089 
     44 N          25.2596  -30.6968  -39.7463 N.am      7 UNK        -0.4243 
     45 CA         25.3388  -31.9006  -38.9066 C.3       7 UNK         0.0196 
     46 CB         26.7543  -32.0721  -38.3158 C.3       7 UNK        -0.2007 
     47 C          24.8327  -33.1885  -39.5958 C.2       7 UNK         0.5020 
     48 O          25.0647  -34.2798  -39.0738 O.2       7 UNK        -0.5147 
     49 N          24.1372  -33.0609  -40.7353 N.am      8 UNK        -0.4734 
     50 CA         23.6296  -34.1835  -41.5284 C.3       8 UNK         0.0238 
     51 CB         23.5473  -33.7554  -43.0028 C.3       8 UNK        -0.1912 
     52 C          22.2678  -34.6988  -41.0361 C.2       8 UNK         0.5038 
     53 O          21.8963  -35.8220  -41.3787 O.2       8 UNK        -0.5046 
     54 N          21.5493  -33.8820  -40.2545 N.am      9 UNK        -0.4200 
     55 CA         20.2280  -34.2031  -39.6901 C.3       9 UNK         0.0839 
     56 C          20.2521  -35.2230  -38.5137 C.2       9 UNK         0.5513 
     57 N          21.4066  -35.5921  -37.9713 N.am      9 UNK        -0.7519 
     58 O          19.1992  -35.6905  -38.0877 O.2       9 UNK        -0.4960 
     59 C59        19.4276  -32.9287  -39.2992 C.3       10 UNK        -0.0876 
     60 S60        19.4306  -31.5854  -40.5377 S.3       10 UNK        -0.2414 
     61 C61        18.8056  -32.4098  -42.0303 C.3       10 UNK         0.0169 
     62 H62        15.4522  -22.6138  -41.0600 H         1 UNK         0.0903 
     63 H63        15.2621  -24.3531  -40.8312 H         1 UNK         0.0903 
     64 H64        13.9493  -23.4090  -41.5365 H         1 UNK         0.0903 
     65 H65        16.3955  -25.5301  -42.3646 H         1 UNK         0.3096 
     66 H66        16.1857  -25.0662  -45.1838 H         1 UNK         0.1121 
     67 H67        18.1149  -26.9087  -43.6506 H         1 UNK         0.0849 
     68 H68        17.8063  -26.9547  -45.3687 H         1 UNK         0.0849 
     69 H69        15.5749  -29.9850  -45.1975 H         1 UNK         0.0865 
     70 H70        16.4871  -28.9185  -46.2301 H         1 UNK         0.0865 
     71 H71        16.7472  -30.9417  -43.0716 H         1 UNK         0.1346 
     72 H72        20.9166  -31.7784  -43.6223 H         1 UNK         0.1412 
     73 H73        18.8659  -29.2049  -46.3693 H         1 UNK         0.1426 
     74 H74        21.9223  -31.2056  -45.8067 H         1 UNK         0.0716 
     75 H75        21.0929  -30.1719  -46.9387 H         1 UNK         0.0716 
     76 H76        20.3933  -27.5423  -44.9277 H         1 UNK         0.0695 
     77 H77        20.7446  -27.7007  -46.6310 H         1 UNK         0.0695 
     78 H78        22.6159  -26.0481  -46.4308 H         1 UNK         0.0983 
     79 H79        19.8646  -25.5546  -46.2184 H         1 UNK         0.3095 
     80 H80        19.5268  -22.1900  -45.7456 H         1 UNK         0.0454 
     81 H81        18.3569  -22.0822  -47.9317 H         1 UNK         0.0851 
     82 H82        19.1887  -23.5382  -48.4810 H         1 UNK         0.0851 
     83 H83        20.0934  -22.0624  -48.1777 H         1 UNK         0.0851 
     84 H84        17.6313  -24.1031  -46.5984 H         1 UNK         0.2976 
     85 H85        20.6910  -24.9350  -43.6615 H         1 UNK         0.3116 
     86 H86        21.0450  -24.5128  -41.5341 H         1 UNK         0.0646 
     87 H87        22.7769  -22.9172  -42.4026 H         1 UNK         0.0847 
     88 H88        23.1755  -23.5239  -40.8036 H         1 UNK         0.0847 
     89 H89        24.0141  -24.1581  -42.2091 H         1 UNK         0.0847 
     90 H90        20.8615  -27.1343  -42.2480 H         1 UNK         0.3040 
     91 H91        20.8324  -29.1888  -41.5238 H         1 UNK         0.1015 
     92 H92        20.4407  -28.3119  -39.2459 H         1 UNK         0.0786 
     93 H93        22.1741  -28.1838  -38.9515 H         1 UNK         0.0786 
     94 H94        21.4307  -29.7581  -39.1636 H         1 UNK         0.0786 
     95 H95        24.0182  -27.7626  -41.0280 H         1 UNK         0.3172 
     96 H96        26.1224  -28.3967  -41.3989 H         1 UNK         0.0595 
     97 H97        25.2507  -28.4984  -43.7522 H         1 UNK         0.0839 
     98 H98        24.9441  -30.2227  -43.5621 H         1 UNK         0.0839 
     99 H99        26.5900  -29.6064  -43.5054 H         1 UNK         0.0839 
    100 H100       24.5615  -30.0224  -39.4663 H         1 UNK         0.2998 
    101 H101       24.6566  -31.7266  -38.0734 H         1 UNK         0.0822 
    102 H102       27.0934  -31.1598  -37.8255 H         1 UNK         0.0787 
    103 H103       26.7733  -32.8656  -37.5678 H         1 UNK         0.0787 
    104 H104       27.4850  -32.3338  -39.0813 H         1 UNK         0.0787 
    105 H105       23.9344  -32.1304  -41.0917 H         1 UNK         0.3055 
    106 H106       24.3334  -35.0163  -41.4583 H         1 UNK         0.1106 
    107 H107       24.5244  -33.4566  -43.3824 H         1 UNK         0.0828 
    108 H108       23.1916  -34.5736  -43.6304 H         1 UNK         0.0828 
    109 H109       22.8663  -32.9167  -43.1420 H         1 UNK         0.0828 
    110 H110       21.9207  -32.9684  -40.0422 H         1 UNK         0.2931 
    111 H111       19.6632  -34.7039  -40.4778 H         1 UNK         0.0412 
    112 H112       21.4062  -36.2556  -37.2122 H         1 UNK         0.3472 
    113 H113       22.2779  -35.2228  -38.3186 H         1 UNK         0.3472 
    114 H114       18.3887  -33.1883  -39.0872 H         1 UNK         0.0970 
    115 H115       19.8238  -32.5086  -38.3729 H         1 UNK         0.0970 
    116 H116       19.4187  -33.2817  -42.2590 H         1 UNK         0.0612 
    117 H117       17.7949  -32.7765  -41.8451 H         1 UNK         0.0612 
@<TRIPOS>BOND
     1    1    2 1    
     2    1   62 1    
     3    1   63 1    
     4    1   64 1    
     5    2    3 2    
     6    2    4 am   BACKBONE|DICT|INTERRES
     7    4    5 1    
     8    4   65 1    
     9    5    6 1    
    10    5   25 1    
    11    5   66 1    
    12    6    7 1    
    13    6   67 1    
    14    6   68 1    
    15    7    8 1    
    16    8    9 1    
    17    8   69 1    
    18    8   70 1    
    19    9   10 ar   
    20    9   14 ar   
    21   10   11 ar   
    22   10   71 1    
    23   11   12 ar   
    24   11   61 1    
    25   12   13 ar   
    26   12   72 1    
    27   13   14 ar   
    28   13   15 1    
    29   14   73 1    
    30   15   16 1    
    31   15   74 1    
    32   15   75 1    
    33   16   17 1    
    34   17   18 1    
    35   17   76 1    
    36   17   77 1    
    37   18   19 1    
    38   18   27 1    
    39   18   78 1    
    40   19   20 am   BACKBONE|DICT|INTERRES
    41   19   79 1    
    42   20   21 2    
    43   20   22 1    
    44   22   23 1    
    45   22   24 1    
    46   22   80 1    
    47   23   81 1    
    48   23   82 1    
    49   23   83 1    
    50   24   25 am   BACKBONE|DICT|INTERRES
    51   24   84 1    
    52   25   26 2    
    53   27   28 2    
    54   27   29 am   BACKBONE|DICT|INTERRES
    55   29   30 1    
    56   29   85 1    
    57   30   31 1    
    58   30   32 1    
    59   30   86 1    
    60   31   87 1    
    61   31   88 1    
    62   31   89 1    
    63   32   33 2    
    64   32   34 am   BACKBONE|DICT|INTERRES
    65   34   35 1    
    66   34   90 1    
    67   35   36 1    
    68   35   37 1    
    69   35   91 1    
    70   36   92 1    
    71   36   93 1    
    72   36   94 1    
    73   37   38 2    
    74   37   39 am   BACKBONE|DICT|INTERRES
    75   39   40 1    
    76   39   95 1    
    77   40   41 1    
    78   40   42 1    
    79   40   96 1    
    80   41   97 1    
    81   41   98 1    
    82   41   99 1    
    83   42   43 2    
    84   42   44 am   BACKBONE|DICT|INTERRES
    85   44   45 1    
    86   44  100 1    
    87   45   46 1    
    88   45   47 1    
    89   45  101 1    
    90   46  102 1    
    91   46  103 1    
    92   46  104 1    
    93   47   48 2    
    94   47   49 am   BACKBONE|DICT|INTERRES
    95   49   50 1    
    96   49  105 1    
    97   50   51 1    
    98   50   52 1    
    99   50  106 1    
   100   51  107 1    
   101   51  108 1    
   102   51  109 1    
   103   52   53 2    
   104   52   54 am   BACKBONE|DICT|INTERRES
   105   54   55 1    
   106   54  110 1    
   107   55   56 1    
   108   55   59 1    
   109   55  111 1    
   110   56   57 am   BACKBONE|DICT|INTERRES
   111   56   58 2    
   112   57  112 1    
   113   57  113 1    
   114   59   60 1    
   115   59  114 1    
   116   59  115 1    
   117   60   61 1    
   118   61  116 1    
   119   61  117 1    
@<TRIPOS>SUBSTRUCTURE
     1 UNK         1 GROUP             0       ****    0 ROOT    
