@<TRIPOS>MOLECULE
3R8
117   119    1
SMALL
USER_CHARGES


@<TRIPOS>ATOM
      1 CA         22.4089  -24.8485  -48.5662 C.3       0 UNK        -0.2013 
      2 C          22.5857  -25.7125  -47.3269 C.2       0 UNK         0.4866 
      3 O          23.5323  -25.5075  -46.5689 O.2       0 UNK        -0.5176 
      4 N          21.6841  -26.6803  -47.1197 N.am      1 UNK        -0.4884 
      5 CA         21.6574  -27.5858  -45.9637 C.3       1 UNK         0.0853 
      6 C6         20.7580  -28.8231  -46.2218 C.3       10 UNK        -0.0849 
      7 S7         19.1133  -28.4101  -46.9093 S.3       10 UNK        -0.2776 
      8 C8         18.2551  -30.0099  -46.7903 C.3       10 UNK         0.0316 
      9 C9         17.8226  -30.2984  -45.3622 C.ar      10 UNK        -0.0863 
     10 C10        18.5386  -31.1996  -44.5710 C.ar      10 UNK        -0.1009 
     11 C11        18.1489  -31.4530  -43.2521 C.ar      10 UNK        -0.0712 
     12 C12        17.0271  -30.8013  -42.7293 C.ar      10 UNK        -0.0894 
     13 C13        16.3338  -29.8613  -43.4979 C.ar      10 UNK        -0.0745 
     14 C14        16.7187  -29.6358  -44.8219 C.ar      10 UNK        -0.0972 
     15 C15        15.2137  -29.0331  -42.8879 C.3       10 UNK         0.0209 
     16 S16        15.7250  -27.2921  -42.6887 S.3       10 UNK        -0.2568 
     17 C17        16.8024  -27.3520  -41.2140 C.3       10 UNK        -0.0983 
     18 CA         18.2854  -27.7208  -41.5081 C.3       3 UNK         0.0876 
     19 N          18.9110  -26.8869  -42.5403 N.am      3 UNK        -0.4424 
     20 C          19.3061  -25.6107  -42.4408 C.2       2 UNK         0.4918 
     21 O          19.1919  -24.9369  -41.4176 O.2       2 UNK        -0.4875 
     22 CA         19.9229  -24.9618  -43.7015 C.3       2 UNK         0.0481 
     23 CB         21.0738  -23.9950  -43.3558 C.3       2 UNK        -0.1831 
     24 N          20.3583  -25.8951  -44.7496 N.am      2 UNK        -0.4498 
     25 C          21.2774  -26.8681  -44.6516 C.2       1 UNK         0.5027 
     26 O          21.8238  -27.1965  -43.5962 O.2       1 UNK        -0.4969 
     27 C          19.1346  -27.8003  -40.2203 C.2       3 UNK         0.5005 
     28 O          18.7479  -27.2416  -39.1922 O.2       3 UNK        -0.5279 
     29 N          20.2935  -28.4721  -40.3086 N.am      4 UNK        -0.4463 
     30 CA         21.2750  -28.7082  -39.2368 C.3       4 UNK         0.0283 
     31 CB         20.6463  -29.3912  -38.0043 C.3       4 UNK        -0.1875 
     32 C          22.1342  -27.4912  -38.8562 C.2       4 UNK         0.4949 
     33 O          23.0913  -27.6603  -38.1005 O.2       4 UNK        -0.5039 
     34 N          21.8435  -26.3080  -39.4141 N.am      5 UNK        -0.4663 
     35 CA         22.6852  -25.1153  -39.2791 C.3       5 UNK         0.0242 
     36 CB         21.8399  -23.8565  -39.5232 C.3       5 UNK        -0.1982 
     37 C          23.9190  -25.1463  -40.2022 C.2       5 UNK         0.5017 
     38 O          24.8468  -24.3694  -39.9730 O.2       5 UNK        -0.5012 
     39 N          23.9219  -26.0355  -41.2065 N.am      6 UNK        -0.4439 
     40 CA         25.0578  -26.2905  -42.0919 C.3       6 UNK         0.0297 
     41 CB         24.9043  -25.5196  -43.4128 C.3       6 UNK        -0.2006 
     42 C          25.2547  -27.7963  -42.3145 C.2       6 UNK         0.4892 
     43 O          26.3564  -28.2873  -42.0646 O.2       6 UNK        -0.5089 
     44 N          24.2041  -28.5085  -42.7490 N.am      7 UNK        -0.4243 
     45 CA         24.2190  -29.9595  -42.9510 C.3       7 UNK         0.0196 
     46 CB         23.9287  -30.2836  -44.4250 C.3       7 UNK        -0.2007 
     47 C          23.1652  -30.6061  -42.0477 C.2       7 UNK         0.5020 
     48 O          22.0018  -30.2000  -42.0852 O.2       7 UNK        -0.5147 
     49 N          23.5909  -31.6061  -41.2651 N.am      8 UNK        -0.4734 
     50 CA         22.7508  -32.3540  -40.3208 C.3       8 UNK         0.0238 
     51 CB         23.6328  -32.8737  -39.1732 C.3       8 UNK        -0.1912 
     52 C          21.9616  -33.5084  -40.9639 C.2       8 UNK         0.5038 
     53 O          21.0610  -34.0343  -40.3115 O.2       8 UNK        -0.5046 
     54 N          22.3112  -33.8693  -42.2079 N.am      9 UNK        -0.4200 
     55 CA         21.6708  -34.8651  -43.0905 C.3       9 UNK         0.0839 
     56 C          21.5171  -36.3186  -42.5438 C.2       9 UNK         0.5513 
     57 N          22.2095  -36.7011  -41.4782 N.am      9 UNK        -0.7519 
     58 O          20.8030  -37.1320  -43.1253 O.2       9 UNK        -0.4960 
     59 C59        20.4170  -34.3099  -43.8329 C.3       10 UNK        -0.0876 
     60 S60        18.8992  -34.1123  -42.8302 S.3       10 UNK        -0.2414 
     61 C61        18.9870  -32.3554  -42.3597 C.3       10 UNK         0.0169 
     62 H62        21.5371  -25.1444  -49.1495 H         1 UNK         0.0903 
     63 H63        22.2873  -23.8041  -48.2802 H         1 UNK         0.0903 
     64 H64        23.2875  -24.9266  -49.2060 H         1 UNK         0.0903 
     65 H65        20.9296  -26.8126  -47.7801 H         1 UNK         0.3096 
     66 H66        22.6792  -27.9431  -45.8199 H         1 UNK         0.1121 
     67 H67        20.6365  -29.4091  -45.3088 H         1 UNK         0.0849 
     68 H68        21.2553  -29.4855  -46.9321 H         1 UNK         0.0849 
     69 H69        17.3759  -29.9886  -47.4360 H         1 UNK         0.0865 
     70 H70        18.8963  -30.8042  -47.1759 H         1 UNK         0.0865 
     71 H71        19.4116  -31.6854  -44.9796 H         1 UNK         0.1346 
     72 H72        16.7356  -30.9730  -41.7020 H         1 UNK         0.1412 
     73 H73        16.1853  -28.9080  -45.4188 H         1 UNK         0.1426 
     74 H74        14.8950  -29.4396  -41.9269 H         1 UNK         0.0716 
     75 H75        14.3427  -29.0728  -43.5435 H         1 UNK         0.0716 
     76 H76        16.3703  -28.0543  -40.4988 H         1 UNK         0.0695 
     77 H77        16.7492  -26.3703  -40.7395 H         1 UNK         0.0695 
     78 H78        18.3024  -28.7269  -41.9153 H         1 UNK         0.0983 
     79 H79        19.0527  -27.3401  -43.4309 H         1 UNK         0.3095 
     80 H80        19.1227  -24.3702  -44.1482 H         1 UNK         0.0454 
     81 H81        21.8876  -24.5047  -42.8397 H         1 UNK         0.0851 
     82 H82        20.7280  -23.1850  -42.7131 H         1 UNK         0.0851 
     83 H83        21.4878  -23.5346  -44.2528 H         1 UNK         0.0851 
     84 H84        19.9543  -25.7416  -45.6634 H         1 UNK         0.2976 
     85 H85        20.5592  -28.8761  -41.2027 H         1 UNK         0.3116 
     86 H86        21.9891  -29.4168  -39.6482 H         1 UNK         0.0646 
     87 H87        19.9820  -28.7219  -37.4576 H         1 UNK         0.0847 
     88 H88        21.4182  -29.7145  -37.3048 H         1 UNK         0.0847 
     89 H89        20.0770  -30.2765  -38.2872 H         1 UNK         0.0847 
     90 H90        21.0103  -26.2272  -39.9820 H         1 UNK         0.3040 
     91 H91        23.0579  -25.0675  -38.2531 H         1 UNK         0.1015 
     92 H92        21.4575  -23.8177  -40.5405 H         1 UNK         0.0786 
     93 H93        22.4297  -22.9529  -39.3633 H         1 UNK         0.0786 
     94 H94        20.9880  -23.8121  -38.8443 H         1 UNK         0.0786 
     95 H95        23.1187  -26.6390  -41.3124 H         1 UNK         0.3172 
     96 H96        25.9725  -25.9340  -41.6128 H         1 UNK         0.0595 
     97 H97        23.9856  -25.7805  -43.9341 H         1 UNK         0.0839 
     98 H98        25.7327  -25.7318  -44.0898 H         1 UNK         0.0839 
     99 H99        24.8925  -24.4432  -43.2421 H         1 UNK         0.0839 
    100 H100       23.3174  -28.0461  -42.9432 H         1 UNK         0.2998 
    101 H101       25.1991  -30.3731  -42.7041 H         1 UNK         0.0822 
    102 H102       24.6092  -29.7537  -45.0918 H         1 UNK         0.0787 
    103 H103       24.0484  -31.3502  -44.6187 H         1 UNK         0.0787 
    104 H104       22.9090  -30.0203  -44.7008 H         1 UNK         0.0787 
    105 H105       24.5675  -31.8650  -41.2975 H         1 UNK         0.3055 
    106 H106       22.0063  -31.6795  -39.8948 H         1 UNK         0.1106 
    107 H107       23.0369  -33.4086  -38.4320 H         1 UNK         0.0828 
    108 H108       24.4010  -33.5605  -39.5304 H         1 UNK         0.0828 
    109 H109       24.1291  -32.0541  -38.6530 H         1 UNK         0.0828 
    110 H110       23.0938  -33.3814  -42.6167 H         1 UNK         0.2931 
    111 H111       22.4182  -34.9960  -43.8741 H         1 UNK         0.0412 
    112 H112       22.1181  -37.6470  -41.1422 H         1 UNK         0.3472 
    113 H113       22.7911  -36.0427  -40.9856 H         1 UNK         0.3472 
    114 H114       20.1673  -34.9697  -44.6656 H         1 UNK         0.0970 
    115 H115       20.6743  -33.3597  -44.2984 H         1 UNK         0.0970 
    116 H116       20.0188  -32.0075  -42.3848 H         1 UNK         0.0612 
    117 H117       18.6686  -32.2672  -41.3199 H         1 UNK         0.0612 
@<TRIPOS>BOND
     1    1    2 1    
     2    1   62 1    
     3    1   63 1    
     4    1   64 1    
     5    2    3 2    
     6    2    4 am   BACKBONE|DICT|INTERRES
     7    4    5 1    
     8    4   65 1    
     9    5    6 1    
    10    5   25 1    
    11    5   66 1    
    12    6    7 1    
    13    6   67 1    
    14    6   68 1    
    15    7    8 1    
    16    8    9 1    
    17    8   69 1    
    18    8   70 1    
    19    9   10 ar   
    20    9   14 ar   
    21   10   11 ar   
    22   10   71 1    
    23   11   12 ar   
    24   11   61 1    
    25   12   13 ar   
    26   12   72 1    
    27   13   14 ar   
    28   13   15 1    
    29   14   73 1    
    30   15   16 1    
    31   15   74 1    
    32   15   75 1    
    33   16   17 1    
    34   17   18 1    
    35   17   76 1    
    36   17   77 1    
    37   18   19 1    
    38   18   27 1    
    39   18   78 1    
    40   19   20 am   BACKBONE|DICT|INTERRES
    41   19   79 1    
    42   20   21 2    
    43   20   22 1    
    44   22   23 1    
    45   22   24 1    
    46   22   80 1    
    47   23   81 1    
    48   23   82 1    
    49   23   83 1    
    50   24   25 am   BACKBONE|DICT|INTERRES
    51   24   84 1    
    52   25   26 2    
    53   27   28 2    
    54   27   29 am   BACKBONE|DICT|INTERRES
    55   29   30 1    
    56   29   85 1    
    57   30   31 1    
    58   30   32 1    
    59   30   86 1    
    60   31   87 1    
    61   31   88 1    
    62   31   89 1    
    63   32   33 2    
    64   32   34 am   BACKBONE|DICT|INTERRES
    65   34   35 1    
    66   34   90 1    
    67   35   36 1    
    68   35   37 1    
    69   35   91 1    
    70   36   92 1    
    71   36   93 1    
    72   36   94 1    
    73   37   38 2    
    74   37   39 am   BACKBONE|DICT|INTERRES
    75   39   40 1    
    76   39   95 1    
    77   40   41 1    
    78   40   42 1    
    79   40   96 1    
    80   41   97 1    
    81   41   98 1    
    82   41   99 1    
    83   42   43 2    
    84   42   44 am   BACKBONE|DICT|INTERRES
    85   44   45 1    
    86   44  100 1    
    87   45   46 1    
    88   45   47 1    
    89   45  101 1    
    90   46  102 1    
    91   46  103 1    
    92   46  104 1    
    93   47   48 2    
    94   47   49 am   BACKBONE|DICT|INTERRES
    95   49   50 1    
    96   49  105 1    
    97   50   51 1    
    98   50   52 1    
    99   50  106 1    
   100   51  107 1    
   101   51  108 1    
   102   51  109 1    
   103   52   53 2    
   104   52   54 am   BACKBONE|DICT|INTERRES
   105   54   55 1    
   106   54  110 1    
   107   55   56 1    
   108   55   59 1    
   109   55  111 1    
   110   56   57 am   BACKBONE|DICT|INTERRES
   111   56   58 2    
   112   57  112 1    
   113   57  113 1    
   114   59   60 1    
   115   59  114 1    
   116   59  115 1    
   117   60   61 1    
   118   61  116 1    
   119   61  117 1    
@<TRIPOS>SUBSTRUCTURE
     1 UNK         1 GROUP             0       ****    0 ROOT    
