@<TRIPOS>MOLECULE
3R8
117   119    1
SMALL
USER_CHARGES


@<TRIPOS>ATOM
      1 CA         15.3576  -29.2124  -41.2069 C.3       0 UNK        -0.2013 
      2 C          14.9639  -28.1802  -42.2531 C.2       0 UNK         0.4866 
      3 O          14.0193  -27.4202  -42.0389 O.2       0 UNK        -0.5176 
      4 N          15.6795  -28.1547  -43.3832 N.am      1 UNK        -0.4884 
      5 CA         15.4504  -27.2376  -44.5062 C.3       1 UNK         0.0853 
      6 C6         16.1259  -27.7011  -45.8208 C.3       10 UNK        -0.0849 
      7 S7         15.6206  -29.3945  -46.2823 S.3       10 UNK        -0.2776 
      8 C8         17.0802  -30.0014  -47.1924 C.3       10 UNK         0.0316 
      9 C9         18.3651  -29.9923  -46.3699 C.ar      10 UNK        -0.0863 
     10 C10        18.4053  -30.5457  -45.0859 C.ar      10 UNK        -0.1009 
     11 C11        19.5907  -30.5377  -44.3444 C.ar      10 UNK        -0.0712 
     12 C12        20.7517  -29.9956  -44.9032 C.ar      10 UNK        -0.0894 
     13 C13        20.7225  -29.4378  -46.1847 C.ar      10 UNK        -0.0745 
     14 C14        19.5284  -29.4380  -46.9105 C.ar      10 UNK        -0.0972 
     15 C15        21.9774  -28.8412  -46.8012 C.3       10 UNK         0.0209 
     16 S16        22.0036  -27.0291  -46.6367 S.3       10 UNK        -0.2568 
     17 C17        22.5875  -26.8375  -44.9227 C.3       10 UNK        -0.0983 
     18 CA         21.7546  -25.8141  -44.1140 C.3       3 UNK         0.0876 
     19 N          20.3883  -26.2921  -43.8872 N.am      3 UNK        -0.4424 
     20 C          19.3435  -25.4978  -43.6374 C.2       2 UNK         0.4918 
     21 O          19.3706  -24.2669  -43.7225 O.2       2 UNK        -0.4875 
     22 CA         18.0669  -26.1970  -43.1569 C.3       2 UNK         0.0481 
     23 CB         18.0940  -26.2881  -41.6201 C.3       2 UNK        -0.1831 
     24 N          16.9111  -25.3979  -43.5617 N.am      2 UNK        -0.4498 
     25 C          15.7835  -25.7568  -44.1972 C.2       1 UNK         0.5027 
     26 O          14.9735  -24.9015  -44.5528 O.2       1 UNK        -0.4969 
     27 C          22.4438  -25.5036  -42.7664 C.2       3 UNK         0.5005 
     28 O          21.9364  -25.8674  -41.7012 O.2       3 UNK        -0.5279 
     29 N          23.6176  -24.8616  -42.8385 N.am      4 UNK        -0.4463 
     30 CA         24.4766  -24.5690  -41.6856 C.3       4 UNK         0.0283 
     31 CB         25.4831  -23.4742  -42.0765 C.3       4 UNK        -0.1875 
     32 C          25.2179  -25.8027  -41.1310 C.2       4 UNK         0.4949 
     33 O          25.7086  -25.7454  -40.0032 O.2       4 UNK        -0.5039 
     34 N          25.2926  -26.8869  -41.9116 N.am      5 UNK        -0.4663 
     35 CA         25.9454  -28.1488  -41.5689 C.3       5 UNK         0.0242 
     36 CB         27.4640  -28.0222  -41.8130 C.3       5 UNK        -0.1982 
     37 C          25.3240  -29.2851  -42.3981 C.2       5 UNK         0.5017 
     38 O          24.4428  -29.0224  -43.2192 O.2       5 UNK        -0.5012 
     39 N          25.8356  -30.5062  -42.1851 N.am      6 UNK        -0.4439 
     40 CA         25.4814  -31.7861  -42.8149 C.3       6 UNK         0.0297 
     41 CB         25.4278  -31.6980  -44.3542 C.3       6 UNK        -0.2006 
     42 C          24.1936  -32.4019  -42.2446 C.2       6 UNK         0.4892 
     43 O          23.2051  -31.7004  -42.0249 O.2       6 UNK        -0.5089 
     44 N          24.2366  -33.7267  -42.0365 N.am      7 UNK        -0.4243 
     45 CA         23.1820  -34.5634  -41.4520 C.3       7 UNK         0.0196 
     46 CB         22.0033  -34.7187  -42.4417 C.3       7 UNK        -0.2007 
     47 C          22.7819  -34.0628  -40.0488 C.2       7 UNK         0.5020 
     48 O          23.6605  -33.8847  -39.2037 O.2       7 UNK        -0.5147 
     49 N          21.4825  -33.8382  -39.8225 N.am      8 UNK        -0.4734 
     50 CA         20.9418  -33.2619  -38.5879 C.3       8 UNK         0.0238 
     51 CB         19.4901  -33.7426  -38.4181 C.3       8 UNK        -0.1912 
     52 C          21.0041  -31.7216  -38.5560 C.2       8 UNK         0.5038 
     53 O          20.7214  -31.1400  -37.5071 O.2       8 UNK        -0.5046 
     54 N          21.3281  -31.0907  -39.6913 N.am      9 UNK        -0.4200 
     55 CA         21.3759  -29.6338  -39.8681 C.3       9 UNK         0.0839 
     56 C          22.7451  -29.0293  -39.4443 C.2       9 UNK         0.5513 
     57 N          22.9138  -27.7203  -39.5643 N.am      9 UNK        -0.7519 
     58 O          23.6568  -29.7181  -38.9898 O.2       9 UNK        -0.4960 
     59 C59        20.9510  -29.2326  -41.3062 C.3       10 UNK        -0.0876 
     60 S60        19.2664  -29.8162  -41.7095 S.3       10 UNK        -0.2414 
     61 C61        19.6066  -31.1112  -42.9380 C.3       10 UNK         0.0169 
     62 H62        16.1610  -29.8610  -41.5560 H         1 UNK         0.0903 
     63 H63        15.6936  -28.7167  -40.2965 H         1 UNK         0.0903 
     64 H64        14.5022  -29.8398  -40.9578 H         1 UNK         0.0903 
     65 H65        16.4348  -28.8127  -43.5092 H         1 UNK         0.3096 
     66 H66        14.3738  -27.2600  -44.6926 H         1 UNK         0.1121 
     67 H67        15.8554  -27.0371  -46.6443 H         1 UNK         0.0849 
     68 H68        17.2114  -27.6464  -45.7341 H         1 UNK         0.0849 
     69 H69        16.8867  -31.0220  -47.5248 H         1 UNK         0.0865 
     70 H70        17.1949  -29.4019  -48.0970 H         1 UNK         0.0865 
     71 H71        17.5095  -30.9766  -44.6601 H         1 UNK         0.1346 
     72 H72        21.6754  -30.0057  -44.3401 H         1 UNK         0.1412 
     73 H73        19.5109  -29.0065  -47.9023 H         1 UNK         0.1426 
     74 H74        22.0184  -29.0975  -47.8609 H         1 UNK         0.0716 
     75 H75        22.8752  -29.2693  -46.3516 H         1 UNK         0.0716 
     76 H76        22.5719  -27.8033  -44.4194 H         1 UNK         0.0695 
     77 H77        23.6371  -26.5452  -44.9830 H         1 UNK         0.0695 
     78 H78        21.7115  -24.8795  -44.6783 H         1 UNK         0.0983 
     79 H79        20.2832  -27.2900  -43.7817 H         1 UNK         0.3095 
     80 H80        18.0466  -27.1957  -43.5912 H         1 UNK         0.0454 
     81 H81        18.9705  -26.8326  -41.2708 H         1 UNK         0.0851 
     82 H82        18.1305  -25.2995  -41.1604 H         1 UNK         0.0851 
     83 H83        17.2197  -26.8001  -41.2253 H         1 UNK         0.0851 
     84 H84        17.0715  -24.4061  -43.4471 H         1 UNK         0.2976 
     85 H85        23.9716  -24.5867  -43.7442 H         1 UNK         0.3116 
     86 H86        23.8488  -24.1801  -40.8808 H         1 UNK         0.0646 
     87 H87        26.1148  -23.2043  -41.2288 H         1 UNK         0.0847 
     88 H88        24.9769  -22.5649  -42.4011 H         1 UNK         0.0847 
     89 H89        26.1430  -23.7996  -42.8817 H         1 UNK         0.0847 
     90 H90        24.7929  -26.9069  -42.7909 H         1 UNK         0.3040 
     91 H91        25.7603  -28.3716  -40.5157 H         1 UNK         0.1015 
     92 H92        27.8926  -27.2018  -41.2372 H         1 UNK         0.0786 
     93 H93        27.6855  -27.8408  -42.8655 H         1 UNK         0.0786 
     94 H94        27.9967  -28.9262  -41.5169 H         1 UNK         0.0786 
     95 H95        26.5355  -30.5839  -41.4605 H         1 UNK         0.3172 
     96 H96        26.3062  -32.4545  -42.5618 H         1 UNK         0.0595 
     97 H97        26.3253  -31.2315  -44.7600 H         1 UNK         0.0839 
     98 H98        24.5647  -31.1288  -44.7012 H         1 UNK         0.0839 
     99 H99        25.3496  -32.6920  -44.7959 H         1 UNK         0.0839 
    100 H100       25.1042  -34.2064  -42.2323 H         1 UNK         0.2998 
    101 H101       23.6186  -35.5522  -41.3033 H         1 UNK         0.0822 
    102 H102       22.3499  -35.1103  -43.3982 H         1 UNK         0.0787 
    103 H103       21.2577  -35.4211  -42.0668 H         1 UNK         0.0787 
    104 H104       21.5032  -33.7714  -42.6420 H         1 UNK         0.0787 
    105 H105       20.8263  -34.0115  -40.5705 H         1 UNK         0.3055 
    106 H106       21.5237  -33.6247  -37.7373 H         1 UNK         0.1106 
    107 H107       18.8511  -33.3934  -39.2304 H         1 UNK         0.0828 
    108 H108       19.4324  -34.8308  -38.3871 H         1 UNK         0.0828 
    109 H109       19.0616  -33.3720  -37.4858 H         1 UNK         0.0828 
    110 H110       21.6578  -31.6320  -40.4802 H         1 UNK         0.2931 
    111 H111       20.6437  -29.1937  -39.1882 H         1 UNK         0.0412 
    112 H112       23.7925  -27.3183  -39.2775 H         1 UNK         0.3472 
    113 H113       22.2299  -27.1323  -40.0247 H         1 UNK         0.3472 
    114 H114       21.6744  -29.5938  -42.0374 H         1 UNK         0.0970 
    115 H115       20.9414  -28.1508  -41.4119 H         1 UNK         0.0970 
    116 H116       20.5631  -31.5899  -42.7288 H         1 UNK         0.0612 
    117 H117       18.8492  -31.8906  -42.8438 H         1 UNK         0.0612 
@<TRIPOS>BOND
     1    1    2 1    
     2    1   62 1    
     3    1   63 1    
     4    1   64 1    
     5    2    3 2    
     6    2    4 am   BACKBONE|DICT|INTERRES
     7    4    5 1    
     8    4   65 1    
     9    5    6 1    
    10    5   25 1    
    11    5   66 1    
    12    6    7 1    
    13    6   67 1    
    14    6   68 1    
    15    7    8 1    
    16    8    9 1    
    17    8   69 1    
    18    8   70 1    
    19    9   10 ar   
    20    9   14 ar   
    21   10   11 ar   
    22   10   71 1    
    23   11   12 ar   
    24   11   61 1    
    25   12   13 ar   
    26   12   72 1    
    27   13   14 ar   
    28   13   15 1    
    29   14   73 1    
    30   15   16 1    
    31   15   74 1    
    32   15   75 1    
    33   16   17 1    
    34   17   18 1    
    35   17   76 1    
    36   17   77 1    
    37   18   19 1    
    38   18   27 1    
    39   18   78 1    
    40   19   20 am   BACKBONE|DICT|INTERRES
    41   19   79 1    
    42   20   21 2    
    43   20   22 1    
    44   22   23 1    
    45   22   24 1    
    46   22   80 1    
    47   23   81 1    
    48   23   82 1    
    49   23   83 1    
    50   24   25 am   BACKBONE|DICT|INTERRES
    51   24   84 1    
    52   25   26 2    
    53   27   28 2    
    54   27   29 am   BACKBONE|DICT|INTERRES
    55   29   30 1    
    56   29   85 1    
    57   30   31 1    
    58   30   32 1    
    59   30   86 1    
    60   31   87 1    
    61   31   88 1    
    62   31   89 1    
    63   32   33 2    
    64   32   34 am   BACKBONE|DICT|INTERRES
    65   34   35 1    
    66   34   90 1    
    67   35   36 1    
    68   35   37 1    
    69   35   91 1    
    70   36   92 1    
    71   36   93 1    
    72   36   94 1    
    73   37   38 2    
    74   37   39 am   BACKBONE|DICT|INTERRES
    75   39   40 1    
    76   39   95 1    
    77   40   41 1    
    78   40   42 1    
    79   40   96 1    
    80   41   97 1    
    81   41   98 1    
    82   41   99 1    
    83   42   43 2    
    84   42   44 am   BACKBONE|DICT|INTERRES
    85   44   45 1    
    86   44  100 1    
    87   45   46 1    
    88   45   47 1    
    89   45  101 1    
    90   46  102 1    
    91   46  103 1    
    92   46  104 1    
    93   47   48 2    
    94   47   49 am   BACKBONE|DICT|INTERRES
    95   49   50 1    
    96   49  105 1    
    97   50   51 1    
    98   50   52 1    
    99   50  106 1    
   100   51  107 1    
   101   51  108 1    
   102   51  109 1    
   103   52   53 2    
   104   52   54 am   BACKBONE|DICT|INTERRES
   105   54   55 1    
   106   54  110 1    
   107   55   56 1    
   108   55   59 1    
   109   55  111 1    
   110   56   57 am   BACKBONE|DICT|INTERRES
   111   56   58 2    
   112   57  112 1    
   113   57  113 1    
   114   59   60 1    
   115   59  114 1    
   116   59  115 1    
   117   60   61 1    
   118   61  116 1    
   119   61  117 1    
@<TRIPOS>SUBSTRUCTURE
     1 UNK         1 GROUP             0       ****    0 ROOT    
