@<TRIPOS>MOLECULE
3R8
117   119    1
SMALL
USER_CHARGES


@<TRIPOS>ATOM
      1 CA         17.5615  -24.2971  -38.1423 C.3       0 UNK        -0.2013 
      2 C          17.3651  -24.6524  -39.6087 C.2       0 UNK         0.4866 
      3 O          16.2368  -24.6273  -40.1012 O.2       0 UNK        -0.5176 
      4 N          18.4547  -24.9765  -40.3088 N.am      1 UNK        -0.4884 
      5 CA         18.4856  -25.3644  -41.7180 C.3       1 UNK         0.0853 
      6 C6         17.9137  -26.7885  -41.9753 C.3       10 UNK        -0.0849 
      7 S7         18.7039  -28.1231  -41.0022 S.3       10 UNK        -0.2776 
      8 C8         19.9723  -28.7546  -42.1461 C.3       10 UNK         0.0316 
      9 C9         19.3800  -29.6646  -43.2062 C.ar      10 UNK        -0.0863 
     10 C10        19.1846  -31.0154  -42.9249 C.ar      10 UNK        -0.1009 
     11 C11        18.6438  -31.8782  -43.8823 C.ar      10 UNK        -0.0712 
     12 C12        18.3146  -31.3668  -45.1429 C.ar      10 UNK        -0.0894 
     13 C13        18.5134  -30.0147  -45.4488 C.ar      10 UNK        -0.0745 
     14 C14        19.0444  -29.1688  -44.4672 C.ar      10 UNK        -0.0972 
     15 C15        18.1245  -29.5043  -46.8387 C.3       10 UNK         0.0209 
     16 S16        19.0081  -28.0065  -47.4064 S.3       10 UNK        -0.2568 
     17 C17        20.7270  -28.6089  -47.4810 C.3       10 UNK        -0.0983 
     18 CA         21.7834  -27.4952  -47.2264 C.3       3 UNK         0.0876 
     19 N          21.6583  -26.8757  -45.9058 N.am      3 UNK        -0.4424 
     20 C          21.2289  -25.6369  -45.6539 C.2       2 UNK         0.4918 
     21 O          20.7097  -24.8954  -46.4900 O.2       2 UNK        -0.4875 
     22 CA         21.4046  -25.1405  -44.2132 C.3       2 UNK         0.0481 
     23 CB         22.0229  -23.7303  -44.1610 C.3       2 UNK        -0.1831 
     24 N          20.1079  -25.1596  -43.5427 N.am      2 UNK        -0.4498 
     25 C          19.9333  -25.2240  -42.2170 C.2       1 UNK         0.5027 
     26 O          20.8584  -25.2221  -41.3964 O.2       1 UNK        -0.4969 
     27 C          23.2415  -27.9958  -47.3110 C.2       3 UNK         0.5005 
     28 O          24.1593  -27.2163  -47.0413 O.2       3 UNK        -0.5279 
     29 N          23.4483  -29.2818  -47.6369 N.am      4 UNK        -0.4463 
     30 CA         24.7345  -29.9734  -47.4844 C.3       4 UNK         0.0283 
     31 CB         24.7078  -31.2925  -48.2731 C.3       4 UNK        -0.1875 
     32 C          25.0754  -30.2330  -46.0033 C.2       4 UNK         0.4949 
     33 O          26.2490  -30.1964  -45.6336 O.2       4 UNK        -0.5039 
     34 N          24.0375  -30.4606  -45.1884 N.am      5 UNK        -0.4663 
     35 CA         24.0852  -30.4680  -43.7271 C.3       5 UNK         0.0242 
     36 CB         23.2174  -31.6300  -43.2163 C.3       5 UNK        -0.1982 
     37 C          23.5432  -29.1242  -43.2144 C.2       5 UNK         0.5017 
     38 O          22.8117  -28.4492  -43.9434 O.2       5 UNK        -0.5012 
     39 N          23.8837  -28.7598  -41.9747 N.am      6 UNK        -0.4439 
     40 CA         23.4462  -27.5212  -41.3330 C.3       6 UNK         0.0297 
     41 CB         24.5840  -26.4884  -41.3636 C.3       6 UNK        -0.2006 
     42 C          23.0023  -27.8147  -39.8990 C.2       6 UNK         0.4892 
     43 O          23.5773  -28.6944  -39.2552 O.2       6 UNK        -0.5089 
     44 N          21.9868  -27.0714  -39.4393 N.am      7 UNK        -0.4243 
     45 CA         21.3179  -27.1196  -38.1277 C.3       7 UNK         0.0196 
     46 CB         22.3048  -26.8287  -36.9804 C.3       7 UNK        -0.2007 
     47 C          20.5019  -28.3979  -37.8445 C.2       7 UNK         0.5020 
     48 O          19.4590  -28.3044  -37.1966 O.2       7 UNK        -0.5147 
     49 N          20.9588  -29.5527  -38.3342 N.am      8 UNK        -0.4734 
     50 CA         20.2860  -30.8478  -38.2850 C.3       8 UNK         0.0238 
     51 CB         20.5229  -31.5094  -36.9143 C.3       8 UNK        -0.1912 
     52 C          20.8274  -31.7197  -39.4255 C.2       8 UNK         0.5038 
     53 O          21.8621  -31.3847  -40.0062 O.2       8 UNK        -0.5046 
     54 N          20.1314  -32.8239  -39.7247 N.am      9 UNK        -0.4200 
     55 CA         20.5278  -33.7957  -40.7620 C.3       9 UNK         0.0839 
     56 C          21.7478  -34.6887  -40.3873 C.2       9 UNK         0.5513 
     57 N          22.2115  -34.7017  -39.1433 N.am      9 UNK        -0.7519 
     58 O          22.2847  -35.3825  -41.2467 O.2       9 UNK        -0.4960 
     59 C59        19.3347  -34.6696  -41.2363 C.3       10 UNK        -0.0876 
     60 S60        17.9142  -33.7104  -41.8681 S.3       10 UNK        -0.2414 
     61 C61        18.4340  -33.3632  -43.5874 C.3       10 UNK         0.0169 
     62 H62        17.1955  -23.2894  -37.9470 H         1 UNK         0.0903 
     63 H63        17.0056  -24.9907  -37.5120 H         1 UNK         0.0903 
     64 H64        18.6103  -24.3403  -37.8487 H         1 UNK         0.0903 
     65 H65        19.3748  -24.9410  -39.8883 H         1 UNK         0.3096 
     66 H66        17.8846  -24.6403  -42.2730 H         1 UNK         0.1121 
     67 H67        17.9453  -27.0322  -43.0367 H         1 UNK         0.0849 
     68 H68        16.8527  -26.7961  -41.7224 H         1 UNK         0.0849 
     69 H69        20.7186  -29.3050  -41.5715 H         1 UNK         0.0865 
     70 H70        20.5075  -27.9321  -42.6162 H         1 UNK         0.0865 
     71 H71        19.4496  -31.3864  -41.9483 H         1 UNK         0.1346 
     72 H72        17.9009  -32.0269  -45.8933 H         1 UNK         0.1412 
     73 H73        19.2047  -28.1224  -44.6811 H         1 UNK         0.1426 
     74 H74        17.0549  -29.2915  -46.8377 H         1 UNK         0.0716 
     75 H75        18.2821  -30.2903  -47.5790 H         1 UNK         0.0716 
     76 H76        20.8635  -29.0493  -48.4703 H         1 UNK         0.0695 
     77 H77        20.8493  -29.4164  -46.7573 H         1 UNK         0.0695 
     78 H78        21.6771  -26.7357  -48.0041 H         1 UNK         0.0983 
     79 H79        22.0947  -27.4053  -45.1490 H         1 UNK         0.3095 
     80 H80        22.0836  -25.8227  -43.7000 H         1 UNK         0.0454 
     81 H81        21.3632  -22.9833  -44.6037 H         1 UNK         0.0851 
     82 H82        22.9664  -23.6993  -44.7072 H         1 UNK         0.0851 
     83 H83        22.2337  -23.4257  -43.1359 H         1 UNK         0.0851 
     84 H84        19.3057  -25.1715  -44.1591 H         1 UNK         0.2976 
     85 H85        22.6533  -29.8524  -47.8864 H         1 UNK         0.3116 
     86 H86        25.5207  -29.3417  -47.9036 H         1 UNK         0.0646 
     87 H87        23.9377  -31.9716  -47.9050 H         1 UNK         0.0847 
     88 H88        25.6638  -31.8120  -48.1927 H         1 UNK         0.0847 
     89 H89        24.5246  -31.1181  -49.3334 H         1 UNK         0.0847 
     90 H90        23.1111  -30.4049  -45.5838 H         1 UNK         0.3040 
     91 H91        25.1118  -30.5989  -43.3776 H         1 UNK         0.1015 
     92 H92        22.1610  -31.4822  -43.4464 H         1 UNK         0.0786 
     93 H93        23.3055  -31.7332  -42.1351 H         1 UNK         0.0786 
     94 H94        23.5258  -32.5798  -43.6533 H         1 UNK         0.0786 
     95 H95        24.3995  -29.3952  -41.3790 H         1 UNK         0.3172 
     96 H96        22.5907  -27.1077  -41.8645 H         1 UNK         0.0595 
     97 H97        24.2734  -25.5527  -40.8965 H         1 UNK         0.0839 
     98 H98        24.8784  -26.2562  -42.3872 H         1 UNK         0.0839 
     99 H99        25.4670  -26.8446  -40.8315 H         1 UNK         0.0839 
    100 H100       21.5936  -26.3921  -40.0877 H         1 UNK         0.2998 
    101 H101       20.5959  -26.3019  -38.1480 H         1 UNK         0.0822 
    102 H102       21.7795  -26.7514  -36.0275 H         1 UNK         0.0787 
    103 H103       23.0505  -27.6169  -36.8738 H         1 UNK         0.0787 
    104 H104       22.8306  -25.8871  -37.1383 H         1 UNK         0.0787 
    105 H105       21.8371  -29.5519  -38.8494 H         1 UNK         0.3055 
    106 H106       19.2161  -30.6978  -38.4480 H         1 UNK         0.1106 
    107 H107       20.0240  -32.4769  -36.8487 H         1 UNK         0.0828 
    108 H108       21.5848  -31.6734  -36.7266 H         1 UNK         0.0828 
    109 H109       20.1330  -30.8940  -36.1034 H         1 UNK         0.0828 
    110 H110       19.2916  -33.0415  -39.2087 H         1 UNK         0.2931 
    111 H111       20.8596  -33.2205  -41.6284 H         1 UNK         0.0412 
    112 H112       21.7838  -34.1336  -38.4306 H         1 UNK         0.3472 
    113 H113       23.0039  -35.2829  -38.9183 H         1 UNK         0.3472 
    114 H114       18.9777  -35.2894  -40.4119 H         1 UNK         0.0970 
    115 H115       19.6496  -35.3697  -42.0128 H         1 UNK         0.0970 
    116 H116       17.6702  -33.7701  -44.2518 H         1 UNK         0.0612 
    117 H117       19.3574  -33.8939  -43.8207 H         1 UNK         0.0612 
@<TRIPOS>BOND
     1    1    2 1    
     2    1   62 1    
     3    1   63 1    
     4    1   64 1    
     5    2    3 2    
     6    2    4 am   BACKBONE|DICT|INTERRES
     7    4    5 1    
     8    4   65 1    
     9    5    6 1    
    10    5   25 1    
    11    5   66 1    
    12    6    7 1    
    13    6   67 1    
    14    6   68 1    
    15    7    8 1    
    16    8    9 1    
    17    8   69 1    
    18    8   70 1    
    19    9   10 ar   
    20    9   14 ar   
    21   10   11 ar   
    22   10   71 1    
    23   11   12 ar   
    24   11   61 1    
    25   12   13 ar   
    26   12   72 1    
    27   13   14 ar   
    28   13   15 1    
    29   14   73 1    
    30   15   16 1    
    31   15   74 1    
    32   15   75 1    
    33   16   17 1    
    34   17   18 1    
    35   17   76 1    
    36   17   77 1    
    37   18   19 1    
    38   18   27 1    
    39   18   78 1    
    40   19   20 am   BACKBONE|DICT|INTERRES
    41   19   79 1    
    42   20   21 2    
    43   20   22 1    
    44   22   23 1    
    45   22   24 1    
    46   22   80 1    
    47   23   81 1    
    48   23   82 1    
    49   23   83 1    
    50   24   25 am   BACKBONE|DICT|INTERRES
    51   24   84 1    
    52   25   26 2    
    53   27   28 2    
    54   27   29 am   BACKBONE|DICT|INTERRES
    55   29   30 1    
    56   29   85 1    
    57   30   31 1    
    58   30   32 1    
    59   30   86 1    
    60   31   87 1    
    61   31   88 1    
    62   31   89 1    
    63   32   33 2    
    64   32   34 am   BACKBONE|DICT|INTERRES
    65   34   35 1    
    66   34   90 1    
    67   35   36 1    
    68   35   37 1    
    69   35   91 1    
    70   36   92 1    
    71   36   93 1    
    72   36   94 1    
    73   37   38 2    
    74   37   39 am   BACKBONE|DICT|INTERRES
    75   39   40 1    
    76   39   95 1    
    77   40   41 1    
    78   40   42 1    
    79   40   96 1    
    80   41   97 1    
    81   41   98 1    
    82   41   99 1    
    83   42   43 2    
    84   42   44 am   BACKBONE|DICT|INTERRES
    85   44   45 1    
    86   44  100 1    
    87   45   46 1    
    88   45   47 1    
    89   45  101 1    
    90   46  102 1    
    91   46  103 1    
    92   46  104 1    
    93   47   48 2    
    94   47   49 am   BACKBONE|DICT|INTERRES
    95   49   50 1    
    96   49  105 1    
    97   50   51 1    
    98   50   52 1    
    99   50  106 1    
   100   51  107 1    
   101   51  108 1    
   102   51  109 1    
   103   52   53 2    
   104   52   54 am   BACKBONE|DICT|INTERRES
   105   54   55 1    
   106   54  110 1    
   107   55   56 1    
   108   55   59 1    
   109   55  111 1    
   110   56   57 am   BACKBONE|DICT|INTERRES
   111   56   58 2    
   112   57  112 1    
   113   57  113 1    
   114   59   60 1    
   115   59  114 1    
   116   59  115 1    
   117   60   61 1    
   118   61  116 1    
   119   61  117 1    
@<TRIPOS>SUBSTRUCTURE
     1 UNK         1 GROUP             0       ****    0 ROOT    
