@<TRIPOS>MOLECULE
3R8
117   119    1
SMALL
USER_CHARGES


@<TRIPOS>ATOM
      1 CA         19.0288  -27.4701  -41.2753 C.3       0 UNK        -0.2013 
      2 C          17.7589  -26.8816  -41.8670 C.2       0 UNK         0.4866 
      3 O          17.1997  -25.9414  -41.3017 O.2       0 UNK        -0.5176 
      4 N          17.2862  -27.4386  -42.9910 N.am      1 UNK        -0.4884 
      5 CA         16.0346  -27.0337  -43.6476 C.3       1 UNK         0.0853 
      6 C6         15.5116  -28.0718  -44.6753 C.3       10 UNK        -0.0849 
      7 S7         15.4532  -29.7782  -44.0287 S.3       10 UNK        -0.2776 
      8 C8         16.6829  -30.6134  -45.0857 C.3       10 UNK         0.0316 
      9 C9         18.0886  -30.0726  -44.8622 C.ar      10 UNK        -0.0863 
     10 C10        18.8058  -30.4471  -43.7242 C.ar      10 UNK        -0.1009 
     11 C11        20.0938  -29.9539  -43.5064 C.ar      10 UNK        -0.0712 
     12 C12        20.6573  -29.0685  -44.4295 C.ar      10 UNK        -0.0894 
     13 C13        19.9588  -28.6910  -45.5860 C.ar      10 UNK        -0.0745 
     14 C14        18.6740  -29.2049  -45.7908 C.ar      10 UNK        -0.0972 
     15 C15        20.5410  -27.7546  -46.6514 C.3       10 UNK         0.0209 
     16 S16        22.2226  -27.1241  -46.3138 S.3       10 UNK        -0.2568 
     17 C17        22.0076  -25.3117  -46.4217 C.3       10 UNK        -0.0983 
     18 CA         21.3818  -24.5956  -45.1847 C.3       3 UNK         0.0876 
     19 N          19.9237  -24.6702  -45.1605 N.am      3 UNK        -0.4424 
     20 C          19.0941  -23.9998  -45.9670 C.2       2 UNK         0.4918 
     21 O          19.4859  -23.2305  -46.8457 O.2       2 UNK        -0.4875 
     22 CA         17.5816  -24.2197  -45.7786 C.3       2 UNK         0.0481 
     23 CB         16.8339  -24.2583  -47.1278 C.3       2 UNK        -0.1831 
     24 N          17.2881  -25.4329  -45.0107 N.am      2 UNK        -0.4498 
     25 C          16.1607  -25.6536  -44.3206 C.2       1 UNK         0.5027 
     26 O          15.2443  -24.8369  -44.2148 O.2       1 UNK        -0.4969 
     27 C          21.8920  -25.0952  -43.8197 C.2       3 UNK         0.5005 
     28 O          21.0880  -25.5669  -43.0102 O.2       3 UNK        -0.5279 
     29 N          23.2052  -24.9810  -43.5848 N.am      4 UNK        -0.4463 
     30 CA         23.8687  -25.5159  -42.3957 C.3       4 UNK         0.0283 
     31 CB         25.1476  -24.7106  -42.0981 C.3       4 UNK        -0.1875 
     32 C          24.1487  -27.0174  -42.5652 C.2       4 UNK         0.4949 
     33 O          23.4709  -27.8348  -41.9437 O.2       4 UNK        -0.5039 
     34 N          25.1430  -27.3479  -43.4044 N.am      5 UNK        -0.4663 
     35 CA         25.6642  -28.6969  -43.6625 C.3       5 UNK         0.0242 
     36 CB         24.6691  -29.5081  -44.5225 C.3       5 UNK        -0.1982 
     37 C          26.0950  -29.3951  -42.3556 C.2       5 UNK         0.5017 
     38 O          26.9488  -28.8574  -41.6481 O.2       5 UNK        -0.5012 
     39 N          25.4978  -30.5535  -42.0482 N.am      6 UNK        -0.4439 
     40 CA         25.7247  -31.3073  -40.8129 C.3       6 UNK         0.0297 
     41 CB         25.4775  -32.8008  -41.0898 C.3       6 UNK        -0.2006 
     42 C          24.8524  -30.8298  -39.6356 C.2       6 UNK         0.4892 
     43 O          25.0356  -31.3401  -38.5290 O.2       6 UNK        -0.5089 
     44 N          23.9075  -29.9061  -39.8812 N.am      7 UNK        -0.4243 
     45 CA         22.8659  -29.3858  -38.9819 C.3       7 UNK         0.0196 
     46 CB         23.4647  -28.6768  -37.7516 C.3       7 UNK        -0.2007 
     47 C          21.8223  -30.4436  -38.5833 C.2       7 UNK         0.5020 
     48 O          20.6345  -30.2552  -38.8432 O.2       7 UNK        -0.5147 
     49 N          22.2815  -31.5565  -38.0040 N.am      8 UNK        -0.4734 
     50 CA         21.4978  -32.7540  -37.7098 C.3       8 UNK         0.0238 
     51 CB         21.9818  -33.3480  -36.3739 C.3       8 UNK        -0.1912 
     52 C          21.6342  -33.7385  -38.8838 C.2       8 UNK         0.5038 
     53 O          22.2194  -34.8119  -38.7277 O.2       8 UNK        -0.5046 
     54 N          21.1310  -33.3268  -40.0541 N.am      9 UNK        -0.4200 
     55 CA         21.2253  -34.0702  -41.3228 C.3       9 UNK         0.0839 
     56 C          20.3436  -35.3509  -41.4020 C.2       9 UNK         0.5513 
     57 N          19.3957  -35.5667  -40.4977 N.am      9 UNK        -0.7519 
     58 O          20.5270  -36.1655  -42.3028 O.2       9 UNK        -0.4960 
     59 C59        20.9717  -33.1570  -42.5517 C.3       10 UNK        -0.0876 
     60 S60        22.0558  -31.6883  -42.5892 S.3       10 UNK        -0.2414 
     61 C61        20.8711  -30.3482  -42.2597 C.3       10 UNK         0.0169 
     62 H62        19.4436  -26.8089  -40.5149 H         1 UNK         0.0903 
     63 H63        18.8265  -28.4365  -40.8142 H         1 UNK         0.0903 
     64 H64        19.7872  -27.6003  -42.0442 H         1 UNK         0.0903 
     65 H65        17.7611  -28.2347  -43.3985 H         1 UNK         0.3096 
     66 H66        15.2767  -26.9389  -42.8662 H         1 UNK         0.1121 
     67 H67        14.4986  -27.8051  -44.9833 H         1 UNK         0.0849 
     68 H68        16.1048  -28.0518  -45.5903 H         1 UNK         0.0849 
     69 H69        16.6680  -31.6824  -44.8677 H         1 UNK         0.0865 
     70 H70        16.3898  -30.5157  -46.1323 H         1 UNK         0.0865 
     71 H71        18.3535  -31.1163  -43.0051 H         1 UNK         0.1346 
     72 H72        21.6459  -28.6833  -44.2292 H         1 UNK         0.1412 
     73 H73        18.1270  -28.9275  -46.6820 H         1 UNK         0.1426 
     74 H74        20.5733  -28.2898  -47.6013 H         1 UNK         0.0716 
     75 H75        19.8568  -26.9195  -46.8000 H         1 UNK         0.0716 
     76 H76        23.0024  -24.8983  -46.5940 H         1 UNK         0.0695 
     77 H77        21.4513  -25.0778  -47.3304 H         1 UNK         0.0695 
     78 H78        21.6440  -23.5364  -45.2375 H         1 UNK         0.0983 
     79 H79        19.5726  -25.1993  -44.3716 H         1 UNK         0.3095 
     80 H80        17.2242  -23.3575  -45.2121 H         1 UNK         0.0454 
     81 H81        17.1629  -25.0963  -47.7431 H         1 UNK         0.0851 
     82 H82        15.7568  -24.3482  -46.9880 H         1 UNK         0.0851 
     83 H83        17.0023  -23.3456  -47.7008 H         1 UNK         0.0851 
     84 H84        17.9776  -26.1699  -45.0476 H         1 UNK         0.2976 
     85 H85        23.7986  -24.6000  -44.3078 H         1 UNK         0.3116 
     86 H86        23.2075  -25.4031  -41.5333 H         1 UNK         0.0646 
     87 H87        25.6903  -25.1399  -41.2545 H         1 UNK         0.0847 
     88 H88        24.9076  -23.6807  -41.8335 H         1 UNK         0.0847 
     89 H89        25.8315  -24.6814  -42.9466 H         1 UNK         0.0847 
     90 H90        25.6502  -26.5977  -43.8510 H         1 UNK         0.3040 
     91 H91        26.5768  -28.5722  -44.2476 H         1 UNK         0.1015 
     92 H92        25.0708  -30.4888  -44.7806 H         1 UNK         0.0786 
     93 H93        24.4625  -28.9969  -45.4624 H         1 UNK         0.0786 
     94 H94        23.7164  -29.6582  -44.0170 H         1 UNK         0.0786 
     95 H95        24.7844  -30.9068  -42.6712 H         1 UNK         0.3172 
     96 H96        26.7676  -31.1912  -40.5106 H         1 UNK         0.0595 
     97 H97        25.7060  -33.4044  -40.2102 H         1 UNK         0.0839 
     98 H98        26.1073  -33.1655  -41.9013 H         1 UNK         0.0839 
     99 H99        24.4387  -32.9992  -41.3538 H         1 UNK         0.0839 
    100 H100       23.8611  -29.5224  -40.8201 H         1 UNK         0.2998 
    101 H101       22.3337  -28.6292  -39.5611 H         1 UNK         0.0822 
    102 H102       24.1501  -27.8835  -38.0500 H         1 UNK         0.0787 
    103 H103       22.6793  -28.2176  -37.1500 H         1 UNK         0.0787 
    104 H104       24.0089  -29.3624  -37.1018 H         1 UNK         0.0787 
    105 H105       23.2926  -31.6388  -37.9166 H         1 UNK         0.3055 
    106 H106       20.4402  -32.5010  -37.6049 H         1 UNK         0.1106 
    107 H107       21.8453  -32.6416  -35.5551 H         1 UNK         0.0828 
    108 H108       21.4212  -34.2489  -36.1209 H         1 UNK         0.0828 
    109 H109       23.0381  -33.6183  -36.4090 H         1 UNK         0.0828 
    110 H110       20.6884  -32.4202  -40.0967 H         1 UNK         0.2931 
    111 H111       22.2564  -34.4214  -41.3986 H         1 UNK         0.0412 
    112 H112       18.8348  -36.4021  -40.5597 H         1 UNK         0.3472 
    113 H113       19.2372  -34.9066  -39.7538 H         1 UNK         0.3472 
    114 H114       19.9260  -32.8508  -42.5854 H         1 UNK         0.0970 
    115 H115       21.1473  -33.7104  -43.4762 H         1 UNK         0.0970 
    116 H116       20.1898  -30.6446  -41.4619 H         1 UNK         0.0612 
    117 H117       21.4180  -29.4840  -41.8833 H         1 UNK         0.0612 
@<TRIPOS>BOND
     1    1    2 1    
     2    1   62 1    
     3    1   63 1    
     4    1   64 1    
     5    2    3 2    
     6    2    4 am   BACKBONE|DICT|INTERRES
     7    4    5 1    
     8    4   65 1    
     9    5    6 1    
    10    5   25 1    
    11    5   66 1    
    12    6    7 1    
    13    6   67 1    
    14    6   68 1    
    15    7    8 1    
    16    8    9 1    
    17    8   69 1    
    18    8   70 1    
    19    9   10 ar   
    20    9   14 ar   
    21   10   11 ar   
    22   10   71 1    
    23   11   12 ar   
    24   11   61 1    
    25   12   13 ar   
    26   12   72 1    
    27   13   14 ar   
    28   13   15 1    
    29   14   73 1    
    30   15   16 1    
    31   15   74 1    
    32   15   75 1    
    33   16   17 1    
    34   17   18 1    
    35   17   76 1    
    36   17   77 1    
    37   18   19 1    
    38   18   27 1    
    39   18   78 1    
    40   19   20 am   BACKBONE|DICT|INTERRES
    41   19   79 1    
    42   20   21 2    
    43   20   22 1    
    44   22   23 1    
    45   22   24 1    
    46   22   80 1    
    47   23   81 1    
    48   23   82 1    
    49   23   83 1    
    50   24   25 am   BACKBONE|DICT|INTERRES
    51   24   84 1    
    52   25   26 2    
    53   27   28 2    
    54   27   29 am   BACKBONE|DICT|INTERRES
    55   29   30 1    
    56   29   85 1    
    57   30   31 1    
    58   30   32 1    
    59   30   86 1    
    60   31   87 1    
    61   31   88 1    
    62   31   89 1    
    63   32   33 2    
    64   32   34 am   BACKBONE|DICT|INTERRES
    65   34   35 1    
    66   34   90 1    
    67   35   36 1    
    68   35   37 1    
    69   35   91 1    
    70   36   92 1    
    71   36   93 1    
    72   36   94 1    
    73   37   38 2    
    74   37   39 am   BACKBONE|DICT|INTERRES
    75   39   40 1    
    76   39   95 1    
    77   40   41 1    
    78   40   42 1    
    79   40   96 1    
    80   41   97 1    
    81   41   98 1    
    82   41   99 1    
    83   42   43 2    
    84   42   44 am   BACKBONE|DICT|INTERRES
    85   44   45 1    
    86   44  100 1    
    87   45   46 1    
    88   45   47 1    
    89   45  101 1    
    90   46  102 1    
    91   46  103 1    
    92   46  104 1    
    93   47   48 2    
    94   47   49 am   BACKBONE|DICT|INTERRES
    95   49   50 1    
    96   49  105 1    
    97   50   51 1    
    98   50   52 1    
    99   50  106 1    
   100   51  107 1    
   101   51  108 1    
   102   51  109 1    
   103   52   53 2    
   104   52   54 am   BACKBONE|DICT|INTERRES
   105   54   55 1    
   106   54  110 1    
   107   55   56 1    
   108   55   59 1    
   109   55  111 1    
   110   56   57 am   BACKBONE|DICT|INTERRES
   111   56   58 2    
   112   57  112 1    
   113   57  113 1    
   114   59   60 1    
   115   59  114 1    
   116   59  115 1    
   117   60   61 1    
   118   61  116 1    
   119   61  117 1    
@<TRIPOS>SUBSTRUCTURE
     1 UNK         1 GROUP             0       ****    0 ROOT    
