@<TRIPOS>MOLECULE
3R8
117   119    1
SMALL
USER_CHARGES


@<TRIPOS>ATOM
      1 CA         18.2843  -22.1713  -45.3445 C.3       0 UNK        -0.2013 
      2 C          18.4140  -23.6351  -45.7391 C.2       0 UNK         0.4866 
      3 O          19.0459  -23.9424  -46.7507 O.2       0 UNK        -0.5176 
      4 N          17.8160  -24.5372  -44.9502 N.am      1 UNK        -0.4884 
      5 CA         17.9182  -25.9933  -45.1123 C.3       1 UNK         0.0853 
      6 C6         16.6786  -26.7088  -44.5106 C.3       10 UNK        -0.0849 
      7 S7         16.1292  -28.0908  -45.5614 S.3       10 UNK        -0.2776 
      8 C8         15.1178  -29.0465  -44.3912 C.3       10 UNK         0.0316 
      9 C9         15.9624  -30.0239  -43.5890 C.ar      10 UNK        -0.0863 
     10 C10        16.4514  -31.1782  -44.2075 C.ar      10 UNK        -0.1009 
     11 C11        17.1979  -32.1122  -43.4849 C.ar      10 UNK        -0.0712 
     12 C12        17.4385  -31.8905  -42.1263 C.ar      10 UNK        -0.0894 
     13 C13        16.9426  -30.7479  -41.4911 C.ar      10 UNK        -0.0745 
     14 C14        16.2170  -29.8075  -42.2302 C.ar      10 UNK        -0.0972 
     15 C15        17.1370  -30.5807  -39.9916 C.3       10 UNK         0.0209 
     16 S16        18.8677  -30.2319  -39.5567 S.3       10 UNK        -0.2568 
     17 C17        18.9137  -28.4112  -39.6058 C.3       10 UNK        -0.0983 
     18 CA         20.1456  -27.8905  -40.3853 C.3       3 UNK         0.0876 
     19 N          20.0368  -28.1918  -41.8156 N.am      3 UNK        -0.4424 
     20 C          21.0582  -28.2299  -42.6802 C.2       2 UNK         0.4918 
     21 O          22.2254  -27.9791  -42.3843 O.2       2 UNK        -0.4875 
     22 CA         20.6938  -28.5243  -44.1480 C.3       2 UNK         0.0481 
     23 CB         20.5621  -30.0388  -44.3710 C.3       2 UNK        -0.1831 
     24 N          19.4747  -27.8447  -44.6162 N.am      2 UNK        -0.4498 
     25 C          19.2467  -26.5249  -44.5272 C.2       1 UNK         0.5027 
     26 O          20.0302  -25.7473  -43.9785 O.2       1 UNK        -0.4969 
     27 C          20.4098  -26.3990  -40.0685 C.2       3 UNK         0.5005 
     28 O          20.6265  -26.0802  -38.8975 O.2       3 UNK        -0.5279 
     29 N          20.4053  -25.5017  -41.0702 N.am      4 UNK        -0.4463 
     30 CA         20.8323  -24.1050  -40.9015 C.3       4 UNK         0.0283 
     31 CB         20.2948  -23.2428  -42.0557 C.3       4 UNK        -0.1875 
     32 C          22.3644  -23.9716  -40.7938 C.2       4 UNK         0.4949 
     33 O          22.8460  -22.9547  -40.2937 O.2       4 UNK        -0.5039 
     34 N          23.0942  -24.9966  -41.2497 N.am      5 UNK        -0.4663 
     35 CA         24.5340  -25.1665  -41.0822 C.3       5 UNK         0.0242 
     36 CB         25.1430  -25.4695  -42.4633 C.3       5 UNK        -0.1982 
     37 C          24.7932  -26.3294  -40.1108 C.2       5 UNK         0.5017 
     38 O          23.8617  -27.0414  -39.7259 O.2       5 UNK        -0.5012 
     39 N          26.0677  -26.5403  -39.7595 N.am      6 UNK        -0.4439 
     40 CA         26.5401  -27.7072  -39.0077 C.3       6 UNK         0.0297 
     41 CB         27.8693  -27.3539  -38.3139 C.3       6 UNK        -0.2006 
     42 C          26.6609  -28.9293  -39.9407 C.2       6 UNK         0.4892 
     43 O          27.7697  -29.3942  -40.2124 O.2       6 UNK        -0.5089 
     44 N          25.5170  -29.3905  -40.4554 N.am      7 UNK        -0.4243 
     45 CA         25.3897  -30.4465  -41.4532 C.3       7 UNK         0.0196 
     46 CB         25.5584  -29.8359  -42.8594 C.3       7 UNK        -0.2007 
     47 C          24.0287  -31.1400  -41.3069 C.2       7 UNK         0.5020 
     48 O          23.1818  -30.7007  -40.5257 O.2       7 UNK        -0.5147 
     49 N          23.8468  -32.2127  -42.0793 N.am      8 UNK        -0.4734 
     50 CA         22.6103  -32.9737  -42.2230 C.3       8 UNK         0.0238 
     51 CB         22.5462  -34.0776  -41.1522 C.3       8 UNK        -0.1912 
     52 C          22.5845  -33.5622  -43.6399 C.2       8 UNK         0.5038 
     53 O          23.6326  -33.6276  -44.2906 O.2       8 UNK        -0.5046 
     54 N          21.3940  -33.9660  -44.0935 N.am      9 UNK        -0.4200 
     55 CA         21.1573  -34.5412  -45.4270 C.3       9 UNK         0.0839 
     56 C          21.8380  -35.9242  -45.6161 C.2       9 UNK         0.5513 
     57 N          22.3094  -36.2241  -46.8185 N.am      9 UNK        -0.7519 
     58 O          21.8993  -36.7401  -44.6984 O.2       9 UNK        -0.4960 
     59 C59        19.6448  -34.6300  -45.7578 C.3       10 UNK        -0.0876 
     60 S60        18.7963  -33.0251  -45.5677 S.3       10 UNK        -0.2414 
     61 C61        17.7058  -33.3811  -44.1542 C.3       10 UNK         0.0169 
     62 H62        19.2694  -21.7490  -45.1471 H         1 UNK         0.0903 
     63 H63        17.8249  -21.6031  -46.1530 H         1 UNK         0.0903 
     64 H64        17.6753  -22.0414  -44.4501 H         1 UNK         0.0903 
     65 H65        17.3369  -24.2223  -44.1189 H         1 UNK         0.3096 
     66 H66        17.9558  -26.1928  -46.1862 H         1 UNK         0.1121 
     67 H67        15.8324  -26.0225  -44.4442 H         1 UNK         0.0849 
     68 H68        16.8562  -27.0523  -43.4892 H         1 UNK         0.0849 
     69 H69        14.5637  -28.3714  -43.7369 H         1 UNK         0.0865 
     70 H70        14.3666  -29.6042  -44.9527 H         1 UNK         0.0865 
     71 H71        16.2483  -31.3522  -45.2557 H         1 UNK         0.1346 
     72 H72        17.9941  -32.6179  -41.5500 H         1 UNK         0.1412 
     73 H73        15.8210  -28.9279  -41.7409 H         1 UNK         0.1426 
     74 H74        16.8385  -31.5056  -39.4959 H         1 UNK         0.0716 
     75 H75        16.4840  -29.8043  -39.5900 H         1 UNK         0.0716 
     76 H76        18.9299  -28.0747  -38.5672 H         1 UNK         0.0695 
     77 H77        17.9932  -28.0158  -40.0389 H         1 UNK         0.0695 
     78 H78        21.0265  -28.4190  -40.0107 H         1 UNK         0.0983 
     79 H79        19.1135  -28.4173  -42.1539 H         1 UNK         0.3095 
     80 H80        21.5178  -28.1630  -44.7664 H         1 UNK         0.0454 
     81 H81        20.4024  -30.2749  -45.4231 H         1 UNK         0.0851 
     82 H82        19.7324  -30.4619  -43.8031 H         1 UNK         0.0851 
     83 H83        21.4695  -30.5579  -44.0601 H         1 UNK         0.0851 
     84 H84        18.7713  -28.4241  -45.0550 H         1 UNK         0.2976 
     85 H85        20.2336  -25.8075  -42.0241 H         1 UNK         0.3116 
     86 H86        20.4011  -23.7220  -39.9740 H         1 UNK         0.0646 
     87 H87        20.7808  -23.4818  -43.0019 H         1 UNK         0.0847 
     88 H88        20.4757  -22.1846  -41.8629 H         1 UNK         0.0847 
     89 H89        19.2202  -23.3699  -42.1854 H         1 UNK         0.0847 
     90 H90        22.6051  -25.8250  -41.5681 H         1 UNK         0.3040 
     91 H91        24.9886  -24.2622  -40.6714 H         1 UNK         0.1015 
     92 H92        24.7537  -26.4007  -42.8784 H         1 UNK         0.0786 
     93 H93        26.2282  -25.5636  -42.4106 H         1 UNK         0.0786 
     94 H94        24.9248  -24.6720  -43.1739 H         1 UNK         0.0786 
     95 H95        26.7812  -25.9329  -40.1370 H         1 UNK         0.3172 
     96 H96        25.8152  -27.9548  -38.2290 H         1 UNK         0.0595 
     97 H97        28.2426  -28.1997  -37.7348 H         1 UNK         0.0839 
     98 H98        27.7466  -26.5197  -37.6230 H         1 UNK         0.0839 
     99 H99        28.6444  -27.0837  -39.0322 H         1 UNK         0.0839 
    100 H100       24.6397  -28.9615  -40.1718 H         1 UNK         0.2998 
    101 H101       26.1647  -31.1973  -41.2839 H         1 UNK         0.0822 
    102 H102       26.5235  -29.3401  -42.9649 H         1 UNK         0.0787 
    103 H103       25.5047  -30.5986  -43.6369 H         1 UNK         0.0787 
    104 H104       24.7810  -29.0994  -43.0690 H         1 UNK         0.0787 
    105 H105       24.5655  -32.4837  -42.7409 H         1 UNK         0.3055 
    106 H106       21.7559  -32.3014  -42.1113 H         1 UNK         0.1106 
    107 H107       21.6279  -34.6595  -41.2396 H         1 UNK         0.0828 
    108 H108       23.3829  -34.7718  -41.2398 H         1 UNK         0.0828 
    109 H109       22.5653  -33.6556  -40.1472 H         1 UNK         0.0828 
    110 H110       20.5867  -33.8987  -43.4939 H         1 UNK         0.2931 
    111 H111       21.6077  -33.8517  -46.1447 H         1 UNK         0.0412 
    112 H112       22.2549  -35.5646  -47.5796 H         1 UNK         0.3472 
    113 H113       22.7402  -37.1239  -46.9664 H         1 UNK         0.3472 
    114 H114       19.1574  -35.3867  -45.1398 H         1 UNK         0.0970 
    115 H115       19.5051  -34.9559  -46.7902 H         1 UNK         0.0970 
    116 H116       16.8565  -33.9733  -44.4978 H         1 UNK         0.0612 
    117 H117       18.2426  -33.9971  -43.4314 H         1 UNK         0.0612 
@<TRIPOS>BOND
     1    1    2 1    
     2    1   62 1    
     3    1   63 1    
     4    1   64 1    
     5    2    3 2    
     6    2    4 am   BACKBONE|DICT|INTERRES
     7    4    5 1    
     8    4   65 1    
     9    5    6 1    
    10    5   25 1    
    11    5   66 1    
    12    6    7 1    
    13    6   67 1    
    14    6   68 1    
    15    7    8 1    
    16    8    9 1    
    17    8   69 1    
    18    8   70 1    
    19    9   10 ar   
    20    9   14 ar   
    21   10   11 ar   
    22   10   71 1    
    23   11   12 ar   
    24   11   61 1    
    25   12   13 ar   
    26   12   72 1    
    27   13   14 ar   
    28   13   15 1    
    29   14   73 1    
    30   15   16 1    
    31   15   74 1    
    32   15   75 1    
    33   16   17 1    
    34   17   18 1    
    35   17   76 1    
    36   17   77 1    
    37   18   19 1    
    38   18   27 1    
    39   18   78 1    
    40   19   20 am   BACKBONE|DICT|INTERRES
    41   19   79 1    
    42   20   21 2    
    43   20   22 1    
    44   22   23 1    
    45   22   24 1    
    46   22   80 1    
    47   23   81 1    
    48   23   82 1    
    49   23   83 1    
    50   24   25 am   BACKBONE|DICT|INTERRES
    51   24   84 1    
    52   25   26 2    
    53   27   28 2    
    54   27   29 am   BACKBONE|DICT|INTERRES
    55   29   30 1    
    56   29   85 1    
    57   30   31 1    
    58   30   32 1    
    59   30   86 1    
    60   31   87 1    
    61   31   88 1    
    62   31   89 1    
    63   32   33 2    
    64   32   34 am   BACKBONE|DICT|INTERRES
    65   34   35 1    
    66   34   90 1    
    67   35   36 1    
    68   35   37 1    
    69   35   91 1    
    70   36   92 1    
    71   36   93 1    
    72   36   94 1    
    73   37   38 2    
    74   37   39 am   BACKBONE|DICT|INTERRES
    75   39   40 1    
    76   39   95 1    
    77   40   41 1    
    78   40   42 1    
    79   40   96 1    
    80   41   97 1    
    81   41   98 1    
    82   41   99 1    
    83   42   43 2    
    84   42   44 am   BACKBONE|DICT|INTERRES
    85   44   45 1    
    86   44  100 1    
    87   45   46 1    
    88   45   47 1    
    89   45  101 1    
    90   46  102 1    
    91   46  103 1    
    92   46  104 1    
    93   47   48 2    
    94   47   49 am   BACKBONE|DICT|INTERRES
    95   49   50 1    
    96   49  105 1    
    97   50   51 1    
    98   50   52 1    
    99   50  106 1    
   100   51  107 1    
   101   51  108 1    
   102   51  109 1    
   103   52   53 2    
   104   52   54 am   BACKBONE|DICT|INTERRES
   105   54   55 1    
   106   54  110 1    
   107   55   56 1    
   108   55   59 1    
   109   55  111 1    
   110   56   57 am   BACKBONE|DICT|INTERRES
   111   56   58 2    
   112   57  112 1    
   113   57  113 1    
   114   59   60 1    
   115   59  114 1    
   116   59  115 1    
   117   60   61 1    
   118   61  116 1    
   119   61  117 1    
@<TRIPOS>SUBSTRUCTURE
     1 UNK         1 GROUP             0       ****    0 ROOT    
