@<TRIPOS>MOLECULE
3R8
117   119    1
SMALL
USER_CHARGES


@<TRIPOS>ATOM
      1 CA         15.3711  -22.9695  -40.0434 C.3       0 UNK        -0.2013 
      2 C          15.5402  -23.4901  -41.4631 C.2       0 UNK         0.4866 
      3 O          14.8728  -23.0039  -42.3766 O.2       0 UNK        -0.5176 
      4 N          16.4262  -24.4726  -41.6549 N.am      1 UNK        -0.4884 
      5 CA         16.7557  -25.0692  -42.9485 C.3       1 UNK         0.0853 
      6 C6         15.6832  -26.0875  -43.4281 C.3       10 UNK        -0.0849 
      7 S7         15.8166  -26.4393  -45.2147 S.3       10 UNK        -0.2776 
      8 C8         15.1461  -28.1268  -45.3094 C.3       10 UNK         0.0316 
      9 C9         16.2164  -29.1894  -45.0989 C.ar      10 UNK        -0.0863 
     10 C10        16.4259  -29.7489  -43.8344 C.ar      10 UNK        -0.1009 
     11 C11        17.3430  -30.7907  -43.6609 C.ar      10 UNK        -0.0712 
     12 C12        18.0528  -31.2719  -44.7660 C.ar      10 UNK        -0.0894 
     13 C13        17.8623  -30.7128  -46.0333 C.ar      10 UNK        -0.0745 
     14 C14        16.9492  -29.6656  -46.1910 C.ar      10 UNK        -0.0972 
     15 C15        18.5874  -31.2934  -47.2408 C.3       10 UNK         0.0209 
     16 S16        20.3209  -30.7483  -47.3527 S.3       10 UNK        -0.2568 
     17 C17        20.1492  -29.0234  -47.9395 C.3       10 UNK        -0.0983 
     18 CA         20.7498  -27.9722  -46.9721 C.3       3 UNK         0.0876 
     19 N          20.1927  -28.1120  -45.6239 N.am      3 UNK        -0.4424 
     20 C          20.3422  -27.2410  -44.6209 C.2       2 UNK         0.4918 
     21 O          20.9725  -26.1867  -44.7087 O.2       2 UNK        -0.4875 
     22 CA         19.6489  -27.6292  -43.3098 C.3       2 UNK         0.0481 
     23 CB         20.5792  -27.4981  -42.0889 C.3       2 UNK        -0.1831 
     24 N          18.3898  -26.8980  -43.1567 N.am      2 UNK        -0.4498 
     25 C          18.1990  -25.6026  -42.8650 C.2       1 UNK         0.5027 
     26 O          19.0924  -24.8237  -42.5273 O.2       1 UNK        -0.4969 
     27 C          22.2958  -27.9747  -47.0160 C.2       3 UNK         0.5005 
     28 O          22.8716  -27.3970  -47.9402 O.2       3 UNK        -0.5279 
     29 N          22.9380  -28.6067  -46.0268 N.am      4 UNK        -0.4463 
     30 CA         24.3835  -28.6883  -45.8523 C.3       4 UNK         0.0283 
     31 CB         24.9588  -29.7888  -46.7641 C.3       4 UNK        -0.1875 
     32 C          24.6826  -28.9852  -44.3784 C.2       4 UNK         0.4949 
     33 O          23.7777  -29.3849  -43.6410 O.2       4 UNK        -0.5039 
     34 N          25.9482  -28.7836  -43.9836 N.am      5 UNK        -0.4663 
     35 CA         26.5987  -29.1259  -42.7040 C.3       5 UNK         0.0242 
     36 CB         26.6489  -30.6542  -42.5252 C.3       5 UNK        -0.1982 
     37 C          26.0548  -28.4507  -41.4275 C.2       5 UNK         0.5017 
     38 O          26.8083  -28.3254  -40.4609 O.2       5 UNK        -0.5012 
     39 N          24.7838  -28.0330  -41.4326 N.am      6 UNK        -0.4439 
     40 CA         24.0095  -27.3980  -40.3606 C.3       6 UNK         0.0297 
     41 CB         24.6499  -26.0822  -39.8750 C.3       6 UNK        -0.2006 
     42 C          23.6934  -28.3483  -39.1951 C.2       6 UNK         0.4892 
     43 O          22.5166  -28.5858  -38.9208 O.2       6 UNK        -0.5089 
     44 N          24.7383  -28.8768  -38.5439 N.am      7 UNK        -0.4243 
     45 CA         24.6826  -29.7860  -37.3965 C.3       7 UNK         0.0196 
     46 CB         26.1155  -30.0753  -36.9176 C.3       7 UNK        -0.2007 
     47 C          23.9320  -31.0840  -37.7357 C.2       7 UNK         0.5020 
     48 O          24.4834  -31.9431  -38.4261 O.2       7 UNK        -0.5147 
     49 N          22.6651  -31.1630  -37.3003 N.am      8 UNK        -0.4734 
     50 CA         21.6885  -32.2267  -37.5872 C.3       8 UNK         0.0238 
     51 CB         22.0841  -33.5284  -36.8576 C.3       8 UNK        -0.1912 
     52 C          21.4388  -32.4494  -39.0959 C.2       8 UNK         0.5038 
     53 O          21.0847  -33.5601  -39.4961 O.2       8 UNK        -0.5046 
     54 N          21.6554  -31.3983  -39.9006 N.am      9 UNK        -0.4200 
     55 CA         21.6789  -31.4186  -41.3730 C.3       9 UNK         0.0839 
     56 C          22.8251  -32.2875  -41.9826 C.2       9 UNK         0.5513 
     57 N          23.8618  -32.6482  -41.2336 N.am      9 UNK        -0.7519 
     58 O          22.7819  -32.6401  -43.1584 O.2       9 UNK        -0.4960 
     59 C59        20.2982  -31.7394  -42.0154 C.3       10 UNK        -0.0876 
     60 S60        18.9224  -30.7279  -41.3713 S.3       10 UNK        -0.2414 
     61 C61        17.5177  -31.4312  -42.2898 C.3       10 UNK         0.0169 
     62 H62        15.6117  -21.9074  -40.0021 H         1 UNK         0.0903 
     63 H63        14.3393  -23.0980  -39.7173 H         1 UNK         0.0903 
     64 H64        16.0168  -23.4911  -39.3371 H         1 UNK         0.0903 
     65 H65        16.9890  -24.8009  -40.8807 H         1 UNK         0.3096 
     66 H66        16.7951  -24.2570  -43.6789 H         1 UNK         0.1121 
     67 H67        15.7113  -27.0040  -42.8375 H         1 UNK         0.0849 
     68 H68        14.6856  -25.6749  -43.2699 H         1 UNK         0.0849 
     69 H69        14.3347  -28.2480  -44.5897 H         1 UNK         0.0865 
     70 H70        14.6901  -28.2620  -46.2915 H         1 UNK         0.0865 
     71 H71        15.8505  -29.3995  -42.9881 H         1 UNK         0.1346 
     72 H72        18.7374  -32.1003  -44.6482 H         1 UNK         0.1412 
     73 H73        16.7782  -29.2449  -47.1729 H         1 UNK         0.1426 
     74 H74        18.5717  -32.3824  -47.1757 H         1 UNK         0.0716 
     75 H75        18.0659  -31.0430  -48.1661 H         1 UNK         0.0716 
     76 H76        19.0934  -28.8008  -48.0975 H         1 UNK         0.0695 
     77 H77        20.6076  -28.9470  -48.9274 H         1 UNK         0.0695 
     78 H78        20.4457  -26.9872  -47.3334 H         1 UNK         0.0983 
     79 H79        19.6468  -28.9492  -45.4713 H         1 UNK         0.3095 
     80 H80        19.3705  -28.6803  -43.3829 H         1 UNK         0.0454 
     81 H81        20.0726  -27.7819  -41.1666 H         1 UNK         0.0851 
     82 H82        20.9645  -26.4862  -41.9662 H         1 UNK         0.0851 
     83 H83        21.4402  -28.1560  -42.2021 H         1 UNK         0.0851 
     84 H84        17.5739  -27.4139  -43.4577 H         1 UNK         0.2976 
     85 H85        22.4070  -29.0327  -45.2771 H         1 UNK         0.3116 
     86 H86        24.8303  -27.7247  -46.1063 H         1 UNK         0.0646 
     87 H87        24.5274  -30.7642  -46.5343 H         1 UNK         0.0847 
     88 H88        24.7642  -29.5780  -47.8157 H         1 UNK         0.0847 
     89 H89        26.0398  -29.8748  -46.6493 H         1 UNK         0.0847 
     90 H90        26.5793  -28.3962  -44.6726 H         1 UNK         0.3040 
     91 H91        27.6288  -28.7773  -42.7971 H         1 UNK         0.1015 
     92 H92        25.6501  -31.0866  -42.5066 H         1 UNK         0.0786 
     93 H93        27.1414  -30.9295  -41.5913 H         1 UNK         0.0786 
     94 H94        27.2019  -31.1293  -43.3354 H         1 UNK         0.0786 
     95 H95        24.2492  -28.3074  -42.2547 H         1 UNK         0.3172 
     96 H96        23.0557  -27.1294  -40.8118 H         1 UNK         0.0595 
     97 H97        25.6129  -26.2407  -39.3893 H         1 UNK         0.0839 
     98 H98        24.0042  -25.5830  -39.1514 H         1 UNK         0.0839 
     99 H99        24.8036  -25.3894  -40.7023 H         1 UNK         0.0839 
    100 H100       25.6590  -28.6684  -38.9189 H         1 UNK         0.2998 
    101 H101       24.1544  -29.2744  -36.5893 H         1 UNK         0.0822 
    102 H102       26.1126  -30.7599  -36.0683 H         1 UNK         0.0787 
    103 H103       26.7196  -30.5317  -37.7032 H         1 UNK         0.0787 
    104 H104       26.6185  -29.1628  -36.5969 H         1 UNK         0.0787 
    105 H105       22.2970  -30.3685  -36.7934 H         1 UNK         0.3055 
    106 H106       20.7348  -31.8919  -37.1758 H         1 UNK         0.1106 
    107 H107       22.2411  -33.3554  -35.7931 H         1 UNK         0.0828 
    108 H108       21.3021  -34.2834  -36.9483 H         1 UNK         0.0828 
    109 H109       22.9991  -33.9582  -37.2667 H         1 UNK         0.0828 
    110 H110       21.9323  -30.5214  -39.4736 H         1 UNK         0.2931 
    111 H111       21.9326  -30.3981  -41.6583 H         1 UNK         0.0412 
    112 H112       23.9338  -32.3730  -40.2590 H         1 UNK         0.3472 
    113 H113       24.5855  -33.2143  -41.6451 H         1 UNK         0.3472 
    114 H114       20.3559  -31.5774  -43.0920 H         1 UNK         0.0970 
    115 H115       20.0514  -32.7932  -41.8760 H         1 UNK         0.0970 
    116 H116       17.6399  -32.5108  -42.3890 H         1 UNK         0.0612 
    117 H117       16.6137  -31.2864  -41.6963 H         1 UNK         0.0612 
@<TRIPOS>BOND
     1    1    2 1    
     2    1   62 1    
     3    1   63 1    
     4    1   64 1    
     5    2    3 2    
     6    2    4 am   BACKBONE|DICT|INTERRES
     7    4    5 1    
     8    4   65 1    
     9    5    6 1    
    10    5   25 1    
    11    5   66 1    
    12    6    7 1    
    13    6   67 1    
    14    6   68 1    
    15    7    8 1    
    16    8    9 1    
    17    8   69 1    
    18    8   70 1    
    19    9   10 ar   
    20    9   14 ar   
    21   10   11 ar   
    22   10   71 1    
    23   11   12 ar   
    24   11   61 1    
    25   12   13 ar   
    26   12   72 1    
    27   13   14 ar   
    28   13   15 1    
    29   14   73 1    
    30   15   16 1    
    31   15   74 1    
    32   15   75 1    
    33   16   17 1    
    34   17   18 1    
    35   17   76 1    
    36   17   77 1    
    37   18   19 1    
    38   18   27 1    
    39   18   78 1    
    40   19   20 am   BACKBONE|DICT|INTERRES
    41   19   79 1    
    42   20   21 2    
    43   20   22 1    
    44   22   23 1    
    45   22   24 1    
    46   22   80 1    
    47   23   81 1    
    48   23   82 1    
    49   23   83 1    
    50   24   25 am   BACKBONE|DICT|INTERRES
    51   24   84 1    
    52   25   26 2    
    53   27   28 2    
    54   27   29 am   BACKBONE|DICT|INTERRES
    55   29   30 1    
    56   29   85 1    
    57   30   31 1    
    58   30   32 1    
    59   30   86 1    
    60   31   87 1    
    61   31   88 1    
    62   31   89 1    
    63   32   33 2    
    64   32   34 am   BACKBONE|DICT|INTERRES
    65   34   35 1    
    66   34   90 1    
    67   35   36 1    
    68   35   37 1    
    69   35   91 1    
    70   36   92 1    
    71   36   93 1    
    72   36   94 1    
    73   37   38 2    
    74   37   39 am   BACKBONE|DICT|INTERRES
    75   39   40 1    
    76   39   95 1    
    77   40   41 1    
    78   40   42 1    
    79   40   96 1    
    80   41   97 1    
    81   41   98 1    
    82   41   99 1    
    83   42   43 2    
    84   42   44 am   BACKBONE|DICT|INTERRES
    85   44   45 1    
    86   44  100 1    
    87   45   46 1    
    88   45   47 1    
    89   45  101 1    
    90   46  102 1    
    91   46  103 1    
    92   46  104 1    
    93   47   48 2    
    94   47   49 am   BACKBONE|DICT|INTERRES
    95   49   50 1    
    96   49  105 1    
    97   50   51 1    
    98   50   52 1    
    99   50  106 1    
   100   51  107 1    
   101   51  108 1    
   102   51  109 1    
   103   52   53 2    
   104   52   54 am   BACKBONE|DICT|INTERRES
   105   54   55 1    
   106   54  110 1    
   107   55   56 1    
   108   55   59 1    
   109   55  111 1    
   110   56   57 am   BACKBONE|DICT|INTERRES
   111   56   58 2    
   112   57  112 1    
   113   57  113 1    
   114   59   60 1    
   115   59  114 1    
   116   59  115 1    
   117   60   61 1    
   118   61  116 1    
   119   61  117 1    
@<TRIPOS>SUBSTRUCTURE
     1 UNK         1 GROUP             0       ****    0 ROOT    
