@<TRIPOS>MOLECULE
3R8
117   119    1
SMALL
USER_CHARGES


@<TRIPOS>ATOM
      1 CA         15.3643  -23.9208  -48.9944 C.3       0 UNK        -0.2013 
      2 C          16.0846  -25.2298  -48.7071 C.2       0 UNK         0.4866 
      3 O          16.8228  -25.7225  -49.5611 O.2       0 UNK        -0.5176 
      4 N          15.8707  -25.8010  -47.5149 N.am      1 UNK        -0.4884 
      5 CA         16.5368  -27.0202  -47.0441 C.3       1 UNK         0.0853 
      6 C6         15.7504  -27.6685  -45.8764 C.3       10 UNK        -0.0849 
      7 S7         15.9801  -29.4761  -45.8125 S.3       10 UNK        -0.2776 
      8 C8         15.1038  -29.8871  -44.2711 C.3       10 UNK         0.0316 
      9 C9         15.9961  -29.7062  -43.0519 C.ar      10 UNK        -0.0863 
     10 C10        16.8334  -30.7479  -42.6427 C.ar      10 UNK        -0.1009 
     11 C11        17.6475  -30.6036  -41.5160 C.ar      10 UNK        -0.0712 
     12 C12        17.6130  -29.4093  -40.7908 C.ar      10 UNK        -0.0894 
     13 C13        16.7827  -28.3583  -41.1909 C.ar      10 UNK        -0.0745 
     14 C14        15.9735  -28.5139  -42.3214 C.ar      10 UNK        -0.0972 
     15 C15        16.7442  -27.0625  -40.3902 C.3       10 UNK         0.0209 
     16 S16        18.3528  -26.2046  -40.3555 S.3       10 UNK        -0.2568 
     17 C17        18.6447  -25.8653  -42.1237 C.3       10 UNK        -0.0983 
     18 CA         19.9011  -26.6024  -42.6536 C.3       3 UNK         0.0876 
     19 N          19.8226  -26.7900  -44.0994 N.am      3 UNK        -0.4424 
     20 C          20.4900  -27.7145  -44.7960 C.2       2 UNK         0.4918 
     21 O          21.2342  -28.5475  -44.2787 O.2       2 UNK        -0.4875 
     22 CA         20.2731  -27.7145  -46.3250 C.3       2 UNK         0.0481 
     23 CB         21.0014  -28.8803  -47.0203 C.3       2 UNK        -0.1831 
     24 N          18.8539  -27.7572  -46.6955 N.am      2 UNK        -0.4498 
     25 C          17.9986  -26.7276  -46.6435 C.2       1 UNK         0.5027 
     26 O          18.3171  -25.6005  -46.2515 O.2       1 UNK        -0.4969 
     27 C          21.1922  -25.8394  -42.2939 C.2       3 UNK         0.5005 
     28 O          21.4855  -24.8164  -42.9193 O.2       3 UNK        -0.5279 
     29 N          21.9105  -26.3196  -41.2741 N.am      4 UNK        -0.4463 
     30 CA         23.0791  -25.6951  -40.6579 C.3       4 UNK         0.0283 
     31 CB         24.3074  -25.7314  -41.5924 C.3       4 UNK        -0.1875 
     32 C          23.3664  -26.4376  -39.3481 C.2       4 UNK         0.4949 
     33 O          22.8793  -27.5555  -39.1586 O.2       4 UNK        -0.5039 
     34 N          24.1763  -25.8205  -38.4786 N.am      5 UNK        -0.4663 
     35 CA         24.5556  -26.3545  -37.1631 C.3       5 UNK         0.0242 
     36 CB         25.2862  -25.2588  -36.3691 C.3       5 UNK        -0.1982 
     37 C          25.4081  -27.6376  -37.2140 C.2       5 UNK         0.5017 
     38 O          25.4261  -28.3829  -36.2338 O.2       5 UNK        -0.5012 
     39 N          26.0886  -27.8705  -38.3429 N.am      6 UNK        -0.4439 
     40 CA         26.9071  -29.0522  -38.6161 C.3       6 UNK         0.0297 
     41 CB         28.3961  -28.6953  -38.4419 C.3       6 UNK        -0.2006 
     42 C          26.5842  -29.6247  -40.0077 C.2       6 UNK         0.4892 
     43 O          27.4900  -30.0833  -40.7064 O.2       6 UNK        -0.5089 
     44 N          25.3026  -29.5741  -40.3994 N.am      7 UNK        -0.4243 
     45 CA         24.8001  -30.1383  -41.6538 C.3       7 UNK         0.0196 
     46 CB         23.3805  -29.6113  -41.9156 C.3       7 UNK        -0.2007 
     47 C          24.7860  -31.6756  -41.6393 C.2       7 UNK         0.5020 
     48 O          24.6132  -32.2851  -40.5820 O.2       7 UNK        -0.5147 
     49 N          24.8928  -32.2661  -42.8349 N.am      8 UNK        -0.4734 
     50 CA         24.7515  -33.7056  -43.0863 C.3       8 UNK         0.0238 
     51 CB         25.8530  -34.1473  -44.0684 C.3       8 UNK        -0.1912 
     52 C          23.3413  -34.0552  -43.6075 C.2       8 UNK         0.5038 
     53 O          23.1780  -35.0629  -44.2979 O.2       8 UNK        -0.5046 
     54 N          22.3578  -33.2008  -43.2993 N.am      9 UNK        -0.4200 
     55 CA         20.9433  -33.3280  -43.6694 C.3       9 UNK         0.0839 
     56 C          20.2356  -34.5680  -43.0516 C.2       9 UNK         0.5513 
     57 N          19.1458  -35.0188  -43.6587 N.am      9 UNK        -0.7519 
     58 O          20.6394  -35.1042  -42.0213 O.2       9 UNK        -0.4960 
     59 C59        20.1796  -32.0076  -43.3800 C.3       10 UNK        -0.0876 
     60 S60        20.2676  -31.4717  -41.6327 S.3       10 UNK        -0.2414 
     61 C61        18.5591  -31.7361  -41.0706 C.3       10 UNK         0.0169 
     62 H62        14.7345  -23.6096  -48.1611 H         1 UNK         0.0903 
     63 H63        16.0882  -23.1291  -49.1860 H         1 UNK         0.0903 
     64 H64        14.7324  -24.0256  -49.8760 H         1 UNK         0.0903 
     65 H65        15.2848  -25.3305  -46.8397 H         1 UNK         0.3096 
     66 H66        16.5537  -27.7170  -47.8861 H         1 UNK         0.1121 
     67 H67        16.0147  -27.2195  -44.9171 H         1 UNK         0.0849 
     68 H68        14.6799  -27.4961  -46.0024 H         1 UNK         0.0849 
     69 H69        14.1987  -29.2841  -44.1816 H         1 UNK         0.0865 
     70 H70        14.7677  -30.9237  -44.3260 H         1 UNK         0.0865 
     71 H71        16.8484  -31.6725  -43.2032 H         1 UNK         0.1346 
     72 H72        18.2406  -29.2937  -39.9175 H         1 UNK         0.1412 
     73 H73        15.3207  -27.7088  -42.6298 H         1 UNK         0.1426 
     74 H74        16.4446  -27.2885  -39.3660 H         1 UNK         0.0716 
     75 H75        15.9897  -26.3807  -40.7860 H         1 UNK         0.0716 
     76 H76        18.7153  -24.7861  -42.2745 H         1 UNK         0.0695 
     77 H77        17.7632  -26.1768  -42.6860 H         1 UNK         0.0695 
     78 H78        19.9369  -27.5977  -42.2023 H         1 UNK         0.0983 
     79 H79        19.2681  -26.1189  -44.6208 H         1 UNK         0.3095 
     80 H80        20.7015  -26.7854  -46.7063 H         1 UNK         0.0454 
     81 H81        20.6319  -29.8481  -46.6790 H         1 UNK         0.0851 
     82 H82        22.0725  -28.8503  -46.8157 H         1 UNK         0.0851 
     83 H83        20.8809  -28.8362  -48.1028 H         1 UNK         0.0851 
     84 H84        18.4914  -28.6634  -46.9580 H         1 UNK         0.2976 
     85 H85        21.6025  -27.1522  -40.7835 H         1 UNK         0.3116 
     86 H86        22.8283  -24.6588  -40.4222 H         1 UNK         0.0646 
     87 H87        24.6625  -26.7457  -41.7695 H         1 UNK         0.0847 
     88 H88        25.1394  -25.1743  -41.1609 H         1 UNK         0.0847 
     89 H89        24.0966  -25.2788  -42.5609 H         1 UNK         0.0847 
     90 H90        24.5359  -24.9057  -38.7140 H         1 UNK         0.3040 
     91 H91        23.6359  -26.6072  -36.6304 H         1 UNK         0.1015 
     92 H92        24.6586  -24.3771  -36.2378 H         1 UNK         0.0786 
     93 H93        26.2070  -24.9472  -36.8639 H         1 UNK         0.0786 
     94 H94        25.5557  -25.6119  -35.3726 H         1 UNK         0.0786 
     95 H95        26.0032  -27.2006  -39.0945 H         1 UNK         0.3172 
     96 H96        26.6644  -29.8456  -37.9062 H         1 UNK         0.0595 
     97 H97        28.7145  -27.9371  -39.1582 H         1 UNK         0.0839 
     98 H98        29.0304  -29.5708  -38.5871 H         1 UNK         0.0839 
     99 H99        28.5976  -28.3159  -37.4400 H         1 UNK         0.0839 
    100 H100       24.6111  -29.2125  -39.7558 H         1 UNK         0.2998 
    101 H101       25.4511  -29.8050  -42.4652 H         1 UNK         0.0822 
    102 H102       23.3787  -28.5435  -42.1178 H         1 UNK         0.0787 
    103 H103       22.9317  -30.0894  -42.7871 H         1 UNK         0.0787 
    104 H104       22.7196  -29.7926  -41.0673 H         1 UNK         0.0787 
    105 H105       25.0020  -31.6834  -43.6541 H         1 UNK         0.3055 
    106 H106       24.8878  -34.2629  -42.1567 H         1 UNK         0.1106 
    107 H107       25.8330  -35.2270  -44.2231 H         1 UNK         0.0828 
    108 H108       25.7369  -33.6754  -45.0448 H         1 UNK         0.0828 
    109 H109       26.8443  -33.8974  -43.6901 H         1 UNK         0.0828 
    110 H110       22.5751  -32.4306  -42.6856 H         1 UNK         0.2931 
    111 H111       20.9309  -33.4745  -44.7514 H         1 UNK         0.0412 
    112 H112       18.8038  -34.5928  -44.5061 H         1 UNK         0.3472 
    113 H113       18.6644  -35.8153  -43.2708 H         1 UNK         0.3472 
    114 H114       20.6014  -31.2059  -43.9881 H         1 UNK         0.0970 
    115 H115       19.1410  -32.0877  -43.7007 H         1 UNK         0.0970 
    116 H116       18.1940  -32.6989  -41.4316 H         1 UNK         0.0612 
    117 H117       18.5556  -31.7981  -39.9814 H         1 UNK         0.0612 
@<TRIPOS>BOND
     1    1    2 1    
     2    1   62 1    
     3    1   63 1    
     4    1   64 1    
     5    2    3 2    
     6    2    4 am   BACKBONE|DICT|INTERRES
     7    4    5 1    
     8    4   65 1    
     9    5    6 1    
    10    5   25 1    
    11    5   66 1    
    12    6    7 1    
    13    6   67 1    
    14    6   68 1    
    15    7    8 1    
    16    8    9 1    
    17    8   69 1    
    18    8   70 1    
    19    9   10 ar   
    20    9   14 ar   
    21   10   11 ar   
    22   10   71 1    
    23   11   12 ar   
    24   11   61 1    
    25   12   13 ar   
    26   12   72 1    
    27   13   14 ar   
    28   13   15 1    
    29   14   73 1    
    30   15   16 1    
    31   15   74 1    
    32   15   75 1    
    33   16   17 1    
    34   17   18 1    
    35   17   76 1    
    36   17   77 1    
    37   18   19 1    
    38   18   27 1    
    39   18   78 1    
    40   19   20 am   BACKBONE|DICT|INTERRES
    41   19   79 1    
    42   20   21 2    
    43   20   22 1    
    44   22   23 1    
    45   22   24 1    
    46   22   80 1    
    47   23   81 1    
    48   23   82 1    
    49   23   83 1    
    50   24   25 am   BACKBONE|DICT|INTERRES
    51   24   84 1    
    52   25   26 2    
    53   27   28 2    
    54   27   29 am   BACKBONE|DICT|INTERRES
    55   29   30 1    
    56   29   85 1    
    57   30   31 1    
    58   30   32 1    
    59   30   86 1    
    60   31   87 1    
    61   31   88 1    
    62   31   89 1    
    63   32   33 2    
    64   32   34 am   BACKBONE|DICT|INTERRES
    65   34   35 1    
    66   34   90 1    
    67   35   36 1    
    68   35   37 1    
    69   35   91 1    
    70   36   92 1    
    71   36   93 1    
    72   36   94 1    
    73   37   38 2    
    74   37   39 am   BACKBONE|DICT|INTERRES
    75   39   40 1    
    76   39   95 1    
    77   40   41 1    
    78   40   42 1    
    79   40   96 1    
    80   41   97 1    
    81   41   98 1    
    82   41   99 1    
    83   42   43 2    
    84   42   44 am   BACKBONE|DICT|INTERRES
    85   44   45 1    
    86   44  100 1    
    87   45   46 1    
    88   45   47 1    
    89   45  101 1    
    90   46  102 1    
    91   46  103 1    
    92   46  104 1    
    93   47   48 2    
    94   47   49 am   BACKBONE|DICT|INTERRES
    95   49   50 1    
    96   49  105 1    
    97   50   51 1    
    98   50   52 1    
    99   50  106 1    
   100   51  107 1    
   101   51  108 1    
   102   51  109 1    
   103   52   53 2    
   104   52   54 am   BACKBONE|DICT|INTERRES
   105   54   55 1    
   106   54  110 1    
   107   55   56 1    
   108   55   59 1    
   109   55  111 1    
   110   56   57 am   BACKBONE|DICT|INTERRES
   111   56   58 2    
   112   57  112 1    
   113   57  113 1    
   114   59   60 1    
   115   59  114 1    
   116   59  115 1    
   117   60   61 1    
   118   61  116 1    
   119   61  117 1    
@<TRIPOS>SUBSTRUCTURE
     1 UNK         1 GROUP             0       ****    0 ROOT    
