@<TRIPOS>MOLECULE
3R8
117   119    1
SMALL
USER_CHARGES


@<TRIPOS>ATOM
      1 CA         17.9233  -26.9864  -41.6087 C.3       0 UNK        -0.2013 
      2 C          17.4903  -26.5644  -43.0031 C.2       0 UNK         0.4866 
      3 O          18.2930  -26.6010  -43.9330 O.2       0 UNK        -0.5176 
      4 N          16.2233  -26.1530  -43.1478 N.am      1 UNK        -0.4884 
      5 CA         15.5928  -25.6768  -44.3881 C.3       1 UNK         0.0853 
      6 C6         15.4435  -26.7761  -45.4802 C.3       10 UNK        -0.0849 
      7 S7         14.4546  -28.1959  -44.8932 S.3       10 UNK        -0.2776 
      8 C8         15.2944  -29.6159  -45.6750 C.3       10 UNK         0.0316 
      9 C9         16.7364  -29.7802  -45.2109 C.ar      10 UNK        -0.0863 
     10 C10        17.0184  -30.1140  -43.8824 C.ar      10 UNK        -0.1009 
     11 C11        18.3414  -30.2411  -43.4472 C.ar      10 UNK        -0.0712 
     12 C12        19.3857  -30.0507  -44.3583 C.ar      10 UNK        -0.0894 
     13 C13        19.1170  -29.7306  -45.6928 C.ar      10 UNK        -0.0745 
     14 C14        17.7903  -29.5990  -46.1127 C.ar      10 UNK        -0.0972 
     15 C15        20.2554  -29.5393  -46.6869 C.3       10 UNK         0.0209 
     16 S16        20.5102  -27.7889  -47.1260 S.3       10 UNK        -0.2568 
     17 C17        21.2309  -27.1391  -45.5830 C.3       10 UNK        -0.0983 
     18 CA         21.2479  -25.5890  -45.5230 C.3       3 UNK         0.0876 
     19 N          19.9003  -25.0348  -45.6519 N.am      3 UNK        -0.4424 
     20 C          19.5884  -23.9043  -46.2980 C.2       2 UNK         0.4918 
     21 O          20.4257  -23.1944  -46.8577 O.2       2 UNK        -0.4875 
     22 CA         18.1036  -23.4900  -46.3532 C.3       2 UNK         0.0481 
     23 CB         17.6722  -23.1310  -47.7867 C.3       2 UNK        -0.1831 
     24 N          17.2239  -24.5440  -45.8446 N.am      2 UNK        -0.4498 
     25 C          16.2996  -24.3967  -44.8868 C.2       1 UNK         0.5027 
     26 O          16.0105  -23.3153  -44.3708 O.2       1 UNK        -0.4969 
     27 C          21.8662  -25.1385  -44.1865 C.2       3 UNK         0.5005 
     28 O          21.1399  -24.8233  -43.2394 O.2       3 UNK        -0.5279 
     29 N          23.2043  -25.1845  -44.1069 N.am      4 UNK        -0.4463 
     30 CA         23.9419  -25.1132  -42.8395 C.3       4 UNK         0.0283 
     31 CB         25.4253  -24.8170  -43.1128 C.3       4 UNK        -0.1875 
     32 C          23.7880  -26.4136  -42.0280 C.2       4 UNK         0.4949 
     33 O          23.6756  -26.3570  -40.8031 O.2       4 UNK        -0.5039 
     34 N          23.7631  -27.5507  -42.7426 N.am      5 UNK        -0.4663 
     35 CA         23.5284  -28.9331  -42.3030 C.3       5 UNK         0.0242 
     36 CB         22.1260  -29.0901  -41.6865 C.3       5 UNK        -0.1982 
     37 C          24.6081  -29.5137  -41.3755 C.2       5 UNK         0.5017 
     38 O          25.1268  -30.5923  -41.6634 O.2       5 UNK        -0.5012 
     39 N          24.9201  -28.8073  -40.2819 N.am      6 UNK        -0.4439 
     40 CA         25.8325  -29.2024  -39.2057 C.3       6 UNK         0.0297 
     41 CB         27.2996  -29.1333  -39.6892 C.3       6 UNK        -0.2006 
     42 C          25.4222  -30.5619  -38.6027 C.2       6 UNK         0.4892 
     43 O          24.3547  -30.6473  -37.9953 O.2       6 UNK        -0.5089 
     44 N          26.2531  -31.5935  -38.7958 N.am      7 UNK        -0.4243 
     45 CA         26.0240  -32.9584  -38.3198 C.3       7 UNK         0.0196 
     46 CB         27.3853  -33.6632  -38.1865 C.3       7 UNK        -0.2007 
     47 C          25.0733  -33.7870  -39.2067 C.2       7 UNK         0.5020 
     48 O          24.7105  -34.8915  -38.8006 O.2       7 UNK        -0.5147 
     49 N          24.7008  -33.2893  -40.3977 N.am      8 UNK        -0.4734 
     50 CA         23.8692  -34.0217  -41.3648 C.3       8 UNK         0.0238 
     51 CB         23.9248  -33.3249  -42.7342 C.3       8 UNK        -0.1912 
     52 C          22.4045  -34.2074  -40.9298 C.2       8 UNK         0.5038 
     53 O          21.7609  -35.1454  -41.4030 O.2       8 UNK        -0.5046 
     54 N          21.9118  -33.3234  -40.0555 N.am      9 UNK        -0.4200 
     55 CA         20.5589  -33.3489  -39.4860 C.3       9 UNK         0.0839 
     56 C          20.6341  -33.3832  -37.9391 C.2       9 UNK         0.5513 
     57 N          19.6472  -33.9809  -37.2858 N.am      9 UNK        -0.7519 
     58 O          21.5544  -32.8488  -37.3240 O.2       9 UNK        -0.4960 
     59 C59        19.7096  -32.1443  -39.9694 C.3       10 UNK        -0.0876 
     60 S60        19.3972  -32.1797  -41.7663 S.3       10 UNK        -0.2414 
     61 C61        18.6440  -30.5411  -41.9863 C.3       10 UNK         0.0169 
     62 H62        17.7480  -26.1850  -40.8916 H         1 UNK         0.0903 
     63 H63        17.3702  -27.8687  -41.2891 H         1 UNK         0.0903 
     64 H64        18.9869  -27.2250  -41.5952 H         1 UNK         0.0903 
     65 H65        15.6238  -26.1325  -42.3345 H         1 UNK         0.3096 
     66 H66        14.5844  -25.3638  -44.1113 H         1 UNK         0.1121 
     67 H67        14.9499  -26.3702  -46.3653 H         1 UNK         0.0849 
     68 H68        16.4200  -27.1303  -45.8099 H         1 UNK         0.0849 
     69 H69        14.7408  -30.5256  -45.4387 H         1 UNK         0.0865 
     70 H70        15.2442  -29.5036  -46.7592 H         1 UNK         0.0865 
     71 H71        16.2042  -30.2491  -43.1836 H         1 UNK         0.1346 
     72 H72        20.4089  -30.1514  -44.0249 H         1 UNK         0.1412 
     73 H73        17.5831  -29.3438  -47.1431 H         1 UNK         0.1426 
     74 H74        20.0326  -30.0991  -47.5962 H         1 UNK         0.0716 
     75 H75        21.1867  -29.9527  -46.2963 H         1 UNK         0.0716 
     76 H76        20.6707  -27.5422  -44.7376 H         1 UNK         0.0695 
     77 H77        22.2416  -27.5419  -45.4993 H         1 UNK         0.0695 
     78 H78        21.8755  -25.2174  -46.3361 H         1 UNK         0.0983 
     79 H79        19.1928  -25.5263  -45.1076 H         1 UNK         0.3095 
     80 H80        18.0159  -22.5946  -45.7349 H         1 UNK         0.0454 
     81 H81        18.2728  -22.3132  -48.1868 H         1 UNK         0.0851 
     82 H82        17.7816  -23.9789  -48.4637 H         1 UNK         0.0851 
     83 H83        16.6313  -22.8089  -47.8178 H         1 UNK         0.0851 
     84 H84        17.4244  -25.4796  -46.1704 H         1 UNK         0.2976 
     85 H85        23.7382  -25.4096  -44.9348 H         1 UNK         0.3116 
     86 H86        23.5361  -24.2934  -42.2424 H         1 UNK         0.0646 
     87 H87        25.9847  -24.7440  -42.1789 H         1 UNK         0.0847 
     88 H88        25.5503  -23.8695  -43.6373 H         1 UNK         0.0847 
     89 H89        25.8953  -25.5976  -43.7121 H         1 UNK         0.0847 
     90 H90        23.9228  -27.4556  -43.7347 H         1 UNK         0.3040 
     91 H91        23.5491  -29.5363  -43.2127 H         1 UNK         0.1015 
     92 H92        21.3585  -28.6965  -42.3524 H         1 UNK         0.0786 
     93 H93        22.0350  -28.5678  -40.7337 H         1 UNK         0.0786 
     94 H94        21.8981  -30.1413  -41.5044 H         1 UNK         0.0786 
     95 H95        24.4351  -27.9194  -40.1651 H         1 UNK         0.3172 
     96 H96        25.7121  -28.4654  -38.4104 H         1 UNK         0.0595 
     97 H97        27.5512  -28.1249  -40.0179 H         1 UNK         0.0839 
     98 H98        27.4965  -29.8050  -40.5255 H         1 UNK         0.0839 
     99 H99        27.9931  -29.3858  -38.8857 H         1 UNK         0.0839 
    100 H100       27.0897  -31.4366  -39.3392 H         1 UNK         0.2998 
    101 H101       25.5704  -32.9087  -37.3272 H         1 UNK         0.0822 
    102 H102       28.0469  -33.1245  -37.5078 H         1 UNK         0.0787 
    103 H103       27.2679  -34.6715  -37.7865 H         1 UNK         0.0787 
    104 H104       27.8898  -33.7520  -39.1495 H         1 UNK         0.0787 
    105 H105       25.0238  -32.3679  -40.6792 H         1 UNK         0.3055 
    106 H106       24.2977  -35.0202  -41.4786 H         1 UNK         0.1106 
    107 H107       23.4350  -32.3509  -42.7109 H         1 UNK         0.0828 
    108 H108       24.9518  -33.1793  -43.0693 H         1 UNK         0.0828 
    109 H109       23.4172  -33.9210  -43.4937 H         1 UNK         0.0828 
    110 H110       22.5367  -32.6349  -39.6600 H         1 UNK         0.2931 
    111 H111       20.0503  -34.2641  -39.7960 H         1 UNK         0.0412 
    112 H112       19.6702  -34.0038  -36.2779 H         1 UNK         0.3472 
    113 H113       18.8829  -34.4171  -37.7787 H         1 UNK         0.3472 
    114 H114       20.2012  -31.2047  -39.7098 H         1 UNK         0.0970 
    115 H115       18.7406  -32.1327  -39.4665 H         1 UNK         0.0970 
    116 H116       19.3145  -29.7764  -41.5953 H         1 UNK         0.0612 
    117 H117       17.7344  -30.4887  -41.3859 H         1 UNK         0.0612 
@<TRIPOS>BOND
     1    1    2 1    
     2    1   62 1    
     3    1   63 1    
     4    1   64 1    
     5    2    3 2    
     6    2    4 am   BACKBONE|DICT|INTERRES
     7    4    5 1    
     8    4   65 1    
     9    5    6 1    
    10    5   25 1    
    11    5   66 1    
    12    6    7 1    
    13    6   67 1    
    14    6   68 1    
    15    7    8 1    
    16    8    9 1    
    17    8   69 1    
    18    8   70 1    
    19    9   10 ar   
    20    9   14 ar   
    21   10   11 ar   
    22   10   71 1    
    23   11   12 ar   
    24   11   61 1    
    25   12   13 ar   
    26   12   72 1    
    27   13   14 ar   
    28   13   15 1    
    29   14   73 1    
    30   15   16 1    
    31   15   74 1    
    32   15   75 1    
    33   16   17 1    
    34   17   18 1    
    35   17   76 1    
    36   17   77 1    
    37   18   19 1    
    38   18   27 1    
    39   18   78 1    
    40   19   20 am   BACKBONE|DICT|INTERRES
    41   19   79 1    
    42   20   21 2    
    43   20   22 1    
    44   22   23 1    
    45   22   24 1    
    46   22   80 1    
    47   23   81 1    
    48   23   82 1    
    49   23   83 1    
    50   24   25 am   BACKBONE|DICT|INTERRES
    51   24   84 1    
    52   25   26 2    
    53   27   28 2    
    54   27   29 am   BACKBONE|DICT|INTERRES
    55   29   30 1    
    56   29   85 1    
    57   30   31 1    
    58   30   32 1    
    59   30   86 1    
    60   31   87 1    
    61   31   88 1    
    62   31   89 1    
    63   32   33 2    
    64   32   34 am   BACKBONE|DICT|INTERRES
    65   34   35 1    
    66   34   90 1    
    67   35   36 1    
    68   35   37 1    
    69   35   91 1    
    70   36   92 1    
    71   36   93 1    
    72   36   94 1    
    73   37   38 2    
    74   37   39 am   BACKBONE|DICT|INTERRES
    75   39   40 1    
    76   39   95 1    
    77   40   41 1    
    78   40   42 1    
    79   40   96 1    
    80   41   97 1    
    81   41   98 1    
    82   41   99 1    
    83   42   43 2    
    84   42   44 am   BACKBONE|DICT|INTERRES
    85   44   45 1    
    86   44  100 1    
    87   45   46 1    
    88   45   47 1    
    89   45  101 1    
    90   46  102 1    
    91   46  103 1    
    92   46  104 1    
    93   47   48 2    
    94   47   49 am   BACKBONE|DICT|INTERRES
    95   49   50 1    
    96   49  105 1    
    97   50   51 1    
    98   50   52 1    
    99   50  106 1    
   100   51  107 1    
   101   51  108 1    
   102   51  109 1    
   103   52   53 2    
   104   52   54 am   BACKBONE|DICT|INTERRES
   105   54   55 1    
   106   54  110 1    
   107   55   56 1    
   108   55   59 1    
   109   55  111 1    
   110   56   57 am   BACKBONE|DICT|INTERRES
   111   56   58 2    
   112   57  112 1    
   113   57  113 1    
   114   59   60 1    
   115   59  114 1    
   116   59  115 1    
   117   60   61 1    
   118   61  116 1    
   119   61  117 1    
@<TRIPOS>SUBSTRUCTURE
     1 UNK         1 GROUP             0       ****    0 ROOT    
