@<TRIPOS>MOLECULE
3R8
117   119    1
SMALL
USER_CHARGES


@<TRIPOS>ATOM
      1 CA         19.1310  -23.9950  -39.4212 C.3       0 UNK        -0.2013 
      2 C          18.7025  -24.1816  -40.8689 C.2       0 UNK         0.4866 
      3 O          18.0725  -23.2918  -41.4416 O.2       0 UNK        -0.5176 
      4 N          19.0256  -25.3395  -41.4580 N.am      1 UNK        -0.4884 
      5 CA         18.7190  -25.6953  -42.8476 C.3       1 UNK         0.0853 
      6 C6         19.0058  -27.1920  -43.1374 C.3       10 UNK        -0.0849 
      7 S7         18.1033  -28.3278  -42.0278 S.3       10 UNK        -0.2776 
      8 C8         16.9273  -29.1414  -43.1601 C.3       10 UNK         0.0316 
      9 C9         17.6243  -30.0669  -44.1500 C.ar      10 UNK        -0.0863 
     10 C10        18.2144  -31.2548  -43.7083 C.ar      10 UNK        -0.1009 
     11 C11        18.8696  -32.1037  -44.6066 C.ar      10 UNK        -0.0712 
     12 C12        18.9239  -31.7559  -45.9613 C.ar      10 UNK        -0.0894 
     13 C13        18.3140  -30.5847  -46.4215 C.ar      10 UNK        -0.0745 
     14 C14        17.6602  -29.7486  -45.5105 C.ar      10 UNK        -0.0972 
     15 C15        18.3273  -30.2431  -47.9074 C.3       10 UNK         0.0209 
     16 S16        19.8504  -29.3836  -48.4196 S.3       10 UNK        -0.2568 
     17 C17        19.6363  -27.7712  -47.5919 C.3       10 UNK        -0.0983 
     18 CA         20.9004  -26.8632  -47.5364 C.3       3 UNK         0.0876 
     19 N          20.6317  -25.6518  -46.7696 N.am      3 UNK        -0.4424 
     20 C          19.8144  -24.6602  -47.1336 C.2       2 UNK         0.4918 
     21 O          19.2923  -24.5752  -48.2463 O.2       2 UNK        -0.4875 
     22 CA         19.4689  -23.6433  -46.0306 C.3       2 UNK         0.0481 
     23 CB         18.5127  -22.5385  -46.5174 C.3       2 UNK        -0.1831 
     24 N          18.8515  -24.3498  -44.9027 N.am      2 UNK        -0.4498 
     25 C          19.5127  -24.8106  -43.8326 C.2       1 UNK         0.5027 
     26 O          20.7138  -24.6109  -43.6389 O.2       1 UNK        -0.4969 
     27 C          22.1442  -27.4860  -46.8769 C.2       3 UNK         0.5005 
     28 O          23.2450  -26.9584  -47.0503 O.2       3 UNK        -0.5279 
     29 N          21.9465  -28.5587  -46.1012 N.am      4 UNK        -0.4463 
     30 CA         22.9487  -29.1964  -45.2500 C.3       4 UNK         0.0283 
     31 CB         22.3777  -30.5354  -44.7637 C.3       4 UNK        -0.1875 
     32 C          23.3277  -28.3123  -44.0501 C.2       4 UNK         0.4949 
     33 O          22.6160  -27.3564  -43.7333 O.2       4 UNK        -0.5039 
     34 N          24.4249  -28.6698  -43.3719 N.am      5 UNK        -0.4663 
     35 CA         24.9758  -27.9699  -42.2052 C.3       5 UNK         0.0242 
     36 CB         26.4494  -28.3844  -42.0313 C.3       5 UNK        -0.1982 
     37 C          24.1457  -28.1630  -40.9161 C.2       5 UNK         0.5017 
     38 O          24.6865  -28.6006  -39.8986 O.2       5 UNK        -0.5012 
     39 N          22.8503  -27.8243  -40.9897 N.am      6 UNK        -0.4439 
     40 CA         21.8456  -27.7894  -39.9216 C.3       6 UNK         0.0297 
     41 CB         22.0297  -26.5071  -39.0799 C.3       6 UNK        -0.2006 
     42 C          21.8113  -29.0818  -39.0836 C.2       6 UNK         0.4892 
     43 O          21.2904  -30.0919  -39.5568 O.2       6 UNK        -0.5089 
     44 N          22.3986  -29.0312  -37.8785 N.am      7 UNK        -0.4243 
     45 CA         22.5152  -30.1241  -36.9071 C.3       7 UNK         0.0196 
     46 CB         23.1526  -29.5744  -35.6200 C.3       7 UNK        -0.2007 
     47 C          23.2809  -31.3674  -37.4018 C.2       7 UNK         0.5020 
     48 O          23.2049  -32.4085  -36.7485 O.2       7 UNK        -0.5147 
     49 N          23.9822  -31.2649  -38.5412 N.am      8 UNK        -0.4734 
     50 CA         24.5488  -32.4030  -39.2727 C.3       8 UNK         0.0238 
     51 CB         25.3868  -31.8833  -40.4512 C.3       8 UNK        -0.1912 
     52 C          23.4809  -33.3987  -39.7705 C.2       8 UNK         0.5038 
     53 O          23.7784  -34.5897  -39.8721 O.2       8 UNK        -0.5046 
     54 N          22.2680  -32.9027  -40.0474 N.am      9 UNK        -0.4200 
     55 CA         21.0753  -33.7063  -40.3326 C.3       9 UNK         0.0839 
     56 C          20.2827  -33.9478  -39.0230 C.2       9 UNK         0.5513 
     57 N          19.8439  -35.1753  -38.7809 N.am      9 UNK        -0.7519 
     58 O          20.0247  -33.0295  -38.2482 O.2       9 UNK        -0.4960 
     59 C59        20.1874  -33.0251  -41.4032 C.3       10 UNK        -0.0876 
     60 S60        20.9404  -33.1527  -43.0605 S.3       10 UNK        -0.2414 
     61 C61        19.4867  -33.4130  -44.1278 C.3       10 UNK         0.0169 
     62 H62        20.0039  -23.3449  -39.3684 H         1 UNK         0.0903 
     63 H63        18.3277  -23.5349  -38.8462 H         1 UNK         0.0903 
     64 H64        19.3783  -24.9441  -38.9471 H         1 UNK         0.0903 
     65 H65        19.5381  -26.0366  -40.9400 H         1 UNK         0.3096 
     66 H66        17.6528  -25.5139  -43.0020 H         1 UNK         0.1121 
     67 H67        18.7624  -27.4306  -44.1733 H         1 UNK         0.0849 
     68 H68        20.0700  -27.4059  -43.0267 H         1 UNK         0.0849 
     69 H69        16.3397  -28.3814  -43.6776 H         1 UNK         0.0865 
     70 H70        16.2175  -29.7230  -42.5702 H         1 UNK         0.0865 
     71 H71        18.1649  -31.5128  -42.6603 H         1 UNK         0.1346 
     72 H72        19.4244  -32.4068  -46.6653 H         1 UNK         0.1412 
     73 H73        17.1792  -28.8464  -45.8632 H         1 UNK         0.1426 
     74 H74        17.4627  -29.6297  -48.1664 H         1 UNK         0.0716 
     75 H75        18.2310  -31.1594  -48.4916 H         1 UNK         0.0716 
     76 H76        19.2705  -27.9316  -46.5796 H         1 UNK         0.0695 
     77 H77        18.8318  -27.2523  -48.1149 H         1 UNK         0.0695 
     78 H78        21.1793  -26.5834  -48.5545 H         1 UNK         0.0983 
     79 H79        21.0634  -25.6148  -45.8537 H         1 UNK         0.3095 
     80 H80        20.3988  -23.1636  -45.7183 H         1 UNK         0.0454 
     81 H81        18.3020  -21.8207  -45.7246 H         1 UNK         0.0851 
     82 H82        17.5613  -22.9458  -46.8619 H         1 UNK         0.0851 
     83 H83        18.9496  -21.9827  -47.3480 H         1 UNK         0.0851 
     84 H84        17.8721  -24.5759  -45.0072 H         1 UNK         0.2976 
     85 H85        21.0080  -28.9269  -46.0380 H         1 UNK         0.3116 
     86 H86        23.8449  -29.3812  -45.8458 H         1 UNK         0.0646 
     87 H87        23.1006  -31.0821  -44.1571 H         1 UNK         0.0847 
     88 H88        22.1063  -31.1821  -45.5984 H         1 UNK         0.0847 
     89 H89        21.4853  -30.3896  -44.1526 H         1 UNK         0.0847 
     90 H90        24.9324  -29.4875  -43.6787 H         1 UNK         0.3040 
     91 H91        24.9633  -26.8983  -42.4179 H         1 UNK         0.1015 
     92 H92        26.5500  -29.4527  -41.8395 H         1 UNK         0.0786 
     93 H93        26.9097  -27.8575  -41.1942 H         1 UNK         0.0786 
     94 H94        27.0356  -28.1466  -42.9191 H         1 UNK         0.0786 
     95 H95        22.5283  -27.5340  -41.9119 H         1 UNK         0.3172 
     96 H96        20.8747  -27.7256  -40.4146 H         1 UNK         0.0595 
     97 H97        23.0255  -26.4405  -38.6400 H         1 UNK         0.0839 
     98 H98        21.3022  -26.4559  -38.2685 H         1 UNK         0.0839 
     99 H99        21.8888  -25.6165  -39.6927 H         1 UNK         0.0839 
    100 H100       22.8409  -28.1618  -37.6184 H         1 UNK         0.2998 
    101 H101       21.5012  -30.4564  -36.6745 H         1 UNK         0.0822 
    102 H102       22.5633  -28.7588  -35.2003 H         1 UNK         0.0787 
    103 H103       23.2199  -30.3483  -34.8539 H         1 UNK         0.0787 
    104 H104       24.1630  -29.2042  -35.7985 H         1 UNK         0.0787 
    105 H105       24.0453  -30.3552  -38.9880 H         1 UNK         0.3055 
    106 H106       25.2075  -32.9444  -38.5901 H         1 UNK         0.1106 
    107 H107       25.8514  -32.7075  -40.9941 H         1 UNK         0.0828 
    108 H108       24.7773  -31.3254  -41.1633 H         1 UNK         0.0828 
    109 H109       26.1880  -31.2287  -40.1079 H         1 UNK         0.0828 
    110 H110       22.0914  -31.9173  -39.8773 H         1 UNK         0.2931 
    111 H111       21.3811  -34.6794  -40.7235 H         1 UNK         0.0412 
    112 H112       20.0413  -35.9343  -39.4151 H         1 UNK         0.3472 
    113 H113       19.3125  -35.3494  -37.9418 H         1 UNK         0.3472 
    114 H114       20.0219  -31.9731  -41.1622 H         1 UNK         0.0970 
    115 H115       19.2012  -33.4917  -41.4284 H         1 UNK         0.0970 
    116 H116       19.8049  -34.0111  -44.9829 H         1 UNK         0.0612 
    117 H117       18.7341  -34.0104  -43.6121 H         1 UNK         0.0612 
@<TRIPOS>BOND
     1    1    2 1    
     2    1   62 1    
     3    1   63 1    
     4    1   64 1    
     5    2    3 2    
     6    2    4 am   BACKBONE|DICT|INTERRES
     7    4    5 1    
     8    4   65 1    
     9    5    6 1    
    10    5   25 1    
    11    5   66 1    
    12    6    7 1    
    13    6   67 1    
    14    6   68 1    
    15    7    8 1    
    16    8    9 1    
    17    8   69 1    
    18    8   70 1    
    19    9   10 ar   
    20    9   14 ar   
    21   10   11 ar   
    22   10   71 1    
    23   11   12 ar   
    24   11   61 1    
    25   12   13 ar   
    26   12   72 1    
    27   13   14 ar   
    28   13   15 1    
    29   14   73 1    
    30   15   16 1    
    31   15   74 1    
    32   15   75 1    
    33   16   17 1    
    34   17   18 1    
    35   17   76 1    
    36   17   77 1    
    37   18   19 1    
    38   18   27 1    
    39   18   78 1    
    40   19   20 am   BACKBONE|DICT|INTERRES
    41   19   79 1    
    42   20   21 2    
    43   20   22 1    
    44   22   23 1    
    45   22   24 1    
    46   22   80 1    
    47   23   81 1    
    48   23   82 1    
    49   23   83 1    
    50   24   25 am   BACKBONE|DICT|INTERRES
    51   24   84 1    
    52   25   26 2    
    53   27   28 2    
    54   27   29 am   BACKBONE|DICT|INTERRES
    55   29   30 1    
    56   29   85 1    
    57   30   31 1    
    58   30   32 1    
    59   30   86 1    
    60   31   87 1    
    61   31   88 1    
    62   31   89 1    
    63   32   33 2    
    64   32   34 am   BACKBONE|DICT|INTERRES
    65   34   35 1    
    66   34   90 1    
    67   35   36 1    
    68   35   37 1    
    69   35   91 1    
    70   36   92 1    
    71   36   93 1    
    72   36   94 1    
    73   37   38 2    
    74   37   39 am   BACKBONE|DICT|INTERRES
    75   39   40 1    
    76   39   95 1    
    77   40   41 1    
    78   40   42 1    
    79   40   96 1    
    80   41   97 1    
    81   41   98 1    
    82   41   99 1    
    83   42   43 2    
    84   42   44 am   BACKBONE|DICT|INTERRES
    85   44   45 1    
    86   44  100 1    
    87   45   46 1    
    88   45   47 1    
    89   45  101 1    
    90   46  102 1    
    91   46  103 1    
    92   46  104 1    
    93   47   48 2    
    94   47   49 am   BACKBONE|DICT|INTERRES
    95   49   50 1    
    96   49  105 1    
    97   50   51 1    
    98   50   52 1    
    99   50  106 1    
   100   51  107 1    
   101   51  108 1    
   102   51  109 1    
   103   52   53 2    
   104   52   54 am   BACKBONE|DICT|INTERRES
   105   54   55 1    
   106   54  110 1    
   107   55   56 1    
   108   55   59 1    
   109   55  111 1    
   110   56   57 am   BACKBONE|DICT|INTERRES
   111   56   58 2    
   112   57  112 1    
   113   57  113 1    
   114   59   60 1    
   115   59  114 1    
   116   59  115 1    
   117   60   61 1    
   118   61  116 1    
   119   61  117 1    
@<TRIPOS>SUBSTRUCTURE
     1 UNK         1 GROUP             0       ****    0 ROOT    
