@<TRIPOS>MOLECULE
3R8
117   119    1
SMALL
USER_CHARGES


@<TRIPOS>ATOM
      1 CA         22.8785  -25.0327  -49.4306 C.3       0 UNK        -0.2013 
      2 C          22.2024  -25.6606  -48.2208 C.2       0 UNK         0.4866 
      3 O          22.8050  -25.7283  -47.1493 O.2       0 UNK        -0.5176 
      4 N          20.9583  -26.1281  -48.3843 N.am      1 UNK        -0.4884 
      5 CA         20.1360  -26.6961  -47.3129 C.3       1 UNK         0.0853 
      6 C6         18.9683  -27.5379  -47.8999 C.3       10 UNK        -0.0849 
      7 S7         17.7494  -28.1361  -46.6753 S.3       10 UNK        -0.2776 
      8 C8         18.4802  -29.7142  -46.1219 C.3       10 UNK         0.0316 
      9 C9         18.2338  -29.9964  -44.6398 C.ar      10 UNK        -0.0863 
     10 C10        19.2525  -30.5582  -43.8637 C.ar      10 UNK        -0.1009 
     11 C11        19.0515  -30.8316  -42.5067 C.ar      10 UNK        -0.0712 
     12 C12        17.8173  -30.5359  -41.9204 C.ar      10 UNK        -0.0894 
     13 C13        16.7986  -29.9468  -42.6747 C.ar      10 UNK        -0.0745 
     14 C14        17.0036  -29.7077  -44.0365 C.ar      10 UNK        -0.0972 
     15 C15        15.4854  -29.5370  -42.0221 C.3       10 UNK         0.0209 
     16 S16        15.3058  -27.7208  -41.9555 S.3       10 UNK        -0.2568 
     17 C17        16.3938  -27.2548  -40.5639 C.3       10 UNK        -0.0983 
     18 CA         17.8764  -27.0667  -40.9702 C.3       3 UNK         0.0876 
     19 N          18.0658  -26.1221  -42.0758 N.am      3 UNK        -0.4424 
     20 C          19.2203  -25.9881  -42.7394 C.2       2 UNK         0.4918 
     21 O          20.2536  -26.5982  -42.4509 O.2       2 UNK        -0.4875 
     22 CA         19.2291  -25.0571  -43.9535 C.3       2 UNK         0.0481 
     23 CB         20.0856  -23.8034  -43.7041 C.3       2 UNK        -0.1831 
     24 N          19.7666  -25.8436  -45.0543 N.am      2 UNK        -0.4498 
     25 C          19.6573  -25.5782  -46.3589 C.2       1 UNK         0.5027 
     26 O          19.1712  -24.5416  -46.8195 O.2       1 UNK        -0.4969 
     27 C          18.7520  -26.7005  -39.7568 C.2       3 UNK         0.5005 
     28 O          18.9361  -25.5148  -39.4685 O.2       3 UNK        -0.5279 
     29 N          19.3144  -27.7293  -39.1054 N.am      4 UNK        -0.4463 
     30 CA         20.3250  -27.6983  -38.0368 C.3       4 UNK         0.0283 
     31 CB         19.8425  -26.9186  -36.7980 C.3       4 UNK        -0.1875 
     32 C          21.7083  -27.2085  -38.5054 C.2       4 UNK         0.4949 
     33 O          22.7092  -27.8435  -38.1761 O.2       4 UNK        -0.5039 
     34 N          21.7485  -26.1245  -39.2911 N.am      5 UNK        -0.4663 
     35 CA         22.9571  -25.5331  -39.8753 C.3       5 UNK         0.0242 
     36 CB         22.5859  -24.2229  -40.5851 C.3       5 UNK        -0.1982 
     37 C          23.7062  -26.4796  -40.8305 C.2       5 UNK         0.5017 
     38 O          24.9371  -26.4738  -40.8412 O.2       5 UNK        -0.5012 
     39 N          22.9568  -27.3039  -41.5767 N.am      6 UNK        -0.4439 
     40 CA         23.4761  -28.3698  -42.4400 C.3       6 UNK         0.0297 
     41 CB         22.4114  -28.7296  -43.4894 C.3       6 UNK        -0.2006 
     42 C          23.9786  -29.6199  -41.6832 C.2       6 UNK         0.4892 
     43 O          24.4591  -30.5465  -42.3376 O.2       6 UNK        -0.5089 
     44 N          23.8817  -29.6299  -40.3428 N.am      7 UNK        -0.4243 
     45 CA         24.4394  -30.6110  -39.4044 C.3       7 UNK         0.0196 
     46 CB         25.9754  -30.4584  -39.3284 C.3       7 UNK        -0.2007 
     47 C          23.9789  -32.0528  -39.6846 C.2       7 UNK         0.5020 
     48 O          22.8767  -32.4213  -39.2812 O.2       7 UNK        -0.5147 
     49 N          24.8278  -32.8376  -40.3625 N.am      8 UNK        -0.4734 
     50 CA         24.5734  -34.2244  -40.7666 C.3       8 UNK         0.0238 
     51 CB         25.9087  -34.8772  -41.1624 C.3       8 UNK        -0.1912 
     52 C          23.5409  -34.3726  -41.9020 C.2       8 UNK         0.5038 
     53 O          23.1004  -35.4951  -42.1559 O.2       8 UNK        -0.5046 
     54 N          23.1747  -33.2581  -42.5497 N.am      9 UNK        -0.4200 
     55 CA         22.1991  -33.1580  -43.6457 C.3       9 UNK         0.0839 
     56 C          22.7363  -33.7254  -44.9938 C.2       9 UNK         0.5513 
     57 N          21.9032  -33.7982  -46.0242 N.am      9 UNK        -0.7519 
     58 O          23.9090  -34.0665  -45.1378 O.2       9 UNK        -0.4960 
     59 C59        20.7747  -33.6933  -43.2810 C.3       10 UNK        -0.0876 
     60 S60        20.1342  -33.2301  -41.6298 S.3       10 UNK        -0.2414 
     61 C61        20.1740  -31.4139  -41.6605 C.3       10 UNK         0.0169 
     62 H62        22.2377  -25.0509  -50.3120 H         1 UNK         0.0903 
     63 H63        23.1353  -23.9949  -49.2196 H         1 UNK         0.0903 
     64 H64        23.7966  -25.5694  -49.6679 H         1 UNK         0.0903 
     65 H65        20.5005  -26.0150  -49.2779 H         1 UNK         0.3096 
     66 H66        20.7717  -27.3765  -46.7410 H         1 UNK         0.1121 
     67 H67        19.3627  -28.3900  -48.4561 H         1 UNK         0.0849 
     68 H68        18.4157  -26.9411  -48.6280 H         1 UNK         0.0849 
     69 H69        18.0634  -30.5287  -46.7156 H         1 UNK         0.0865 
     70 H70        19.5525  -29.7014  -46.3228 H         1 UNK         0.0865 
     71 H71        20.2075  -30.7812  -44.3170 H         1 UNK         0.1346 
     72 H72        17.6613  -30.7373  -40.8694 H         1 UNK         0.1412 
     73 H73        16.2066  -29.2646  -44.6178 H         1 UNK         0.1426 
     74 H74        15.3933  -29.9548  -41.0184 H         1 UNK         0.0716 
     75 H75        14.6586  -29.9499  -42.6019 H         1 UNK         0.0716 
     76 H76        16.3016  -28.0120  -39.7829 H         1 UNK         0.0695 
     77 H77        16.0028  -26.3304  -40.1346 H         1 UNK         0.0695 
     78 H78        18.2456  -28.0207  -41.3411 H         1 UNK         0.0983 
     79 H79        17.2549  -25.5931  -42.3597 H         1 UNK         0.3095 
     80 H80        18.2050  -24.7605  -44.1896 H         1 UNK         0.0454 
     81 H81        21.1395  -24.0559  -43.5863 H         1 UNK         0.0851 
     82 H82        19.7659  -23.2822  -42.8009 H         1 UNK         0.0851 
     83 H83        20.0054  -23.0980  -44.5311 H         1 UNK         0.0851 
     84 H84        20.1749  -26.7206  -44.7576 H         1 UNK         0.2976 
     85 H85        19.0969  -28.6589  -39.4365 H         1 UNK         0.3116 
     86 H86        20.4533  -28.7382  -37.7310 H         1 UNK         0.0646 
     87 H87        19.7324  -25.8525  -36.9976 H         1 UNK         0.0847 
     88 H88        20.5549  -27.0184  -35.9781 H         1 UNK         0.0847 
     89 H89        18.8836  -27.2941  -36.4411 H         1 UNK         0.0847 
     90 H90        20.8610  -25.6750  -39.5014 H         1 UNK         0.3040 
     91 H91        23.6383  -25.2979  -39.0545 H         1 UNK         0.1015 
     92 H92        21.8495  -24.3916  -41.3699 H         1 UNK         0.0786 
     93 H93        23.4609  -23.7632  -41.0469 H         1 UNK         0.0786 
     94 H94        22.1691  -23.4977  -39.8861 H         1 UNK         0.0786 
     95 H95        21.9490  -27.1728  -41.5737 H         1 UNK         0.3172 
     96 H96        24.3410  -27.9757  -42.9774 H         1 UNK         0.0595 
     97 H97        21.4658  -28.9968  -43.0211 H         1 UNK         0.0839 
     98 H98        22.7260  -29.5672  -44.1132 H         1 UNK         0.0839 
     99 H99        22.2228  -27.8878  -44.1556 H         1 UNK         0.0839 
    100 H100       23.4370  -28.8358  -39.8966 H         1 UNK         0.2998 
    101 H101       24.0399  -30.3530  -38.4221 H         1 UNK         0.0822 
    102 H102       26.2475  -29.4665  -38.9668 H         1 UNK         0.0787 
    103 H103       26.4102  -31.1807  -38.6359 H         1 UNK         0.0787 
    104 H104       26.4569  -30.5939  -40.2974 H         1 UNK         0.0787 
    105 H105       25.6927  -32.4251  -40.6825 H         1 UNK         0.3055 
    106 H106       24.1711  -34.7591  -39.9032 H         1 UNK         0.1106 
    107 H107       25.7679  -35.9260  -41.4279 H         1 UNK         0.0828 
    108 H108       26.3595  -34.3822  -42.0236 H         1 UNK         0.0828 
    109 H109       26.6257  -34.8475  -40.3417 H         1 UNK         0.0828 
    110 H110       23.6475  -32.3929  -42.3099 H         1 UNK         0.2931 
    111 H111       22.1147  -32.0870  -43.8242 H         1 UNK         0.0412 
    112 H112       22.2494  -34.1513  -46.9031 H         1 UNK         0.3472 
    113 H113       20.9410  -33.5102  -45.9488 H         1 UNK         0.3472 
    114 H114       20.7672  -34.7836  -43.3289 H         1 UNK         0.0970 
    115 H115       20.0427  -33.3651  -44.0196 H         1 UNK         0.0970 
    116 H116       21.1475  -31.0688  -42.0048 H         1 UNK         0.0612 
    117 H117       20.0843  -31.0542  -40.6345 H         1 UNK         0.0612 
@<TRIPOS>BOND
     1    1    2 1    
     2    1   62 1    
     3    1   63 1    
     4    1   64 1    
     5    2    3 2    
     6    2    4 am   BACKBONE|DICT|INTERRES
     7    4    5 1    
     8    4   65 1    
     9    5    6 1    
    10    5   25 1    
    11    5   66 1    
    12    6    7 1    
    13    6   67 1    
    14    6   68 1    
    15    7    8 1    
    16    8    9 1    
    17    8   69 1    
    18    8   70 1    
    19    9   10 ar   
    20    9   14 ar   
    21   10   11 ar   
    22   10   71 1    
    23   11   12 ar   
    24   11   61 1    
    25   12   13 ar   
    26   12   72 1    
    27   13   14 ar   
    28   13   15 1    
    29   14   73 1    
    30   15   16 1    
    31   15   74 1    
    32   15   75 1    
    33   16   17 1    
    34   17   18 1    
    35   17   76 1    
    36   17   77 1    
    37   18   19 1    
    38   18   27 1    
    39   18   78 1    
    40   19   20 am   BACKBONE|DICT|INTERRES
    41   19   79 1    
    42   20   21 2    
    43   20   22 1    
    44   22   23 1    
    45   22   24 1    
    46   22   80 1    
    47   23   81 1    
    48   23   82 1    
    49   23   83 1    
    50   24   25 am   BACKBONE|DICT|INTERRES
    51   24   84 1    
    52   25   26 2    
    53   27   28 2    
    54   27   29 am   BACKBONE|DICT|INTERRES
    55   29   30 1    
    56   29   85 1    
    57   30   31 1    
    58   30   32 1    
    59   30   86 1    
    60   31   87 1    
    61   31   88 1    
    62   31   89 1    
    63   32   33 2    
    64   32   34 am   BACKBONE|DICT|INTERRES
    65   34   35 1    
    66   34   90 1    
    67   35   36 1    
    68   35   37 1    
    69   35   91 1    
    70   36   92 1    
    71   36   93 1    
    72   36   94 1    
    73   37   38 2    
    74   37   39 am   BACKBONE|DICT|INTERRES
    75   39   40 1    
    76   39   95 1    
    77   40   41 1    
    78   40   42 1    
    79   40   96 1    
    80   41   97 1    
    81   41   98 1    
    82   41   99 1    
    83   42   43 2    
    84   42   44 am   BACKBONE|DICT|INTERRES
    85   44   45 1    
    86   44  100 1    
    87   45   46 1    
    88   45   47 1    
    89   45  101 1    
    90   46  102 1    
    91   46  103 1    
    92   46  104 1    
    93   47   48 2    
    94   47   49 am   BACKBONE|DICT|INTERRES
    95   49   50 1    
    96   49  105 1    
    97   50   51 1    
    98   50   52 1    
    99   50  106 1    
   100   51  107 1    
   101   51  108 1    
   102   51  109 1    
   103   52   53 2    
   104   52   54 am   BACKBONE|DICT|INTERRES
   105   54   55 1    
   106   54  110 1    
   107   55   56 1    
   108   55   59 1    
   109   55  111 1    
   110   56   57 am   BACKBONE|DICT|INTERRES
   111   56   58 2    
   112   57  112 1    
   113   57  113 1    
   114   59   60 1    
   115   59  114 1    
   116   59  115 1    
   117   60   61 1    
   118   61  116 1    
   119   61  117 1    
@<TRIPOS>SUBSTRUCTURE
     1 UNK         1 GROUP             0       ****    0 ROOT    
