@<TRIPOS>MOLECULE
3R8
117   119    1
SMALL
USER_CHARGES


@<TRIPOS>ATOM
      1 CA         17.5237  -24.9563  -49.8704 C.3       0 UNK        -0.2013 
      2 C          18.3836  -24.9890  -48.6156 C.2       0 UNK         0.4866 
      3 O          19.2608  -24.1399  -48.4521 O.2       0 UNK        -0.5176 
      4 N          18.1466  -25.9674  -47.7336 N.am      1 UNK        -0.4884 
      5 CA         18.8435  -26.1230  -46.4531 C.3       1 UNK         0.0853 
      6 C6         18.5543  -27.4985  -45.8039 C.3       10 UNK        -0.0849 
      7 S7         19.2573  -28.9070  -46.7185 S.3       10 UNK        -0.2776 
      8 C8         18.2616  -30.2844  -46.0512 C.3       10 UNK         0.0316 
      9 C9         18.2410  -30.3041  -44.5266 C.ar      10 UNK        -0.0863 
     10 C10        19.3692  -30.7142  -43.8113 C.ar      10 UNK        -0.1009 
     11 C11        19.3607  -30.7195  -42.4128 C.ar      10 UNK        -0.0712 
     12 C12        18.2099  -30.3180  -41.7290 C.ar      10 UNK        -0.0894 
     13 C13        17.0807  -29.8887  -42.4323 C.ar      10 UNK        -0.0745 
     14 C14        17.0988  -29.8939  -43.8304 C.ar      10 UNK        -0.0972 
     15 C15        15.8432  -29.4089  -41.6872 C.3       10 UNK         0.0209 
     16 S16        15.8272  -27.5948  -41.5019 S.3       10 UNK        -0.2568 
     17 C17        17.0362  -27.3375  -40.1579 C.3       10 UNK        -0.0983 
     18 CA         18.4371  -26.9389  -40.6835 C.3       3 UNK         0.0876 
     19 N          18.4039  -25.7025  -41.4817 N.am      3 UNK        -0.4424 
     20 C          19.4116  -25.2751  -42.2512 C.2       2 UNK         0.4918 
     21 O          20.5374  -25.7752  -42.2429 O.2       2 UNK        -0.4875 
     22 CA         19.1169  -24.1387  -43.2344 C.3       2 UNK         0.0481 
     23 CB         20.0420  -22.9355  -42.9885 C.3       2 UNK        -0.1831 
     24 N          19.3843  -24.7086  -44.5493 N.am      2 UNK        -0.4498 
     25 C          18.4455  -25.0255  -45.4466 C.2       1 UNK         0.5027 
     26 O          17.2942  -24.5811  -45.4345 O.2       1 UNK        -0.4969 
     27 C          19.4815  -26.9513  -39.5444 C.2       3 UNK         0.5005 
     28 O          19.7926  -28.0264  -39.0296 O.2       3 UNK        -0.5279 
     29 N          20.0292  -25.7793  -39.1899 N.am      4 UNK        -0.4463 
     30 CA         21.1669  -25.6259  -38.2797 C.3       4 UNK         0.0283 
     31 CB         21.3432  -24.1380  -37.9371 C.3       4 UNK        -0.1875 
     32 C          22.4820  -26.2060  -38.8381 C.2       4 UNK         0.4949 
     33 O          23.3582  -26.5662  -38.0504 O.2       4 UNK        -0.5039 
     34 N          22.6075  -26.3066  -40.1704 N.am      5 UNK        -0.4663 
     35 CA         23.7469  -26.9141  -40.8595 C.3       5 UNK         0.0242 
     36 CB         23.8322  -26.3532  -42.2915 C.3       5 UNK        -0.1982 
     37 C          23.6327  -28.4483  -40.8369 C.2       5 UNK         0.5017 
     38 O          23.3670  -29.0636  -41.8700 O.2       5 UNK        -0.5012 
     39 N          23.8347  -29.0376  -39.6495 N.am      6 UNK        -0.4439 
     40 CA         23.7151  -30.4724  -39.3534 C.3       6 UNK         0.0297 
     41 CB         24.0787  -30.7163  -37.8807 C.3       6 UNK        -0.2006 
     42 C          24.5358  -31.4012  -40.2679 C.2       6 UNK         0.4892 
     43 O          24.1206  -32.5347  -40.5035 O.2       6 UNK        -0.5089 
     44 N          25.6552  -30.8964  -40.8060 N.am      7 UNK        -0.4243 
     45 CA         26.5030  -31.5730  -41.7919 C.3       7 UNK         0.0196 
     46 CB         27.7365  -30.7004  -42.0740 C.3       7 UNK        -0.2007 
     47 C          25.7846  -31.9270  -43.1095 C.2       7 UNK         0.5020 
     48 O          26.2124  -32.8614  -43.7869 O.2       7 UNK        -0.5147 
     49 N          24.7024  -31.2085  -43.4455 N.am      8 UNK        -0.4734 
     50 CA         23.8691  -31.4696  -44.6230 C.3       8 UNK         0.0238 
     51 CB         23.0966  -30.1890  -44.9890 C.3       8 UNK        -0.1912 
     52 C          22.9077  -32.6638  -44.4557 C.2       8 UNK         0.5038 
     53 O          22.2670  -33.0400  -45.4382 O.2       8 UNK        -0.5046 
     54 N          22.8021  -33.2299  -43.2456 N.am      9 UNK        -0.4200 
     55 CA         21.8993  -34.3425  -42.9125 C.3       9 UNK         0.0839 
     56 C          22.5332  -35.4180  -41.9851 C.2       9 UNK         0.5513 
     57 N          23.8434  -35.4206  -41.7718 N.am      9 UNK        -0.7519 
     58 O          21.8345  -36.2942  -41.4814 O.2       9 UNK        -0.4960 
     59 C59        20.4994  -33.8449  -42.4566 C.3       10 UNK        -0.0876 
     60 S60        20.5099  -32.8020  -40.9536 S.3       10 UNK        -0.2414 
     61 C61        20.6067  -31.1155  -41.6361 C.3       10 UNK         0.0169 
     62 H62        16.8006  -25.7714  -49.8911 H         1 UNK         0.0903 
     63 H63        16.9760  -24.0159  -49.9250 H         1 UNK         0.0903 
     64 H64        18.1511  -25.0375  -50.7576 H         1 UNK         0.0903 
     65 H65        17.4100  -26.6344  -47.9135 H         1 UNK         0.3096 
     66 H66        19.9165  -26.0412  -46.6433 H         1 UNK         0.1121 
     67 H67        18.9693  -27.5477  -44.7940 H         1 UNK         0.0849 
     68 H68        17.4774  -27.6431  -45.6946 H         1 UNK         0.0849 
     69 H69        17.2475  -30.2147  -46.4477 H         1 UNK         0.0865 
     70 H70        18.6673  -31.2273  -46.4211 H         1 UNK         0.0865 
     71 H71        20.2567  -31.0190  -44.3480 H         1 UNK         0.1346 
     72 H72        18.2066  -30.3144  -40.6474 H         1 UNK         0.1412 
     73 H73        16.2258  -29.5609  -44.3752 H         1 UNK         0.1426 
     74 H74        15.7705  -29.8855  -40.7084 H         1 UNK         0.0716 
     75 H75        14.9495  -29.7109  -42.2353 H         1 UNK         0.0716 
     76 H76        17.0886  -28.2469  -39.5562 H         1 UNK         0.0695 
     77 H77        16.6477  -26.5625  -39.4948 H         1 UNK         0.0695 
     78 H78        18.7673  -27.7199  -41.3696 H         1 UNK         0.0983 
     79 H79        17.5027  -25.2521  -41.5559 H         1 UNK         0.3095 
     80 H80        18.0775  -23.8185  -43.1358 H         1 UNK         0.0454 
     81 H81        19.8698  -22.5071  -42.0005 H         1 UNK         0.0851 
     82 H82        19.8640  -22.1470  -43.7197 H         1 UNK         0.0851 
     83 H83        21.0962  -23.2106  -43.0461 H         1 UNK         0.0851 
     84 H84        20.2884  -25.1561  -44.6255 H         1 UNK         0.2976 
     85 H85        19.7055  -24.9469  -39.6605 H         1 UNK         0.3116 
     86 H86        20.9362  -26.1650  -37.3585 H         1 UNK         0.0646 
     87 H87        20.4482  -23.7281  -37.4688 H         1 UNK         0.0847 
     88 H88        21.5641  -23.5418  -38.8234 H         1 UNK         0.0847 
     89 H89        22.1668  -23.9949  -37.2359 H         1 UNK         0.0847 
     90 H90        21.8259  -26.0391  -40.7618 H         1 UNK         0.3040 
     91 H91        24.6685  -26.6387  -40.3416 H         1 UNK         0.1015 
     92 H92        24.7064  -26.7473  -42.8113 H         1 UNK         0.0786 
     93 H93        23.9173  -25.2665  -42.2888 H         1 UNK         0.0786 
     94 H94        22.9571  -26.6189  -42.8855 H         1 UNK         0.0786 
     95 H95        23.9861  -28.4221  -38.8574 H         1 UNK         0.3172 
     96 H96        22.6661  -30.7391  -39.4872 H         1 UNK         0.0595 
     97 H97        23.9720  -31.7710  -37.6220 H         1 UNK         0.0839 
     98 H98        23.4266  -30.1541  -37.2117 H         1 UNK         0.0839 
     99 H99        25.1092  -30.4304  -37.6662 H         1 UNK         0.0839 
    100 H100       25.9126  -29.9526  -40.5579 H         1 UNK         0.2998 
    101 H101       26.8391  -32.5113  -41.3456 H         1 UNK         0.0822 
    102 H102       28.3104  -30.5165  -41.1655 H         1 UNK         0.0787 
    103 H103       28.4060  -31.1883  -42.7841 H         1 UNK         0.0787 
    104 H104       27.4584  -29.7349  -42.4991 H         1 UNK         0.0787 
    105 H105       24.3879  -30.4641  -42.8278 H         1 UNK         0.3055 
    106 H106       24.5257  -31.7134  -45.4613 H         1 UNK         0.1106 
    107 H107       23.7752  -29.3572  -45.1775 H         1 UNK         0.0828 
    108 H108       22.5025  -30.3313  -45.8929 H         1 UNK         0.0828 
    109 H109       22.4121  -29.8848  -44.1976 H         1 UNK         0.0828 
    110 H110       23.3443  -32.8669  -42.4693 H         1 UNK         0.2931 
    111 H111       21.7299  -34.9067  -43.8313 H         1 UNK         0.0412 
    112 H112       24.4346  -34.7129  -42.1771 H         1 UNK         0.3472 
    113 H113       24.2421  -36.1279  -41.1748 H         1 UNK         0.3472 
    114 H114       19.8423  -34.6953  -42.2676 H         1 UNK         0.0970 
    115 H115       20.0230  -33.3057  -43.2740 H         1 UNK         0.0970 
    116 H116       21.4961  -31.0237  -42.2579 H         1 UNK         0.0612 
    117 H117       20.7454  -30.4123  -40.8138 H         1 UNK         0.0612 
@<TRIPOS>BOND
     1    1    2 1    
     2    1   62 1    
     3    1   63 1    
     4    1   64 1    
     5    2    3 2    
     6    2    4 am   BACKBONE|DICT|INTERRES
     7    4    5 1    
     8    4   65 1    
     9    5    6 1    
    10    5   25 1    
    11    5   66 1    
    12    6    7 1    
    13    6   67 1    
    14    6   68 1    
    15    7    8 1    
    16    8    9 1    
    17    8   69 1    
    18    8   70 1    
    19    9   10 ar   
    20    9   14 ar   
    21   10   11 ar   
    22   10   71 1    
    23   11   12 ar   
    24   11   61 1    
    25   12   13 ar   
    26   12   72 1    
    27   13   14 ar   
    28   13   15 1    
    29   14   73 1    
    30   15   16 1    
    31   15   74 1    
    32   15   75 1    
    33   16   17 1    
    34   17   18 1    
    35   17   76 1    
    36   17   77 1    
    37   18   19 1    
    38   18   27 1    
    39   18   78 1    
    40   19   20 am   BACKBONE|DICT|INTERRES
    41   19   79 1    
    42   20   21 2    
    43   20   22 1    
    44   22   23 1    
    45   22   24 1    
    46   22   80 1    
    47   23   81 1    
    48   23   82 1    
    49   23   83 1    
    50   24   25 am   BACKBONE|DICT|INTERRES
    51   24   84 1    
    52   25   26 2    
    53   27   28 2    
    54   27   29 am   BACKBONE|DICT|INTERRES
    55   29   30 1    
    56   29   85 1    
    57   30   31 1    
    58   30   32 1    
    59   30   86 1    
    60   31   87 1    
    61   31   88 1    
    62   31   89 1    
    63   32   33 2    
    64   32   34 am   BACKBONE|DICT|INTERRES
    65   34   35 1    
    66   34   90 1    
    67   35   36 1    
    68   35   37 1    
    69   35   91 1    
    70   36   92 1    
    71   36   93 1    
    72   36   94 1    
    73   37   38 2    
    74   37   39 am   BACKBONE|DICT|INTERRES
    75   39   40 1    
    76   39   95 1    
    77   40   41 1    
    78   40   42 1    
    79   40   96 1    
    80   41   97 1    
    81   41   98 1    
    82   41   99 1    
    83   42   43 2    
    84   42   44 am   BACKBONE|DICT|INTERRES
    85   44   45 1    
    86   44  100 1    
    87   45   46 1    
    88   45   47 1    
    89   45  101 1    
    90   46  102 1    
    91   46  103 1    
    92   46  104 1    
    93   47   48 2    
    94   47   49 am   BACKBONE|DICT|INTERRES
    95   49   50 1    
    96   49  105 1    
    97   50   51 1    
    98   50   52 1    
    99   50  106 1    
   100   51  107 1    
   101   51  108 1    
   102   51  109 1    
   103   52   53 2    
   104   52   54 am   BACKBONE|DICT|INTERRES
   105   54   55 1    
   106   54  110 1    
   107   55   56 1    
   108   55   59 1    
   109   55  111 1    
   110   56   57 am   BACKBONE|DICT|INTERRES
   111   56   58 2    
   112   57  112 1    
   113   57  113 1    
   114   59   60 1    
   115   59  114 1    
   116   59  115 1    
   117   60   61 1    
   118   61  116 1    
   119   61  117 1    
@<TRIPOS>SUBSTRUCTURE
     1 UNK         1 GROUP             0       ****    0 ROOT    
