@<TRIPOS>MOLECULE
3R8
117   119    1
SMALL
USER_CHARGES


@<TRIPOS>ATOM
      1 CA         14.8777  -27.6213  -48.8479 C.3       0 UNK        -0.2013 
      2 C          15.6676  -27.6533  -47.5473 C.2       0 UNK         0.4866 
      3 O          15.2533  -27.0174  -46.5784 O.2       0 UNK        -0.5176 
      4 N          16.7834  -28.3979  -47.5384 N.am      1 UNK        -0.4884 
      5 CA         17.7598  -28.5833  -46.4530 C.3       1 UNK         0.0853 
      6 C6         17.1507  -29.0489  -45.1059 C.3       10 UNK        -0.0849 
      7 S7         16.4615  -30.7394  -45.1506 S.3       10 UNK        -0.2776 
      8 C8         15.5894  -30.8361  -43.5438 C.3       10 UNK         0.0316 
      9 C9         16.3964  -30.2013  -42.4188 C.ar      10 UNK        -0.0863 
     10 C10        17.5202  -30.8488  -41.8994 C.ar      10 UNK        -0.1009 
     11 C11        18.3521  -30.1959  -40.9836 C.ar      10 UNK        -0.0712 
     12 C12        18.0217  -28.9107  -40.5437 C.ar      10 UNK        -0.0894 
     13 C13        16.8988  -28.2571  -41.0572 C.ar      10 UNK        -0.0745 
     14 C14        16.0786  -28.9145  -41.9766 C.ar      10 UNK        -0.0972 
     15 C15        16.6047  -26.8132  -40.6905 C.3       10 UNK         0.0209 
     16 S16        17.3329  -25.6838  -41.9238 S.3       10 UNK        -0.2568 
     17 C17        18.9771  -25.3405  -41.2135 C.3       10 UNK        -0.0983 
     18 CA         20.1269  -26.2038  -41.7934 C.3       3 UNK         0.0876 
     19 N          20.2201  -26.1195  -43.2618 N.am      3 UNK        -0.4424 
     20 C          21.1320  -26.7380  -44.0278 C.2       2 UNK         0.4918 
     21 O          22.0743  -27.3922  -43.5795 O.2       2 UNK        -0.4875 
     22 CA         20.9410  -26.6258  -45.5474 C.3       2 UNK         0.0481 
     23 CB         22.2490  -26.8947  -46.3145 C.3       2 UNK        -0.1831 
     24 N          19.9419  -27.6078  -45.9611 N.am      2 UNK        -0.4498 
     25 C          18.6567  -27.3458  -46.2273 C.2       1 UNK         0.5027 
     26 O          18.1871  -26.2063  -46.2477 O.2       1 UNK        -0.4969 
     27 C          21.4342  -25.8599  -41.0463 C.2       3 UNK         0.5005 
     28 O          21.6956  -26.4322  -39.9869 O.2       3 UNK        -0.5279 
     29 N          22.2413  -24.9533  -41.6186 N.am      4 UNK        -0.4463 
     30 CA         23.5405  -24.5106  -41.1011 C.3       4 UNK         0.0283 
     31 CB         24.0839  -23.3922  -42.0050 C.3       4 UNK        -0.1875 
     32 C          24.5891  -25.6301  -40.9482 C.2       4 UNK         0.4949 
     33 O          25.5336  -25.4592  -40.1775 O.2       4 UNK        -0.5039 
     34 N          24.4083  -26.7535  -41.6579 N.am      5 UNK        -0.4663 
     35 CA         25.2491  -27.9470  -41.5444 C.3       5 UNK         0.0242 
     36 CB         25.1058  -28.7731  -42.8270 C.3       5 UNK        -0.1982 
     37 C          24.9361  -28.8090  -40.3051 C.2       5 UNK         0.5017 
     38 O          25.6780  -29.7590  -40.0487 O.2       5 UNK        -0.5012 
     39 N          23.8571  -28.4888  -39.5713 N.am      6 UNK        -0.4439 
     40 CA         23.3976  -29.0469  -38.2889 C.3       6 UNK         0.0297 
     41 CB         24.4422  -28.8131  -37.1808 C.3       6 UNK        -0.2006 
     42 C          22.9437  -30.5196  -38.3059 C.2       6 UNK         0.4892 
     43 O          21.9801  -30.8499  -37.6134 O.2       6 UNK        -0.5089 
     44 N          23.6293  -31.3701  -39.0740 N.am      7 UNK        -0.4243 
     45 CA         23.3256  -32.7884  -39.2559 C.3       7 UNK         0.0196 
     46 CB         24.2373  -33.6417  -38.3582 C.3       7 UNK        -0.2007 
     47 C          23.4603  -33.1929  -40.7275 C.2       7 UNK         0.5020 
     48 O          22.5752  -33.8712  -41.2486 O.2       7 UNK        -0.5147 
     49 N          24.5329  -32.7470  -41.3984 N.am      8 UNK        -0.4734 
     50 CA         24.8127  -33.0203  -42.8158 C.3       8 UNK         0.0238 
     51 CB         26.3356  -32.9560  -43.0393 C.3       8 UNK        -0.1912 
     52 C          24.0349  -32.0771  -43.7584 C.2       8 UNK         0.5038 
     53 O          24.6173  -31.5078  -44.6826 O.2       8 UNK        -0.5046 
     54 N          22.7409  -31.8986  -43.4762 N.am      9 UNK        -0.4200 
     55 CA         21.8519  -30.9004  -44.0871 C.3       9 UNK         0.0839 
     56 C          21.4064  -31.1935  -45.5462 C.2       9 UNK         0.5513 
     57 N          21.6869  -32.3606  -46.1115 N.am      9 UNK        -0.7519 
     58 O          20.7921  -30.3353  -46.1750 O.2       9 UNK        -0.4960 
     59 C59        20.6254  -30.6181  -43.1856 C.3       10 UNK        -0.0876 
     60 S60        21.0655  -30.1523  -41.4746 S.3       10 UNK        -0.2414 
     61 C61        19.6578  -30.8377  -40.5405 C.3       10 UNK         0.0169 
     62 H62        14.8095  -26.5991  -49.2196 H         1 UNK         0.0903 
     63 H63        15.3377  -28.2335  -49.6235 H         1 UNK         0.0903 
     64 H64        13.8662  -27.9910  -48.6812 H         1 UNK         0.0903 
     65 H65        17.0334  -28.8743  -48.3941 H         1 UNK         0.3096 
     66 H66        18.4131  -29.3827  -46.8065 H         1 UNK         0.1121 
     67 H67        16.3857  -28.3538  -44.7594 H         1 UNK         0.0849 
     68 H68        17.9200  -29.0442  -44.3319 H         1 UNK         0.0849 
     69 H69        14.6180  -30.3482  -43.6391 H         1 UNK         0.0865 
     70 H70        15.3839  -31.8812  -43.3078 H         1 UNK         0.0865 
     71 H71        17.7830  -31.8326  -42.2633 H         1 UNK         0.1346 
     72 H72        18.6747  -28.3981  -39.8505 H         1 UNK         0.1412 
     73 H73        15.2291  -28.3947  -42.3990 H         1 UNK         0.1426 
     74 H74        16.9658  -26.5830  -39.6873 H         1 UNK         0.0716 
     75 H75        15.5255  -26.6549  -40.6658 H         1 UNK         0.0716 
     76 H76        19.1837  -24.2821  -41.3848 H         1 UNK         0.0695 
     77 H77        18.9212  -25.4563  -40.1293 H         1 UNK         0.0695 
     78 H78        19.9196  -27.2503  -41.5705 H         1 UNK         0.0983 
     79 H79        19.4624  -25.6300  -43.7179 H         1 UNK         0.3095 
     80 H80        20.6152  -25.6102  -45.7810 H         1 UNK         0.0454 
     81 H81        23.0328  -26.2026  -46.0042 H         1 UNK         0.0851 
     82 H82        22.6211  -27.9062  -46.1446 H         1 UNK         0.0851 
     83 H83        22.1099  -26.7678  -47.3880 H         1 UNK         0.0851 
     84 H84        20.2550  -28.5772  -45.9724 H         1 UNK         0.2976 
     85 H85        21.9420  -24.5465  -42.4929 H         1 UNK         0.3116 
     86 H86        23.3693  -24.0944  -40.1063 H         1 UNK         0.0646 
     87 H87        25.0370  -23.0156  -41.6307 H         1 UNK         0.0847 
     88 H88        23.3994  -22.5447  -42.0470 H         1 UNK         0.0847 
     89 H89        24.2512  -23.7426  -43.0244 H         1 UNK         0.0847 
     90 H90        23.6009  -26.8267  -42.2698 H         1 UNK         0.3040 
     91 H91        26.2917  -27.6324  -41.4597 H         1 UNK         0.1015 
     92 H92        25.3289  -28.1821  -43.7153 H         1 UNK         0.0786 
     93 H93        24.0939  -29.1607  -42.9268 H         1 UNK         0.0786 
     94 H94        25.7863  -29.6250  -42.8242 H         1 UNK         0.0786 
     95 H95        23.2770  -27.7283  -39.9146 H         1 UNK         0.3172 
     96 H96        22.5141  -28.4609  -38.0302 H         1 UNK         0.0595 
     97 H97        24.6980  -27.7570  -37.0940 H         1 UNK         0.0839 
     98 H98        25.3630  -29.3676  -37.3647 H         1 UNK         0.0839 
     99 H99        24.0596  -29.1346  -36.2111 H         1 UNK         0.0839 
    100 H100       24.4153  -30.9820  -39.5889 H         1 UNK         0.2998 
    101 H101       22.2879  -32.9785  -38.9721 H         1 UNK         0.0822 
    102 H102       24.0774  -33.4127  -37.3044 H         1 UNK         0.0787 
    103 H103       24.0346  -34.7050  -38.4934 H         1 UNK         0.0787 
    104 H104       25.2927  -33.4775  -38.5793 H         1 UNK         0.0787 
    105 H105       25.2118  -32.1762  -40.9149 H         1 UNK         0.3055 
    106 H106       24.4877  -34.0364  -43.0516 H         1 UNK         0.1106 
    107 H107       26.7325  -31.9606  -42.8370 H         1 UNK         0.0828 
    108 H108       26.8611  -33.6635  -42.3977 H         1 UNK         0.0828 
    109 H109       26.5925  -33.2068  -44.0694 H         1 UNK         0.0828 
    110 H110       22.3529  -32.4305  -42.7061 H         1 UNK         0.2931 
    111 H111       22.4192  -29.9729  -44.1549 H         1 UNK         0.0412 
    112 H112       21.3929  -32.5328  -47.0599 H         1 UNK         0.3472 
    113 H113       22.1989  -33.0640  -45.6042 H         1 UNK         0.3472 
    114 H114       19.9812  -31.4979  -43.1651 H         1 UNK         0.0970 
    115 H115       20.0260  -29.8052  -43.5970 H         1 UNK         0.0970 
    116 H116       19.6265  -31.9205  -40.6711 H         1 UNK         0.0612 
    117 H117       19.8155  -30.6583  -39.4762 H         1 UNK         0.0612 
@<TRIPOS>BOND
     1    1    2 1    
     2    1   62 1    
     3    1   63 1    
     4    1   64 1    
     5    2    3 2    
     6    2    4 am   BACKBONE|DICT|INTERRES
     7    4    5 1    
     8    4   65 1    
     9    5    6 1    
    10    5   25 1    
    11    5   66 1    
    12    6    7 1    
    13    6   67 1    
    14    6   68 1    
    15    7    8 1    
    16    8    9 1    
    17    8   69 1    
    18    8   70 1    
    19    9   10 ar   
    20    9   14 ar   
    21   10   11 ar   
    22   10   71 1    
    23   11   12 ar   
    24   11   61 1    
    25   12   13 ar   
    26   12   72 1    
    27   13   14 ar   
    28   13   15 1    
    29   14   73 1    
    30   15   16 1    
    31   15   74 1    
    32   15   75 1    
    33   16   17 1    
    34   17   18 1    
    35   17   76 1    
    36   17   77 1    
    37   18   19 1    
    38   18   27 1    
    39   18   78 1    
    40   19   20 am   BACKBONE|DICT|INTERRES
    41   19   79 1    
    42   20   21 2    
    43   20   22 1    
    44   22   23 1    
    45   22   24 1    
    46   22   80 1    
    47   23   81 1    
    48   23   82 1    
    49   23   83 1    
    50   24   25 am   BACKBONE|DICT|INTERRES
    51   24   84 1    
    52   25   26 2    
    53   27   28 2    
    54   27   29 am   BACKBONE|DICT|INTERRES
    55   29   30 1    
    56   29   85 1    
    57   30   31 1    
    58   30   32 1    
    59   30   86 1    
    60   31   87 1    
    61   31   88 1    
    62   31   89 1    
    63   32   33 2    
    64   32   34 am   BACKBONE|DICT|INTERRES
    65   34   35 1    
    66   34   90 1    
    67   35   36 1    
    68   35   37 1    
    69   35   91 1    
    70   36   92 1    
    71   36   93 1    
    72   36   94 1    
    73   37   38 2    
    74   37   39 am   BACKBONE|DICT|INTERRES
    75   39   40 1    
    76   39   95 1    
    77   40   41 1    
    78   40   42 1    
    79   40   96 1    
    80   41   97 1    
    81   41   98 1    
    82   41   99 1    
    83   42   43 2    
    84   42   44 am   BACKBONE|DICT|INTERRES
    85   44   45 1    
    86   44  100 1    
    87   45   46 1    
    88   45   47 1    
    89   45  101 1    
    90   46  102 1    
    91   46  103 1    
    92   46  104 1    
    93   47   48 2    
    94   47   49 am   BACKBONE|DICT|INTERRES
    95   49   50 1    
    96   49  105 1    
    97   50   51 1    
    98   50   52 1    
    99   50  106 1    
   100   51  107 1    
   101   51  108 1    
   102   51  109 1    
   103   52   53 2    
   104   52   54 am   BACKBONE|DICT|INTERRES
   105   54   55 1    
   106   54  110 1    
   107   55   56 1    
   108   55   59 1    
   109   55  111 1    
   110   56   57 am   BACKBONE|DICT|INTERRES
   111   56   58 2    
   112   57  112 1    
   113   57  113 1    
   114   59   60 1    
   115   59  114 1    
   116   59  115 1    
   117   60   61 1    
   118   61  116 1    
   119   61  117 1    
@<TRIPOS>SUBSTRUCTURE
     1 UNK         1 GROUP             0       ****    0 ROOT    
