@<TRIPOS>MOLECULE
3R8
117   119    1
SMALL
USER_CHARGES


@<TRIPOS>ATOM
      1 CA         15.7029  -22.2566  -46.4556 C.3       0 UNK        -0.2013 
      2 C          17.0404  -22.9727  -46.5677 C.2       0 UNK         0.4866 
      3 O          18.0575  -22.3312  -46.8314 O.2       0 UNK        -0.5176 
      4 N          17.0475  -24.2984  -46.3706 N.am      1 UNK        -0.4884 
      5 CA         18.2481  -25.1452  -46.4280 C.3       1 UNK         0.0853 
      6 C6         17.8676  -26.6382  -46.6029 C.3       10 UNK        -0.0849 
      7 S7         19.1528  -27.5974  -47.4738 S.3       10 UNK        -0.2776 
      8 C8         18.4664  -29.2829  -47.3949 C.3       10 UNK         0.0316 
      9 C9         18.6055  -29.8843  -46.0040 C.ar      10 UNK        -0.0863 
     10 C10        19.7872  -30.5326  -45.6319 C.ar      10 UNK        -0.1009 
     11 C11        19.9242  -31.0809  -44.3529 C.ar      10 UNK        -0.0712 
     12 C12        18.8720  -30.9676  -43.4396 C.ar      10 UNK        -0.0894 
     13 C13        17.6859  -30.3237  -43.8020 C.ar      10 UNK        -0.0745 
     14 C14        17.5531  -29.7962  -45.0888 C.ar      10 UNK        -0.0972 
     15 C15        16.5476  -30.1840  -42.8048 C.3       10 UNK         0.0209 
     16 S16        16.5482  -28.5370  -42.0311 S.3       10 UNK        -0.2568 
     17 C17        17.9842  -28.6502  -40.9091 C.3       10 UNK        -0.0983 
     18 CA         19.2486  -27.9307  -41.4461 C.3       3 UNK         0.0876 
     19 N          18.9646  -26.5425  -41.8376 N.am      3 UNK        -0.4424 
     20 C          19.8482  -25.6140  -42.2270 C.2       2 UNK         0.4918 
     21 O          21.0694  -25.7649  -42.1957 O.2       2 UNK        -0.4875 
     22 CA         19.2418  -24.3075  -42.7667 C.3       2 UNK         0.0481 
     23 CB         20.2634  -23.1523  -42.8268 C.3       2 UNK        -0.1831 
     24 N          18.6028  -24.5191  -44.0715 N.am      2 UNK        -0.4498 
     25 C          19.1811  -24.9388  -45.2117 C.2       1 UNK         0.5027 
     26 O          20.3872  -25.1523  -45.3378 O.2       1 UNK        -0.4969 
     27 C          20.4022  -28.0842  -40.4326 C.2       3 UNK         0.5005 
     28 O          21.2638  -28.9446  -40.6178 O.2       3 UNK        -0.5279 
     29 N          20.4092  -27.2312  -39.3979 N.am      4 UNK        -0.4463 
     30 CA         21.4229  -27.2151  -38.3394 C.3       4 UNK         0.0283 
     31 CB         20.9127  -26.3711  -37.1605 C.3       4 UNK        -0.1875 
     32 C          22.7986  -26.7061  -38.8054 C.2       4 UNK         0.4949 
     33 O          23.8108  -27.1238  -38.2431 O.2       4 UNK        -0.5039 
     34 N          22.8181  -25.8192  -39.8101 N.am      5 UNK        -0.4663 
     35 CA         24.0434  -25.3106  -40.4306 C.3       5 UNK         0.0242 
     36 CB         23.7772  -23.9323  -41.0578 C.3       5 UNK        -0.1982 
     37 C          24.5855  -26.2937  -41.4786 C.2       5 UNK         0.5017 
     38 O          25.8020  -26.4566  -41.5770 O.2       5 UNK        -0.5012 
     39 N          23.6748  -26.9363  -42.2256 N.am      6 UNK        -0.4439 
     40 CA         23.9683  -27.9971  -43.1905 C.3       6 UNK         0.0297 
     41 CB         22.6973  -28.3366  -43.9879 C.3       6 UNK        -0.2006 
     42 C          24.5591  -29.2465  -42.5127 C.2       6 UNK         0.4892 
     43 O          25.6028  -29.7287  -42.9560 O.2       6 UNK        -0.5089 
     44 N          23.9050  -29.6964  -41.4286 N.am      7 UNK        -0.4243 
     45 CA         24.2790  -30.8039  -40.5397 C.3       7 UNK         0.0196 
     46 CB         25.6076  -30.4849  -39.8193 C.3       7 UNK        -0.2007 
     47 C          24.3018  -32.1826  -41.2317 C.2       7 UNK         0.5020 
     48 O          23.9364  -32.3056  -42.4000 O.2       7 UNK        -0.5147 
     49 N          24.6810  -33.2198  -40.4713 N.am      8 UNK        -0.4734 
     50 CA         24.8365  -34.6364  -40.8533 C.3       8 UNK         0.0238 
     51 CB         25.8880  -34.7994  -41.9695 C.3       8 UNK        -0.1912 
     52 C          23.5394  -35.3933  -41.2092 C.2       8 UNK         0.5038 
     53 O          23.5098  -36.6138  -41.0455 O.2       8 UNK        -0.5046 
     54 N          22.4999  -34.6864  -41.6686 N.am      9 UNK        -0.4200 
     55 CA         21.1820  -35.2363  -42.0337 C.3       9 UNK         0.0839 
     56 C          20.3597  -35.8241  -40.8488 C.2       9 UNK         0.5513 
     57 N          20.6851  -35.5242  -39.5970 N.am      9 UNK        -0.7519 
     58 O          19.4070  -36.5660  -41.0738 O.2       9 UNK        -0.4960 
     59 C59        20.3215  -34.2142  -42.8232 C.3       10 UNK        -0.0876 
     60 S60        21.1565  -33.5635  -44.3112 S.3       10 UNK        -0.2414 
     61 C61        21.2163  -31.7779  -43.9572 C.3       10 UNK         0.0169 
     62 H62        15.7457  -21.5030  -45.6697 H         1 UNK         0.0903 
     63 H63        15.4657  -21.7565  -47.3943 H         1 UNK         0.0903 
     64 H64        14.8892  -22.9433  -46.2230 H         1 UNK         0.0903 
     65 H65        16.1781  -24.7733  -46.1693 H         1 UNK         0.3096 
     66 H66        18.8117  -24.8309  -47.3102 H         1 UNK         0.1121 
     67 H67        17.6429  -27.0978  -45.6393 H         1 UNK         0.0849 
     68 H68        16.9571  -26.7281  -47.1980 H         1 UNK         0.0849 
     69 H69        18.9903  -29.9101  -48.1179 H         1 UNK         0.0865 
     70 H70        17.4212  -29.2715  -47.7083 H         1 UNK         0.0865 
     71 H71        20.6032  -30.6072  -46.3379 H         1 UNK         0.1346 
     72 H72        18.9777  -31.3708  -42.4428 H         1 UNK         0.1412 
     73 H73        16.6344  -29.2990  -45.3691 H         1 UNK         0.1426 
     74 H74        16.6023  -30.9569  -42.0365 H         1 UNK         0.0716 
     75 H75        15.5953  -30.3320  -43.3161 H         1 UNK         0.0716 
     76 H76        18.1981  -29.7009  -40.7044 H         1 UNK         0.0695 
     77 H77        17.6787  -28.2183  -39.9541 H         1 UNK         0.0695 
     78 H78        19.5670  -28.4378  -42.3586 H         1 UNK         0.0983 
     79 H79        17.9818  -26.3240  -41.9178 H         1 UNK         0.3095 
     80 H80        18.4525  -24.0090  -42.0751 H         1 UNK         0.0454 
     81 H81        19.8003  -22.2327  -43.1840 H         1 UNK         0.0851 
     82 H82        21.1035  -23.3794  -43.4837 H         1 UNK         0.0851 
     83 H83        20.6738  -22.9462  -41.8377 H         1 UNK         0.0851 
     84 H84        17.6046  -24.3658  -44.0986 H         1 UNK         0.2976 
     85 H85        19.6666  -26.5496  -39.3329 H         1 UNK         0.3116 
     86 H86        21.5574  -28.2407  -37.9883 H         1 UNK         0.0646 
     87 H87        21.6361  -26.3653  -36.3438 H         1 UNK         0.0847 
     88 H88        19.9800  -26.7688  -36.7601 H         1 UNK         0.0847 
     89 H89        20.7409  -25.3334  -37.4492 H         1 UNK         0.0847 
     90 H90        21.9472  -25.5800  -40.2670 H         1 UNK         0.3040 
     91 H91        24.8082  -25.1880  -39.6599 H         1 UNK         0.1015 
     92 H92        23.3958  -23.2264  -40.3199 H         1 UNK         0.0786 
     93 H93        23.0570  -23.9883  -41.8740 H         1 UNK         0.0786 
     94 H94        24.6960  -23.5096  -41.4665 H         1 UNK         0.0786 
     95 H95        22.6990  -26.6692  -42.1188 H         1 UNK         0.3172 
     96 H96        24.7117  -27.6089  -43.8898 H         1 UNK         0.0595 
     97 H97        21.9144  -28.7503  -43.3518 H         1 UNK         0.0839 
     98 H98        22.9116  -29.0725  -44.7633 H         1 UNK         0.0839 
     99 H99        22.2893  -27.4547  -44.4833 H         1 UNK         0.0839 
    100 H100       23.0181  -29.2543  -41.1945 H         1 UNK         0.2998 
    101 H101       23.4901  -30.8495  -39.7873 H         1 UNK         0.0822 
    102 H102       26.4582  -30.5308  -40.5004 H         1 UNK         0.0787 
    103 H103       25.5865  -29.4864  -39.3809 H         1 UNK         0.0787 
    104 H104       25.8032  -31.1835  -39.0057 H         1 UNK         0.0787 
    105 H105       24.9121  -33.0203  -39.5073 H         1 UNK         0.3055 
    106 H106       25.2310  -35.1335  -39.9652 H         1 UNK         0.1106 
    107 H107       26.8358  -34.3376  -41.6931 H         1 UNK         0.0828 
    108 H108       26.0871  -35.8538  -42.1659 H         1 UNK         0.0828 
    109 H109       25.5588  -34.3542  -42.9089 H         1 UNK         0.0828 
    110 H110       22.6588  -33.7056  -41.8709 H         1 UNK         0.2931 
    111 H111       21.3774  -36.0760  -42.7035 H         1 UNK         0.0412 
    112 H112       21.4659  -34.9182  -39.4030 H         1 UNK         0.3472 
    113 H113       20.1463  -35.9134  -38.8390 H         1 UNK         0.3472 
    114 H114       19.3878  -34.6752  -43.1514 H         1 UNK         0.0970 
    115 H115       20.0339  -33.3923  -42.1675 H         1 UNK         0.0970 
    116 H116       21.4306  -31.6049  -42.9017 H         1 UNK         0.0612 
    117 H117       22.0542  -31.3481  -44.5073 H         1 UNK         0.0612 
@<TRIPOS>BOND
     1    1    2 1    
     2    1   62 1    
     3    1   63 1    
     4    1   64 1    
     5    2    3 2    
     6    2    4 am   BACKBONE|DICT|INTERRES
     7    4    5 1    
     8    4   65 1    
     9    5    6 1    
    10    5   25 1    
    11    5   66 1    
    12    6    7 1    
    13    6   67 1    
    14    6   68 1    
    15    7    8 1    
    16    8    9 1    
    17    8   69 1    
    18    8   70 1    
    19    9   10 ar   
    20    9   14 ar   
    21   10   11 ar   
    22   10   71 1    
    23   11   12 ar   
    24   11   61 1    
    25   12   13 ar   
    26   12   72 1    
    27   13   14 ar   
    28   13   15 1    
    29   14   73 1    
    30   15   16 1    
    31   15   74 1    
    32   15   75 1    
    33   16   17 1    
    34   17   18 1    
    35   17   76 1    
    36   17   77 1    
    37   18   19 1    
    38   18   27 1    
    39   18   78 1    
    40   19   20 am   BACKBONE|DICT|INTERRES
    41   19   79 1    
    42   20   21 2    
    43   20   22 1    
    44   22   23 1    
    45   22   24 1    
    46   22   80 1    
    47   23   81 1    
    48   23   82 1    
    49   23   83 1    
    50   24   25 am   BACKBONE|DICT|INTERRES
    51   24   84 1    
    52   25   26 2    
    53   27   28 2    
    54   27   29 am   BACKBONE|DICT|INTERRES
    55   29   30 1    
    56   29   85 1    
    57   30   31 1    
    58   30   32 1    
    59   30   86 1    
    60   31   87 1    
    61   31   88 1    
    62   31   89 1    
    63   32   33 2    
    64   32   34 am   BACKBONE|DICT|INTERRES
    65   34   35 1    
    66   34   90 1    
    67   35   36 1    
    68   35   37 1    
    69   35   91 1    
    70   36   92 1    
    71   36   93 1    
    72   36   94 1    
    73   37   38 2    
    74   37   39 am   BACKBONE|DICT|INTERRES
    75   39   40 1    
    76   39   95 1    
    77   40   41 1    
    78   40   42 1    
    79   40   96 1    
    80   41   97 1    
    81   41   98 1    
    82   41   99 1    
    83   42   43 2    
    84   42   44 am   BACKBONE|DICT|INTERRES
    85   44   45 1    
    86   44  100 1    
    87   45   46 1    
    88   45   47 1    
    89   45  101 1    
    90   46  102 1    
    91   46  103 1    
    92   46  104 1    
    93   47   48 2    
    94   47   49 am   BACKBONE|DICT|INTERRES
    95   49   50 1    
    96   49  105 1    
    97   50   51 1    
    98   50   52 1    
    99   50  106 1    
   100   51  107 1    
   101   51  108 1    
   102   51  109 1    
   103   52   53 2    
   104   52   54 am   BACKBONE|DICT|INTERRES
   105   54   55 1    
   106   54  110 1    
   107   55   56 1    
   108   55   59 1    
   109   55  111 1    
   110   56   57 am   BACKBONE|DICT|INTERRES
   111   56   58 2    
   112   57  112 1    
   113   57  113 1    
   114   59   60 1    
   115   59  114 1    
   116   59  115 1    
   117   60   61 1    
   118   61  116 1    
   119   61  117 1    
@<TRIPOS>SUBSTRUCTURE
     1 UNK         1 GROUP             0       ****    0 ROOT    
