@<TRIPOS>MOLECULE
3R8
117   119    1
SMALL
USER_CHARGES


@<TRIPOS>ATOM
      1 CA         14.1790  -27.4818  -39.0047 C.3       0 UNK        -0.2013 
      2 C          15.1752  -26.9142  -40.0045 C.2       0 UNK         0.4866 
      3 O          15.7909  -25.8815  -39.7375 O.2       0 UNK        -0.5176 
      4 N          15.3314  -27.5754  -41.1575 N.am      1 UNK        -0.4884 
      5 CA         16.3088  -27.2386  -42.1969 C.3       1 UNK         0.0853 
      6 C6         15.9607  -27.8958  -43.5588 C.3       10 UNK        -0.0849 
      7 S7         15.5589  -29.6762  -43.4572 S.3       10 UNK        -0.2776 
      8 C8         15.7495  -30.1947  -45.1910 C.3       10 UNK         0.0316 
      9 C9         17.2117  -30.2772  -45.6032 C.ar      10 UNK        -0.0863 
     10 C10        18.0218  -31.2981  -45.1002 C.ar      10 UNK        -0.1009 
     11 C11        19.3639  -31.3933  -45.4789 C.ar      10 UNK        -0.0712 
     12 C12        19.8917  -30.4667  -46.3826 C.ar      10 UNK        -0.0894 
     13 C13        19.0923  -29.4359  -46.8869 C.ar      10 UNK        -0.0745 
     14 C14        17.7528  -29.3475  -46.4956 C.ar      10 UNK        -0.0972 
     15 C15        19.6633  -28.4199  -47.8639 C.3       10 UNK         0.0209 
     16 S16        20.1154  -26.8665  -47.0307 S.3       10 UNK        -0.2568 
     17 C17        21.7421  -27.2916  -46.3275 C.3       10 UNK        -0.0983 
     18 CA         22.0469  -26.4891  -45.0382 C.3       3 UNK         0.0876 
     19 N          21.1175  -26.8370  -43.9577 N.am      3 UNK        -0.4424 
     20 C          20.9630  -26.1301  -42.8330 C.2       2 UNK         0.4918 
     21 O          21.4375  -25.0064  -42.6552 O.2       2 UNK        -0.4875 
     22 CA         20.1024  -26.7849  -41.7472 C.3       2 UNK         0.0481 
     23 CB         20.2829  -26.1284  -40.3637 C.3       2 UNK        -0.1831 
     24 N          18.7020  -26.7217  -42.1519 N.am      2 UNK        -0.4498 
     25 C          17.7467  -27.5606  -41.7356 C.2       1 UNK         0.5027 
     26 O          17.9630  -28.5407  -41.0162 O.2       1 UNK        -0.4969 
     27 C          23.5100  -26.7096  -44.5921 C.2       3 UNK         0.5005 
     28 O          23.7580  -27.3530  -43.5712 O.2       3 UNK        -0.5279 
     29 N          24.4680  -26.2231  -45.3951 N.am      4 UNK        -0.4463 
     30 CA         25.9181  -26.3120  -45.1533 C.3       4 UNK         0.0283 
     31 CB         26.6576  -25.5911  -46.2929 C.3       4 UNK        -0.1875 
     32 C          26.4840  -27.7378  -44.9655 C.2       4 UNK         0.4949 
     33 O          27.6082  -27.8766  -44.4829 O.2       4 UNK        -0.5039 
     34 N          25.7060  -28.7627  -45.3387 N.am      5 UNK        -0.4663 
     35 CA         25.9988  -30.1783  -45.1256 C.3       5 UNK         0.0242 
     36 CB         24.9482  -31.0249  -45.8632 C.3       5 UNK        -0.1982 
     37 C          26.0750  -30.5889  -43.6423 C.2       5 UNK         0.5017 
     38 O          26.9135  -31.4306  -43.3159 O.2       5 UNK        -0.5012 
     39 N          25.2271  -30.0115  -42.7754 N.am      6 UNK        -0.4439 
     40 CA         25.1685  -30.3305  -41.3457 C.3       6 UNK         0.0297 
     41 CB         24.6308  -31.7603  -41.1195 C.3       6 UNK        -0.2006 
     42 C          24.2694  -29.3379  -40.6028 C.2       6 UNK         0.4892 
     43 O          23.2324  -28.9341  -41.1291 O.2       6 UNK        -0.5089 
     44 N          24.6336  -29.0297  -39.3514 N.am      7 UNK        -0.4243 
     45 CA         23.7602  -28.3375  -38.4022 C.3       7 UNK         0.0196 
     46 CB         24.5750  -27.8972  -37.1751 C.3       7 UNK        -0.2007 
     47 C          22.6061  -29.2688  -37.9952 C.2       7 UNK         0.5020 
     48 O          22.8682  -30.4051  -37.5948 O.2       7 UNK        -0.5147 
     49 N          21.3657  -28.7782  -38.1307 N.am      8 UNK        -0.4734 
     50 CA         20.1067  -29.5219  -37.9682 C.3       8 UNK         0.0238 
     51 CB         19.8761  -29.8965  -36.4879 C.3       8 UNK        -0.1912 
     52 C          20.0140  -30.7316  -38.9233 C.2       8 UNK         0.5038 
     53 O          19.7189  -31.8458  -38.4858 O.2       8 UNK        -0.5046 
     54 N          20.2967  -30.4762  -40.2084 N.am      9 UNK        -0.4200 
     55 CA         20.2349  -31.4363  -41.3224 C.3       9 UNK         0.0839 
     56 C          18.8575  -32.1418  -41.4789 C.2       9 UNK         0.5513 
     57 N          17.7507  -31.4344  -41.2905 N.am      9 UNK        -0.7519 
     58 O          18.7951  -33.3359  -41.7585 O.2       9 UNK        -0.4960 
     59 C59        20.6617  -30.7571  -42.6526 C.3       10 UNK        -0.0876 
     60 S60        21.5535  -31.8591  -43.8036 S.3       10 UNK        -0.2414 
     61 C61        20.2398  -32.4940  -44.8981 C.3       10 UNK         0.0169 
     62 H62        13.4009  -26.7491  -38.7924 H         1 UNK         0.0903 
     63 H63        13.6999  -28.3875  -39.3762 H         1 UNK         0.0903 
     64 H64        14.6837  -27.7245  -38.0700 H         1 UNK         0.0903 
     65 H65        14.8304  -28.4388  -41.3161 H         1 UNK         0.3096 
     66 H66        16.2565  -26.1566  -42.3398 H         1 UNK         0.1121 
     67 H67        15.0923  -27.3921  -43.9862 H         1 UNK         0.0849 
     68 H68        16.7688  -27.7412  -44.2761 H         1 UNK         0.0849 
     69 H69        15.2889  -31.1757  -45.3168 H         1 UNK         0.0865 
     70 H70        15.1949  -29.5138  -45.8387 H         1 UNK         0.0865 
     71 H71        17.6064  -32.0111  -44.4006 H         1 UNK         0.1346 
     72 H72        20.9285  -30.5445  -46.6798 H         1 UNK         0.1412 
     73 H73        17.1337  -28.5519  -46.8879 H         1 UNK         0.1426 
     74 H74        18.9212  -28.2012  -48.6333 H         1 UNK         0.0716 
     75 H75        20.5309  -28.8255  -48.3869 H         1 UNK         0.0716 
     76 H76        21.7922  -28.3622  -46.1251 H         1 UNK         0.0695 
     77 H77        22.4830  -27.0933  -47.1041 H         1 UNK         0.0695 
     78 H78        21.9334  -25.4241  -45.2536 H         1 UNK         0.0983 
     79 H79        20.6758  -27.7404  -44.0315 H         1 UNK         0.3095 
     80 H80        20.4156  -27.8276  -41.6742 H         1 UNK         0.0454 
     81 H81        21.3300  -26.1473  -40.0593 H         1 UNK         0.0851 
     82 H82        19.9641  -25.0854  -40.3696 H         1 UNK         0.0851 
     83 H83        19.7045  -26.6441  -39.5979 H         1 UNK         0.0851 
     84 H84        18.4608  -25.9548  -42.7658 H         1 UNK         0.2976 
     85 H85        24.1890  -25.7208  -46.2264 H         1 UNK         0.3116 
     86 H86        26.1193  -25.7736  -44.2250 H         1 UNK         0.0646 
     87 H87        27.7363  -25.6026  -46.1295 H         1 UNK         0.0847 
     88 H88        26.3575  -24.5456  -46.3657 H         1 UNK         0.0847 
     89 H89        26.4708  -26.0646  -47.2576 H         1 UNK         0.0847 
     90 H90        24.7979  -28.5418  -45.7176 H         1 UNK         0.3040 
     91 H91        26.9759  -30.3828  -45.5691 H         1 UNK         0.1015 
     92 H92        23.9405  -30.8276  -45.4953 H         1 UNK         0.0786 
     93 H93        25.1402  -32.0904  -45.7287 H         1 UNK         0.0786 
     94 H94        24.9596  -30.8279  -46.9354 H         1 UNK         0.0786 
     95 H95        24.5920  -29.2784  -43.0843 H         1 UNK         0.3172 
     96 H96        26.1786  -30.2557  -40.9375 H         1 UNK         0.0595 
     97 H97        24.5247  -31.9764  -40.0553 H         1 UNK         0.0839 
     98 H98        23.6485  -31.8922  -41.5742 H         1 UNK         0.0839 
     99 H99        25.2948  -32.5192  -41.5318 H         1 UNK         0.0839 
    100 H100       25.4728  -29.4435  -38.9719 H         1 UNK         0.2998 
    101 H101       23.3584  -27.4460  -38.8888 H         1 UNK         0.0822 
    102 H102       23.9454  -27.3639  -36.4616 H         1 UNK         0.0787 
    103 H103       25.0111  -28.7490  -36.6513 H         1 UNK         0.0787 
    104 H104       25.3858  -27.2251  -37.4573 H         1 UNK         0.0787 
    105 H105       21.2696  -27.8251  -38.4500 H         1 UNK         0.3055 
    106 H106       19.3001  -28.8478  -38.2631 H         1 UNK         0.1106 
    107 H107       20.6185  -30.6090  -36.1272 H         1 UNK         0.0828 
    108 H108       19.9150  -29.0172  -35.8452 H         1 UNK         0.0828 
    109 H109       18.8956  -30.3540  -36.3507 H         1 UNK         0.0828 
    110 H110       20.5451  -29.5314  -40.4567 H         1 UNK         0.2931 
    111 H111       20.9679  -32.2079  -41.0791 H         1 UNK         0.0412 
    112 H112       16.8524  -31.8776  -41.3898 H         1 UNK         0.3472 
    113 H113       17.8065  -30.4375  -41.1005 H         1 UNK         0.3472 
    114 H114       21.3651  -29.9516  -42.4502 H         1 UNK         0.0970 
    115 H115       19.8195  -30.2627  -43.1384 H         1 UNK         0.0970 
    116 H116       19.6384  -33.2164  -44.3452 H         1 UNK         0.0612 
    117 H117       20.7038  -33.0490  -45.7145 H         1 UNK         0.0612 
@<TRIPOS>BOND
     1    1    2 1    
     2    1   62 1    
     3    1   63 1    
     4    1   64 1    
     5    2    3 2    
     6    2    4 am   BACKBONE|DICT|INTERRES
     7    4    5 1    
     8    4   65 1    
     9    5    6 1    
    10    5   25 1    
    11    5   66 1    
    12    6    7 1    
    13    6   67 1    
    14    6   68 1    
    15    7    8 1    
    16    8    9 1    
    17    8   69 1    
    18    8   70 1    
    19    9   10 ar   
    20    9   14 ar   
    21   10   11 ar   
    22   10   71 1    
    23   11   12 ar   
    24   11   61 1    
    25   12   13 ar   
    26   12   72 1    
    27   13   14 ar   
    28   13   15 1    
    29   14   73 1    
    30   15   16 1    
    31   15   74 1    
    32   15   75 1    
    33   16   17 1    
    34   17   18 1    
    35   17   76 1    
    36   17   77 1    
    37   18   19 1    
    38   18   27 1    
    39   18   78 1    
    40   19   20 am   BACKBONE|DICT|INTERRES
    41   19   79 1    
    42   20   21 2    
    43   20   22 1    
    44   22   23 1    
    45   22   24 1    
    46   22   80 1    
    47   23   81 1    
    48   23   82 1    
    49   23   83 1    
    50   24   25 am   BACKBONE|DICT|INTERRES
    51   24   84 1    
    52   25   26 2    
    53   27   28 2    
    54   27   29 am   BACKBONE|DICT|INTERRES
    55   29   30 1    
    56   29   85 1    
    57   30   31 1    
    58   30   32 1    
    59   30   86 1    
    60   31   87 1    
    61   31   88 1    
    62   31   89 1    
    63   32   33 2    
    64   32   34 am   BACKBONE|DICT|INTERRES
    65   34   35 1    
    66   34   90 1    
    67   35   36 1    
    68   35   37 1    
    69   35   91 1    
    70   36   92 1    
    71   36   93 1    
    72   36   94 1    
    73   37   38 2    
    74   37   39 am   BACKBONE|DICT|INTERRES
    75   39   40 1    
    76   39   95 1    
    77   40   41 1    
    78   40   42 1    
    79   40   96 1    
    80   41   97 1    
    81   41   98 1    
    82   41   99 1    
    83   42   43 2    
    84   42   44 am   BACKBONE|DICT|INTERRES
    85   44   45 1    
    86   44  100 1    
    87   45   46 1    
    88   45   47 1    
    89   45  101 1    
    90   46  102 1    
    91   46  103 1    
    92   46  104 1    
    93   47   48 2    
    94   47   49 am   BACKBONE|DICT|INTERRES
    95   49   50 1    
    96   49  105 1    
    97   50   51 1    
    98   50   52 1    
    99   50  106 1    
   100   51  107 1    
   101   51  108 1    
   102   51  109 1    
   103   52   53 2    
   104   52   54 am   BACKBONE|DICT|INTERRES
   105   54   55 1    
   106   54  110 1    
   107   55   56 1    
   108   55   59 1    
   109   55  111 1    
   110   56   57 am   BACKBONE|DICT|INTERRES
   111   56   58 2    
   112   57  112 1    
   113   57  113 1    
   114   59   60 1    
   115   59  114 1    
   116   59  115 1    
   117   60   61 1    
   118   61  116 1    
   119   61  117 1    
@<TRIPOS>SUBSTRUCTURE
     1 UNK         1 GROUP             0       ****    0 ROOT    
