@<TRIPOS>MOLECULE
3R8
117   119    1
SMALL
USER_CHARGES


@<TRIPOS>ATOM
      1 CA         23.6158  -28.7082  -44.4233 C.3       0 UNK        -0.2013 
      2 C          22.1180  -28.4788  -44.5455 C.2       0 UNK         0.4866 
      3 O          21.4993  -27.9342  -43.6295 O.2       0 UNK        -0.5176 
      4 N          21.5343  -28.9068  -45.6718 N.am      1 UNK        -0.4884 
      5 CA         20.1316  -28.6779  -46.0293 C.3       1 UNK         0.0853 
      6 C6         19.7216  -29.5824  -47.2239 C.3       10 UNK        -0.0849 
      7 S7         18.0179  -29.3518  -47.8503 S.3       10 UNK        -0.2776 
      8 C8         17.0633  -30.5362  -46.8517 C.3       10 UNK         0.0316 
      9 C9         16.9688  -30.1203  -45.3894 C.ar      10 UNK        -0.0863 
     10 C10        17.5824  -30.8957  -44.4010 C.ar      10 UNK        -0.1009 
     11 C11        17.4544  -30.5532  -43.0530 C.ar      10 UNK        -0.0712 
     12 C12        16.7155  -29.4231  -42.6966 C.ar      10 UNK        -0.0894 
     13 C13        16.1008  -28.6302  -43.6725 C.ar      10 UNK        -0.0745 
     14 C14        16.2300  -28.9895  -45.0191 C.ar      10 UNK        -0.0972 
     15 C15        15.2207  -27.4443  -43.2796 C.3       10 UNK         0.0209 
     16 S16        15.8595  -26.4815  -41.8636 S.3       10 UNK        -0.2568 
     17 C17        16.8466  -25.1863  -42.6788 C.3       10 UNK        -0.0983 
     18 CA         18.3154  -25.5986  -42.9585 C.3       3 UNK         0.0876 
     19 N          19.0080  -24.6033  -43.7740 N.am      3 UNK        -0.4424 
     20 C          18.9683  -24.4083  -45.0990 C.2       2 UNK         0.4918 
     21 O          19.5929  -23.4850  -45.6201 O.2       2 UNK        -0.4875 
     22 CA         18.1430  -25.3643  -45.9938 C.3       2 UNK         0.0481 
     23 CB         18.0267  -24.8714  -47.4520 C.3       2 UNK        -0.1831 
     24 N          18.6477  -26.7391  -45.9592 N.am      2 UNK        -0.4498 
     25 C          19.8741  -27.1744  -46.2808 C.2       1 UNK         0.5027 
     26 O          20.7666  -26.4663  -46.7548 O.2       1 UNK        -0.4969 
     27 C          19.1443  -25.7327  -41.6716 C.2       3 UNK         0.5005 
     28 O          19.4203  -24.7100  -41.0383 O.2       3 UNK        -0.5279 
     29 N          19.5380  -26.9688  -41.3248 N.am      4 UNK        -0.4463 
     30 CA         20.3472  -27.3396  -40.1545 C.3       4 UNK         0.0283 
     31 CB         19.5287  -27.1709  -38.8575 C.3       4 UNK        -0.1875 
     32 C          21.7135  -26.6260  -40.1017 C.2       4 UNK         0.4949 
     33 O          22.1674  -26.2358  -39.0248 O.2       4 UNK        -0.5039 
     34 N          22.3462  -26.4625  -41.2715 N.am      5 UNK        -0.4663 
     35 CA         23.6213  -25.7556  -41.4332 C.3       5 UNK         0.0242 
     36 CB         23.6778  -25.1450  -42.8437 C.3       5 UNK        -0.1982 
     37 C          24.8534  -26.6356  -41.1458 C.2       5 UNK         0.5017 
     38 O          25.9730  -26.1225  -41.1622 O.2       5 UNK        -0.5012 
     39 N          24.6383  -27.9290  -40.8834 N.am      6 UNK        -0.4439 
     40 CA         25.6422  -28.9104  -40.4884 C.3       6 UNK         0.0297 
     41 CB         26.2992  -29.5304  -41.7353 C.3       6 UNK        -0.2006 
     42 C          24.9486  -29.9824  -39.6417 C.2       6 UNK         0.4892 
     43 O          23.7222  -30.1162  -39.7122 O.2       6 UNK        -0.5089 
     44 N          25.7445  -30.7369  -38.8726 N.am      7 UNK        -0.4243 
     45 CA         25.2910  -31.8605  -38.0496 C.3       7 UNK         0.0196 
     46 CB         26.4667  -32.3928  -37.2132 C.3       7 UNK        -0.2007 
     47 C          24.6823  -32.9716  -38.9211 C.2       7 UNK         0.5020 
     48 O          25.3769  -33.5108  -39.7839 O.2       7 UNK        -0.5147 
     49 N          23.3911  -33.2520  -38.6967 N.am      8 UNK        -0.4734 
     50 CA         22.5275  -34.1517  -39.4771 C.3       8 UNK         0.0238 
     51 CB         23.0301  -35.6108  -39.4111 C.3       8 UNK        -0.1912 
     52 C          22.2678  -33.6763  -40.9243 C.2       8 UNK         0.5038 
     53 O          21.8588  -34.4867  -41.7580 O.2       8 UNK        -0.5046 
     54 N          22.4687  -32.3766  -41.1870 N.am      9 UNK        -0.4200 
     55 CA         22.2478  -31.6996  -42.4738 C.3       9 UNK         0.0839 
     56 C          23.1756  -32.2406  -43.6037 C.2       9 UNK         0.5513 
     57 N          22.7280  -32.2895  -44.8528 N.am      9 UNK        -0.7519 
     58 O          24.3380  -32.5588  -43.3655 O.2       9 UNK        -0.4960 
     59 C59        20.7409  -31.6049  -42.8559 C.3       10 UNK        -0.0876 
     60 S60        19.7413  -30.8395  -41.5365 S.3       10 UNK        -0.2414 
     61 C61        18.0774  -31.4195  -41.9706 C.3       10 UNK         0.0169 
     62 H62        23.8883  -28.8597  -43.3818 H         1 UNK         0.0903 
     63 H63        24.1647  -27.8462  -44.7995 H         1 UNK         0.0903 
     64 H64        23.9354  -29.5844  -44.9865 H         1 UNK         0.0903 
     65 H65        22.1098  -29.3091  -46.3978 H         1 UNK         0.3096 
     66 H66        19.5374  -28.9686  -45.1609 H         1 UNK         0.1121 
     67 H67        19.8552  -30.6315  -46.9554 H         1 UNK         0.0849 
     68 H68        20.3951  -29.4061  -48.0646 H         1 UNK         0.0849 
     69 H69        16.0554  -30.6081  -47.2633 H         1 UNK         0.0865 
     70 H70        17.5009  -31.5307  -46.9527 H         1 UNK         0.0865 
     71 H71        18.1428  -31.7787  -44.6765 H         1 UNK         0.1346 
     72 H72        16.6010  -29.1780  -41.6496 H         1 UNK         0.1412 
     73 H73        15.7322  -28.4067  -45.7831 H         1 UNK         0.1426 
     74 H74        14.2396  -27.8348  -43.0067 H         1 UNK         0.0716 
     75 H75        15.0562  -26.7823  -44.1309 H         1 UNK         0.0716 
     76 H76        16.8179  -24.2959  -42.0475 H         1 UNK         0.0695 
     77 H77        16.3354  -24.8948  -43.5949 H         1 UNK         0.0695 
     78 H78        18.3260  -26.5654  -43.4583 H         1 UNK         0.0983 
     79 H79        19.5841  -23.9853  -43.2175 H         1 UNK         0.3095 
     80 H80        17.1301  -25.3981  -45.5965 H         1 UNK         0.0454 
     81 H81        18.9996  -24.7978  -47.9389 H         1 UNK         0.0851 
     82 H82        17.5687  -23.8825  -47.4929 H         1 UNK         0.0851 
     83 H83        17.4060  -25.5407  -48.0476 H         1 UNK         0.0851 
     84 H84        17.9863  -27.4294  -45.6309 H         1 UNK         0.2976 
     85 H85        19.3104  -27.7373  -41.9415 H         1 UNK         0.3116 
     86 H86        20.5774  -28.3993  -40.2592 H         1 UNK         0.0646 
     87 H87        19.3027  -26.1233  -38.6559 H         1 UNK         0.0847 
     88 H88        20.0748  -27.5580  -37.9965 H         1 UNK         0.0847 
     89 H89        18.5852  -27.7139  -38.9116 H         1 UNK         0.0847 
     90 H90        21.9289  -26.8591  -42.1120 H         1 UNK         0.3040 
     91 H91        23.6570  -24.9313  -40.7172 H         1 UNK         0.1015 
     92 H92        23.6268  -25.9067  -43.6193 H         1 UNK         0.0786 
     93 H93        24.6025  -24.5862  -42.9944 H         1 UNK         0.0786 
     94 H94        22.8525  -24.4514  -43.0057 H         1 UNK         0.0786 
     95 H95        23.6843  -28.2622  -40.8144 H         1 UNK         0.3172 
     96 H96        26.4019  -28.4215  -39.8746 H         1 UNK         0.0595 
     97 H97        27.1145  -30.1983  -41.4553 H         1 UNK         0.0839 
     98 H98        26.7192  -28.7662  -42.3894 H         1 UNK         0.0839 
     99 H99        25.5891  -30.1192  -42.3169 H         1 UNK         0.0839 
    100 H100       26.7410  -30.5762  -38.9025 H         1 UNK         0.2998 
    101 H101       24.5294  -31.4839  -37.3632 H         1 UNK         0.0822 
    102 H102       26.1499  -33.2244  -36.5822 H         1 UNK         0.0787 
    103 H103       27.2807  -32.7542  -37.8432 H         1 UNK         0.0787 
    104 H104       26.8678  -31.6220  -36.5547 H         1 UNK         0.0787 
    105 H105       22.9178  -32.7310  -37.9701 H         1 UNK         0.3055 
    106 H106       21.5519  -34.1252  -38.9888 H         1 UNK         0.1106 
    107 H107       22.2982  -36.2963  -39.8400 H         1 UNK         0.0828 
    108 H108       23.9597  -35.7463  -39.9645 H         1 UNK         0.0828 
    109 H109       23.2016  -35.9267  -38.3822 H         1 UNK         0.0828 
    110 H110       22.8363  -31.7817  -40.4526 H         1 UNK         0.2931 
    111 H111       22.5921  -30.6789  -42.3068 H         1 UNK         0.0412 
    112 H112       23.3465  -32.6274  -45.5737 H         1 UNK         0.3472 
    113 H113       21.7794  -32.0468  -45.0837 H         1 UNK         0.3472 
    114 H114       20.6037  -31.0007  -43.7528 H         1 UNK         0.0970 
    115 H115       20.3464  -32.5967  -43.0825 H         1 UNK         0.0970 
    116 H116       18.1097  -32.4649  -42.2808 H         1 UNK         0.0612 
    117 H117       17.4562  -31.3912  -41.0741 H         1 UNK         0.0612 
@<TRIPOS>BOND
     1    1    2 1    
     2    1   62 1    
     3    1   63 1    
     4    1   64 1    
     5    2    3 2    
     6    2    4 am   BACKBONE|DICT|INTERRES
     7    4    5 1    
     8    4   65 1    
     9    5    6 1    
    10    5   25 1    
    11    5   66 1    
    12    6    7 1    
    13    6   67 1    
    14    6   68 1    
    15    7    8 1    
    16    8    9 1    
    17    8   69 1    
    18    8   70 1    
    19    9   10 ar   
    20    9   14 ar   
    21   10   11 ar   
    22   10   71 1    
    23   11   12 ar   
    24   11   61 1    
    25   12   13 ar   
    26   12   72 1    
    27   13   14 ar   
    28   13   15 1    
    29   14   73 1    
    30   15   16 1    
    31   15   74 1    
    32   15   75 1    
    33   16   17 1    
    34   17   18 1    
    35   17   76 1    
    36   17   77 1    
    37   18   19 1    
    38   18   27 1    
    39   18   78 1    
    40   19   20 am   BACKBONE|DICT|INTERRES
    41   19   79 1    
    42   20   21 2    
    43   20   22 1    
    44   22   23 1    
    45   22   24 1    
    46   22   80 1    
    47   23   81 1    
    48   23   82 1    
    49   23   83 1    
    50   24   25 am   BACKBONE|DICT|INTERRES
    51   24   84 1    
    52   25   26 2    
    53   27   28 2    
    54   27   29 am   BACKBONE|DICT|INTERRES
    55   29   30 1    
    56   29   85 1    
    57   30   31 1    
    58   30   32 1    
    59   30   86 1    
    60   31   87 1    
    61   31   88 1    
    62   31   89 1    
    63   32   33 2    
    64   32   34 am   BACKBONE|DICT|INTERRES
    65   34   35 1    
    66   34   90 1    
    67   35   36 1    
    68   35   37 1    
    69   35   91 1    
    70   36   92 1    
    71   36   93 1    
    72   36   94 1    
    73   37   38 2    
    74   37   39 am   BACKBONE|DICT|INTERRES
    75   39   40 1    
    76   39   95 1    
    77   40   41 1    
    78   40   42 1    
    79   40   96 1    
    80   41   97 1    
    81   41   98 1    
    82   41   99 1    
    83   42   43 2    
    84   42   44 am   BACKBONE|DICT|INTERRES
    85   44   45 1    
    86   44  100 1    
    87   45   46 1    
    88   45   47 1    
    89   45  101 1    
    90   46  102 1    
    91   46  103 1    
    92   46  104 1    
    93   47   48 2    
    94   47   49 am   BACKBONE|DICT|INTERRES
    95   49   50 1    
    96   49  105 1    
    97   50   51 1    
    98   50   52 1    
    99   50  106 1    
   100   51  107 1    
   101   51  108 1    
   102   51  109 1    
   103   52   53 2    
   104   52   54 am   BACKBONE|DICT|INTERRES
   105   54   55 1    
   106   54  110 1    
   107   55   56 1    
   108   55   59 1    
   109   55  111 1    
   110   56   57 am   BACKBONE|DICT|INTERRES
   111   56   58 2    
   112   57  112 1    
   113   57  113 1    
   114   59   60 1    
   115   59  114 1    
   116   59  115 1    
   117   60   61 1    
   118   61  116 1    
   119   61  117 1    
@<TRIPOS>SUBSTRUCTURE
     1 UNK         1 GROUP             0       ****    0 ROOT    
