@<TRIPOS>MOLECULE
3R8
117   119    1
SMALL
USER_CHARGES


@<TRIPOS>ATOM
      1 CA         13.9828  -27.8078  -39.1514 C.3       0 UNK        -0.2013 
      2 C          14.8355  -27.3677  -40.3321 C.2       0 UNK         0.4866 
      3 O          15.3970  -26.2721  -40.3067 O.2       0 UNK        -0.5176 
      4 N          14.9296  -28.2085  -41.3701 N.am      1 UNK        -0.4884 
      5 CA         15.7686  -27.9831  -42.5514 C.3       1 UNK         0.0853 
      6 C6         15.3160  -28.8812  -43.7291 C.3       10 UNK        -0.0849 
      7 S7         15.7426  -28.1767  -45.3576 S.3       10 UNK        -0.2776 
      8 C8         16.5666  -29.5792  -46.1769 C.3       10 UNK         0.0316 
      9 C9         18.0522  -29.6279  -45.8546 C.ar      10 UNK        -0.0863 
     10 C10        18.5121  -30.3087  -44.7245 C.ar      10 UNK        -0.1009 
     11 C11        19.8769  -30.3494  -44.4295 C.ar      10 UNK        -0.0712 
     12 C12        20.7888  -29.7241  -45.2841 C.ar      10 UNK        -0.0894 
     13 C13        20.3416  -29.0480  -46.4220 C.ar      10 UNK        -0.0745 
     14 C14        18.9720  -28.9983  -46.6987 C.ar      10 UNK        -0.0972 
     15 C15        21.3317  -28.3834  -47.3651 C.3       10 UNK         0.0209 
     16 S16        21.5793  -26.6275  -46.9590 S.3       10 UNK        -0.2568 
     17 C17        22.8907  -26.7008  -45.6949 C.3       10 UNK        -0.0983 
     18 CA         22.5212  -25.9208  -44.4028 C.3       3 UNK         0.0876 
     19 N          21.5862  -26.6685  -43.5626 N.am      3 UNK        -0.4424 
     20 C          20.2735  -26.4532  -43.4628 C.2       2 UNK         0.4918 
     21 O          19.6453  -25.6260  -44.1292 O.2       2 UNK        -0.4875 
     22 CA         19.5512  -27.2644  -42.3826 C.3       2 UNK         0.0481 
     23 CB         19.7854  -26.6369  -40.9970 C.3       2 UNK        -0.1831 
     24 N          18.1213  -27.2948  -42.6717 N.am      2 UNK        -0.4498 
     25 C          17.2545  -28.1912  -42.1898 C.2       1 UNK         0.5027 
     26 O          17.5770  -29.1507  -41.4820 O.2       1 UNK        -0.4969 
     27 C          23.7734  -25.6201  -43.5556 C.2       3 UNK         0.5005 
     28 O          23.8847  -26.0873  -42.4203 O.2       3 UNK        -0.5279 
     29 N          24.7365  -24.8838  -44.1275 N.am      4 UNK        -0.4463 
     30 CA         26.0594  -24.6658  -43.5254 C.3       4 UNK         0.0283 
     31 CB         26.8278  -23.6166  -44.3448 C.3       4 UNK        -0.1875 
     32 C          26.8888  -25.9609  -43.3958 C.2       4 UNK         0.4949 
     33 O          27.7358  -26.0527  -42.5075 O.2       4 UNK        -0.5039 
     34 N          26.6254  -26.9342  -44.2791 N.am      5 UNK        -0.4663 
     35 CA         27.2838  -28.2406  -44.3139 C.3       5 UNK         0.0242 
     36 CB         27.1975  -28.7942  -45.7464 C.3       5 UNK        -0.1982 
     37 C          26.7053  -29.2622  -43.3169 C.2       5 UNK         0.5017 
     38 O          27.3848  -30.2496  -43.0325 O.2       5 UNK        -0.5012 
     39 N          25.4787  -29.0447  -42.8214 N.am      6 UNK        -0.4439 
     40 CA         24.7729  -29.9634  -41.9292 C.3       6 UNK         0.0297 
     41 CB         24.1835  -31.1451  -42.7230 C.3       6 UNK        -0.2006 
     42 C          23.6805  -29.1979  -41.1786 C.2       6 UNK         0.4892 
     43 O          22.7477  -28.6983  -41.8106 O.2       6 UNK        -0.5089 
     44 N          23.8192  -29.1266  -39.8488 N.am      7 UNK        -0.4243 
     45 CA         22.9170  -28.4030  -38.9476 C.3       7 UNK         0.0196 
     46 CB         23.6259  -28.1890  -37.5998 C.3       7 UNK        -0.2007 
     47 C          21.5540  -29.0870  -38.7326 C.2       7 UNK         0.5020 
     48 O          20.6232  -28.4260  -38.2729 O.2       7 UNK        -0.5147 
     49 N          21.4534  -30.3825  -39.0467 N.am      8 UNK        -0.4734 
     50 CA         20.2306  -31.1781  -38.9933 C.3       8 UNK         0.0238 
     51 CB         19.9125  -31.5835  -37.5415 C.3       8 UNK        -0.1912 
     52 C          20.4264  -32.4144  -39.8758 C.2       8 UNK         0.5038 
     53 O          21.5541  -32.9051  -39.9810 O.2       8 UNK        -0.5046 
     54 N          19.3311  -32.8869  -40.4796 N.am      9 UNK        -0.4200 
     55 CA         19.2836  -34.0425  -41.3935 C.3       9 UNK         0.0839 
     56 C          18.1545  -35.0493  -41.0255 C.2       9 UNK         0.5513 
     57 N          17.5119  -34.9379  -39.8681 N.am      9 UNK        -0.7519 
     58 O          17.8634  -35.9637  -41.7924 O.2       9 UNK        -0.4960 
     59 C59        19.2148  -33.5970  -42.8839 C.3       10 UNK        -0.0876 
     60 S60        20.7502  -32.7885  -43.4484 S.3       10 UNK        -0.2414 
     61 C61        20.3673  -31.0341  -43.1675 C.3       10 UNK         0.0169 
     62 H62        14.5912  -27.8596  -38.2488 H         1 UNK         0.0903 
     63 H63        13.5339  -28.7875  -39.3141 H         1 UNK         0.0903 
     64 H64        13.1798  -27.0914  -38.9805 H         1 UNK         0.0903 
     65 H65        14.4770  -29.1101  -41.3187 H         1 UNK         0.3096 
     66 H66        15.6290  -26.9391  -42.8432 H         1 UNK         0.1121 
     67 H67        14.2289  -28.9789  -43.7228 H         1 UNK         0.0849 
     68 H68        15.6969  -29.8980  -43.6234 H         1 UNK         0.0849 
     69 H69        16.0827  -30.5179  -45.9025 H         1 UNK         0.0865 
     70 H70        16.4281  -29.4799  -47.2546 H         1 UNK         0.0865 
     71 H71        17.8092  -30.7932  -44.0623 H         1 UNK         0.1346 
     72 H72        21.8450  -29.7578  -45.0573 H         1 UNK         0.1412 
     73 H73        18.6227  -28.4687  -47.5747 H         1 UNK         0.1426 
     74 H74        20.9596  -28.4521  -48.3885 H         1 UNK         0.0716 
     75 H75        22.2870  -28.9104  -47.3595 H         1 UNK         0.0716 
     76 H76        23.1357  -27.7372  -45.4572 H         1 UNK         0.0695 
     77 H77        23.7799  -26.2895  -46.1745 H         1 UNK         0.0695 
     78 H78        22.0884  -24.9537  -44.6685 H         1 UNK         0.0983 
     79 H79        22.0321  -27.3109  -42.9075 H         1 UNK         0.3095 
     80 H80        19.9444  -28.2819  -42.3919 H         1 UNK         0.0454 
     81 H81        19.4236  -25.6090  -40.9541 H         1 UNK         0.0851 
     82 H82        19.2783  -27.2004  -40.2145 H         1 UNK         0.0851 
     83 H83        20.8470  -26.6216  -40.7492 H         1 UNK         0.0851 
     84 H84        17.8111  -26.5714  -43.3091 H         1 UNK         0.2976 
     85 H85        24.5854  -24.4998  -45.0502 H         1 UNK         0.3116 
     86 H86        25.9109  -24.2698  -42.5183 H         1 UNK         0.0646 
     87 H87        27.8049  -23.4165  -43.9023 H         1 UNK         0.0847 
     88 H88        26.2916  -22.6681  -44.3802 H         1 UNK         0.0847 
     89 H89        26.9976  -23.9470  -45.3703 H         1 UNK         0.0847 
     90 H90        25.9292  -26.7583  -44.9876 H         1 UNK         0.3040 
     91 H91        28.3391  -28.1079  -44.0634 H         1 UNK         0.1015 
     92 H92        27.6683  -28.1198  -46.4621 H         1 UNK         0.0786 
     93 H93        26.1640  -28.9498  -46.0589 H         1 UNK         0.0786 
     94 H94        27.7093  -29.7545  -45.8260 H         1 UNK         0.0786 
     95 H95        24.9976  -28.1779  -43.0273 H         1 UNK         0.3172 
     96 H96        25.4811  -30.3598  -41.1981 H         1 UNK         0.0595 
     97 H97        23.5705  -31.7823  -42.0836 H         1 UNK         0.0839 
     98 H98        24.9681  -31.7726  -43.1454 H         1 UNK         0.0839 
     99 H99        23.5541  -30.8036  -43.5447 H         1 UNK         0.0839 
    100 H100       24.6173  -29.5731  -39.4200 H         1 UNK         0.2998 
    101 H101       22.7207  -27.4226  -39.3870 H         1 UNK         0.0822 
    102 H102       23.8624  -29.1360  -37.1130 H         1 UNK         0.0787 
    103 H103       24.5544  -27.6312  -37.7231 H         1 UNK         0.0787 
    104 H104       22.9972  -27.6189  -36.9141 H         1 UNK         0.0787 
    105 H105       22.2534  -30.8695  -39.4312 H         1 UNK         0.3055 
    106 H106       19.4088  -30.5817  -39.3986 H         1 UNK         0.1106 
    107 H107       20.7249  -32.1615  -37.0992 H         1 UNK         0.0828 
    108 H108       19.7415  -30.7111  -36.9107 H         1 UNK         0.0828 
    109 H109       19.0112  -32.1955  -37.4931 H         1 UNK         0.0828 
    110 H110       18.4463  -32.4241  -40.3269 H         1 UNK         0.2931 
    111 H111       20.1982  -34.6251  -41.2687 H         1 UNK         0.0412 
    112 H112       17.7673  -34.2326  -39.1964 H         1 UNK         0.3472 
    113 H113       16.7881  -35.6036  -39.6450 H         1 UNK         0.3472 
    114 H114       18.3586  -32.9435  -43.0551 H         1 UNK         0.0970 
    115 H115       19.0657  -34.4586  -43.5371 H         1 UNK         0.0970 
    116 H116       21.2666  -30.5399  -42.8061 H         1 UNK         0.0612 
    117 H117       19.6299  -30.9197  -42.3732 H         1 UNK         0.0612 
@<TRIPOS>BOND
     1    1    2 1    
     2    1   62 1    
     3    1   63 1    
     4    1   64 1    
     5    2    3 2    
     6    2    4 am   BACKBONE|DICT|INTERRES
     7    4    5 1    
     8    4   65 1    
     9    5    6 1    
    10    5   25 1    
    11    5   66 1    
    12    6    7 1    
    13    6   67 1    
    14    6   68 1    
    15    7    8 1    
    16    8    9 1    
    17    8   69 1    
    18    8   70 1    
    19    9   10 ar   
    20    9   14 ar   
    21   10   11 ar   
    22   10   71 1    
    23   11   12 ar   
    24   11   61 1    
    25   12   13 ar   
    26   12   72 1    
    27   13   14 ar   
    28   13   15 1    
    29   14   73 1    
    30   15   16 1    
    31   15   74 1    
    32   15   75 1    
    33   16   17 1    
    34   17   18 1    
    35   17   76 1    
    36   17   77 1    
    37   18   19 1    
    38   18   27 1    
    39   18   78 1    
    40   19   20 am   BACKBONE|DICT|INTERRES
    41   19   79 1    
    42   20   21 2    
    43   20   22 1    
    44   22   23 1    
    45   22   24 1    
    46   22   80 1    
    47   23   81 1    
    48   23   82 1    
    49   23   83 1    
    50   24   25 am   BACKBONE|DICT|INTERRES
    51   24   84 1    
    52   25   26 2    
    53   27   28 2    
    54   27   29 am   BACKBONE|DICT|INTERRES
    55   29   30 1    
    56   29   85 1    
    57   30   31 1    
    58   30   32 1    
    59   30   86 1    
    60   31   87 1    
    61   31   88 1    
    62   31   89 1    
    63   32   33 2    
    64   32   34 am   BACKBONE|DICT|INTERRES
    65   34   35 1    
    66   34   90 1    
    67   35   36 1    
    68   35   37 1    
    69   35   91 1    
    70   36   92 1    
    71   36   93 1    
    72   36   94 1    
    73   37   38 2    
    74   37   39 am   BACKBONE|DICT|INTERRES
    75   39   40 1    
    76   39   95 1    
    77   40   41 1    
    78   40   42 1    
    79   40   96 1    
    80   41   97 1    
    81   41   98 1    
    82   41   99 1    
    83   42   43 2    
    84   42   44 am   BACKBONE|DICT|INTERRES
    85   44   45 1    
    86   44  100 1    
    87   45   46 1    
    88   45   47 1    
    89   45  101 1    
    90   46  102 1    
    91   46  103 1    
    92   46  104 1    
    93   47   48 2    
    94   47   49 am   BACKBONE|DICT|INTERRES
    95   49   50 1    
    96   49  105 1    
    97   50   51 1    
    98   50   52 1    
    99   50  106 1    
   100   51  107 1    
   101   51  108 1    
   102   51  109 1    
   103   52   53 2    
   104   52   54 am   BACKBONE|DICT|INTERRES
   105   54   55 1    
   106   54  110 1    
   107   55   56 1    
   108   55   59 1    
   109   55  111 1    
   110   56   57 am   BACKBONE|DICT|INTERRES
   111   56   58 2    
   112   57  112 1    
   113   57  113 1    
   114   59   60 1    
   115   59  114 1    
   116   59  115 1    
   117   60   61 1    
   118   61  116 1    
   119   61  117 1    
@<TRIPOS>SUBSTRUCTURE
     1 UNK         1 GROUP             0       ****    0 ROOT    
