@<TRIPOS>MOLECULE
3R8
117   119    1
SMALL
USER_CHARGES


@<TRIPOS>ATOM
      1 CA         16.5756  -22.7815  -44.7929 C.3       0 UNK        -0.2013 
      2 C          16.2211  -24.2579  -44.6369 C.2       0 UNK         0.4866 
      3 O          15.4240  -24.5978  -43.7657 O.2       0 UNK        -0.5176 
      4 N          16.7708  -25.1750  -45.4464 N.am      1 UNK        -0.4884 
      5 CA         17.7818  -24.9635  -46.4942 C.3       1 UNK         0.0853 
      6 C6         17.8894  -26.2056  -47.4219 C.3       10 UNK        -0.0849 
      7 S7         18.5088  -27.7158  -46.5906 S.3       10 UNK        -0.2776 
      8 C8         16.9837  -28.6499  -46.2606 C.3       10 UNK         0.0316 
      9 C9         17.1862  -29.5634  -45.0622 C.ar      10 UNK        -0.0863 
     10 C10        17.8681  -30.7738  -45.2125 C.ar      10 UNK        -0.1009 
     11 C11        18.1073  -31.5986  -44.1088 C.ar      10 UNK        -0.0712 
     12 C12        17.6280  -31.2167  -42.8510 C.ar      10 UNK        -0.0894 
     13 C13        16.9296  -30.0156  -42.6902 C.ar      10 UNK        -0.0745 
     14 C14        16.7158  -29.1906  -43.7992 C.ar      10 UNK        -0.0972 
     15 C15        16.4002  -29.6121  -41.3196 C.3       10 UNK         0.0209 
     16 S16        17.7298  -29.1090  -40.1790 S.3       10 UNK        -0.2568 
     17 C17        18.4349  -27.6602  -41.0352 C.3       10 UNK        -0.0983 
     18 CA         19.7444  -28.0242  -41.7872 C.3       3 UNK         0.0876 
     19 N          20.0644  -27.0599  -42.8427 N.am      3 UNK        -0.4424 
     20 C          20.5342  -25.8120  -42.6814 C.2       2 UNK         0.4918 
     21 O          20.7970  -25.3016  -41.5924 O.2       2 UNK        -0.4875 
     22 CA         20.6987  -24.9870  -43.9619 C.3       2 UNK         0.0481 
     23 CB         21.9197  -25.4837  -44.7648 C.3       2 UNK        -0.1831 
     24 N          19.4584  -25.0983  -44.7259 N.am      2 UNK        -0.4498 
     25 C          19.1610  -24.5682  -45.9179 C.2       1 UNK         0.5027 
     26 O          19.8956  -23.8076  -46.5484 O.2       1 UNK        -0.4969 
     27 C          20.9690  -28.2778  -40.8836 C.2       3 UNK         0.5005 
     28 O          21.9289  -28.8938  -41.3469 O.2       3 UNK        -0.5279 
     29 N          20.9560  -27.7719  -39.6422 N.am      4 UNK        -0.4463 
     30 CA         22.0604  -27.8497  -38.6798 C.3       4 UNK         0.0283 
     31 CB         21.6336  -27.1918  -37.3591 C.3       4 UNK        -0.1875 
     32 C          23.3802  -27.2358  -39.1845 C.2       4 UNK         0.4949 
     33 O          24.4462  -27.7265  -38.8141 O.2       4 UNK        -0.5039 
     34 N          23.2999  -26.2265  -40.0660 N.am      5 UNK        -0.4663 
     35 CA         24.4591  -25.6390  -40.7503 C.3       5 UNK         0.0242 
     36 CB         24.0633  -24.2869  -41.3651 C.3       5 UNK        -0.1982 
     37 C          25.0837  -26.5690  -41.8112 C.2       5 UNK         0.5017 
     38 O          26.2299  -26.3448  -42.1996 O.2       5 UNK        -0.5012 
     39 N          24.3429  -27.6029  -42.2338 N.am      6 UNK        -0.4439 
     40 CA         24.7977  -28.7005  -43.0888 C.3       6 UNK         0.0297 
     41 CB         23.8343  -28.8320  -44.2836 C.3       6 UNK        -0.2006 
     42 C          24.8958  -30.0131  -42.2834 C.2       6 UNK         0.4892 
     43 O          24.7834  -31.0922  -42.8673 O.2       6 UNK        -0.5089 
     44 N          25.0726  -29.9035  -40.9547 N.am      7 UNK        -0.4243 
     45 CA         25.1903  -30.9896  -39.9717 C.3       7 UNK         0.0196 
     46 CB         26.5204  -31.7481  -40.1669 C.3       7 UNK        -0.2007 
     47 C          23.9703  -31.9325  -39.9378 C.2       7 UNK         0.5020 
     48 O          24.1295  -33.1296  -39.6917 O.2       7 UNK        -0.5147 
     49 N          22.7774  -31.3876  -40.2265 N.am      8 UNK        -0.4734 
     50 CA         21.4930  -32.0883  -40.3698 C.3       8 UNK         0.0238 
     51 CB         21.0032  -32.6198  -39.0069 C.3       8 UNK        -0.1912 
     52 C          21.5150  -33.1704  -41.4686 C.2       8 UNK         0.5038 
     53 O          20.7869  -34.1593  -41.3680 O.2       8 UNK        -0.5046 
     54 N          22.3598  -32.9594  -42.4879 N.am      9 UNK        -0.4200 
     55 CA         22.6337  -33.8714  -43.6083 C.3       9 UNK         0.0839 
     56 C          23.4154  -35.1588  -43.2063 C.2       9 UNK         0.5513 
     57 N          24.0119  -35.2359  -42.0212 N.am      9 UNK        -0.7519 
     58 O          23.5104  -36.0974  -43.9934 O.2       9 UNK        -0.4960 
     59 C59        21.3878  -34.1703  -44.4939 C.3       10 UNK        -0.0876 
     60 S60        20.5164  -32.6524  -45.0201 S.3       10 UNK        -0.2414 
     61 C61        18.8725  -32.9054  -44.2724 C.3       10 UNK         0.0169 
     62 H62        17.5767  -22.5816  -44.4124 H         1 UNK         0.0903 
     63 H63        16.5211  -22.4619  -45.8325 H         1 UNK         0.0903 
     64 H64        15.8781  -22.1640  -44.2273 H         1 UNK         0.0903 
     65 H65        16.4931  -26.1363  -45.3202 H         1 UNK         0.3096 
     66 H66        17.4509  -24.1304  -47.1175 H         1 UNK         0.1121 
     67 H67        18.5594  -25.9866  -48.2558 H         1 UNK         0.0849 
     68 H68        16.9217  -26.4145  -47.8810 H         1 UNK         0.0849 
     69 H69        16.1490  -27.9714  -46.0817 H         1 UNK         0.0865 
     70 H70        16.7187  -29.2361  -47.1420 H         1 UNK         0.0865 
     71 H71        18.2384  -31.0624  -46.1871 H         1 UNK         0.1346 
     72 H72        17.7996  -31.8507  -41.9915 H         1 UNK         0.1412 
     73 H73        16.1856  -28.2559  -43.6767 H         1 UNK         0.1426 
     74 H74        15.6760  -28.8004  -41.4054 H         1 UNK         0.0716 
     75 H75        15.8618  -30.4537  -40.8816 H         1 UNK         0.0716 
     76 H76        18.5780  -26.8440  -40.3258 H         1 UNK         0.0695 
     77 H77        17.6931  -27.2882  -41.7434 H         1 UNK         0.0695 
     78 H78        19.5751  -28.9650  -42.3139 H         1 UNK         0.0983 
     79 H79        19.9448  -27.4051  -43.7850 H         1 UNK         0.3095 
     80 H80        20.8467  -23.9418  -43.6844 H         1 UNK         0.0454 
     81 H81        22.1681  -24.8018  -45.5776 H         1 UNK         0.0851 
     82 H82        21.7445  -26.4678  -45.2005 H         1 UNK         0.0851 
     83 H83        22.8068  -25.5599  -44.1357 H         1 UNK         0.0851 
     84 H84        18.7387  -25.6590  -44.2902 H         1 UNK         0.2976 
     85 H85        20.1334  -27.2660  -39.3466 H         1 UNK         0.3116 
     86 H86        22.2482  -28.9081  -38.4872 H         1 UNK         0.0646 
     87 H87        20.7562  -27.6812  -36.9359 H         1 UNK         0.0847 
     88 H88        22.4288  -27.2586  -36.6151 H         1 UNK         0.0847 
     89 H89        21.3996  -26.1346  -37.4912 H         1 UNK         0.0847 
     90 H90        22.3839  -25.8893  -40.3456 H         1 UNK         0.3040 
     91 H91        25.2320  -25.4516  -40.0013 H         1 UNK         0.1015 
     92 H92        23.2928  -24.3944  -42.1268 H         1 UNK         0.0786 
     93 H93        24.9216  -23.8066  -41.8372 H         1 UNK         0.0786 
     94 H94        23.6878  -23.6013  -40.6053 H         1 UNK         0.0786 
     95 H95        23.4220  -27.7424  -41.8268 H         1 UNK         0.3172 
     96 H96        25.7963  -28.4935  -43.4779 H         1 UNK         0.0595 
     97 H97        22.8202  -29.0714  -43.9608 H         1 UNK         0.0839 
     98 H98        24.1546  -29.6217  -44.9643 H         1 UNK         0.0839 
     99 H99        23.7960  -27.9096  -44.8619 H         1 UNK         0.0839 
    100 H100       25.1101  -28.9713  -40.5609 H         1 UNK         0.2998 
    101 H101       25.2237  -30.5100  -38.9923 H         1 UNK         0.0822 
    102 H102       26.6852  -32.4658  -39.3623 H         1 UNK         0.0787 
    103 H103       26.5341  -32.3033  -41.1056 H         1 UNK         0.0787 
    104 H104       27.3701  -31.0655  -40.1680 H         1 UNK         0.0787 
    105 H105       22.7511  -30.4063  -40.4938 H         1 UNK         0.3055 
    106 H106       20.7706  -31.3447  -40.7090 H         1 UNK         0.1106 
    107 H107       19.9915  -33.0200  -39.0835 H         1 UNK         0.0828 
    108 H108       21.6413  -33.4202  -38.6313 H         1 UNK         0.0828 
    109 H109       20.9800  -31.8279  -38.2585 H         1 UNK         0.0828 
    110 H110       22.9560  -32.1406  -42.4578 H         1 UNK         0.2931 
    111 H111       23.3346  -33.3197  -44.2359 H         1 UNK         0.0412 
    112 H112       24.5222  -36.0709  -41.7811 H         1 UNK         0.3472 
    113 H113       23.9521  -34.4740  -41.3562 H         1 UNK         0.3472 
    114 H114       20.7011  -34.8399  -43.9740 H         1 UNK         0.0970 
    115 H115       21.6899  -34.7027  -45.3975 H         1 UNK         0.0970 
    116 H116       18.9869  -33.3932  -43.3038 H         1 UNK         0.0612 
    117 H117       18.2956  -33.5874  -44.8982 H         1 UNK         0.0612 
@<TRIPOS>BOND
     1    1    2 1    
     2    1   62 1    
     3    1   63 1    
     4    1   64 1    
     5    2    3 2    
     6    2    4 am   BACKBONE|DICT|INTERRES
     7    4    5 1    
     8    4   65 1    
     9    5    6 1    
    10    5   25 1    
    11    5   66 1    
    12    6    7 1    
    13    6   67 1    
    14    6   68 1    
    15    7    8 1    
    16    8    9 1    
    17    8   69 1    
    18    8   70 1    
    19    9   10 ar   
    20    9   14 ar   
    21   10   11 ar   
    22   10   71 1    
    23   11   12 ar   
    24   11   61 1    
    25   12   13 ar   
    26   12   72 1    
    27   13   14 ar   
    28   13   15 1    
    29   14   73 1    
    30   15   16 1    
    31   15   74 1    
    32   15   75 1    
    33   16   17 1    
    34   17   18 1    
    35   17   76 1    
    36   17   77 1    
    37   18   19 1    
    38   18   27 1    
    39   18   78 1    
    40   19   20 am   BACKBONE|DICT|INTERRES
    41   19   79 1    
    42   20   21 2    
    43   20   22 1    
    44   22   23 1    
    45   22   24 1    
    46   22   80 1    
    47   23   81 1    
    48   23   82 1    
    49   23   83 1    
    50   24   25 am   BACKBONE|DICT|INTERRES
    51   24   84 1    
    52   25   26 2    
    53   27   28 2    
    54   27   29 am   BACKBONE|DICT|INTERRES
    55   29   30 1    
    56   29   85 1    
    57   30   31 1    
    58   30   32 1    
    59   30   86 1    
    60   31   87 1    
    61   31   88 1    
    62   31   89 1    
    63   32   33 2    
    64   32   34 am   BACKBONE|DICT|INTERRES
    65   34   35 1    
    66   34   90 1    
    67   35   36 1    
    68   35   37 1    
    69   35   91 1    
    70   36   92 1    
    71   36   93 1    
    72   36   94 1    
    73   37   38 2    
    74   37   39 am   BACKBONE|DICT|INTERRES
    75   39   40 1    
    76   39   95 1    
    77   40   41 1    
    78   40   42 1    
    79   40   96 1    
    80   41   97 1    
    81   41   98 1    
    82   41   99 1    
    83   42   43 2    
    84   42   44 am   BACKBONE|DICT|INTERRES
    85   44   45 1    
    86   44  100 1    
    87   45   46 1    
    88   45   47 1    
    89   45  101 1    
    90   46  102 1    
    91   46  103 1    
    92   46  104 1    
    93   47   48 2    
    94   47   49 am   BACKBONE|DICT|INTERRES
    95   49   50 1    
    96   49  105 1    
    97   50   51 1    
    98   50   52 1    
    99   50  106 1    
   100   51  107 1    
   101   51  108 1    
   102   51  109 1    
   103   52   53 2    
   104   52   54 am   BACKBONE|DICT|INTERRES
   105   54   55 1    
   106   54  110 1    
   107   55   56 1    
   108   55   59 1    
   109   55  111 1    
   110   56   57 am   BACKBONE|DICT|INTERRES
   111   56   58 2    
   112   57  112 1    
   113   57  113 1    
   114   59   60 1    
   115   59  114 1    
   116   59  115 1    
   117   60   61 1    
   118   61  116 1    
   119   61  117 1    
@<TRIPOS>SUBSTRUCTURE
     1 UNK         1 GROUP             0       ****    0 ROOT    
