@<TRIPOS>MOLECULE
3R8
117   119    1
SMALL
USER_CHARGES


@<TRIPOS>ATOM
      1 CA         17.1875  -22.4913  -46.4402 C.3       0 UNK        -0.2013 
      2 C          16.7106  -23.9324  -46.2799 C.2       0 UNK         0.4866 
      3 O          15.5129  -24.1878  -46.3847 O.2       0 UNK        -0.5176 
      4 N          17.5942  -24.9081  -46.0227 N.am      1 UNK        -0.4884 
      5 CA         19.0484  -24.7675  -45.8470 C.3       1 UNK         0.0853 
      6 C6         19.7879  -26.0589  -46.2957 C.3       10 UNK        -0.0849 
      7 S7         19.7327  -27.4499  -45.1104 S.3       10 UNK        -0.2776 
      8 C8         18.4025  -28.5027  -45.7641 C.3       10 UNK         0.0316 
      9 C9         18.2507  -29.7280  -44.8778 C.ar      10 UNK        -0.0863 
     10 C10        18.7588  -30.9648  -45.2845 C.ar      10 UNK        -0.1009 
     11 C11        18.6977  -32.0733  -44.4331 C.ar      10 UNK        -0.0712 
     12 C12        18.1296  -31.9305  -43.1623 C.ar      10 UNK        -0.0894 
     13 C13        17.6050  -30.7010  -42.7505 C.ar      10 UNK        -0.0745 
     14 C14        17.6440  -29.6115  -43.6240 C.ar      10 UNK        -0.0972 
     15 C15        17.0037  -30.5494  -41.3607 C.3       10 UNK         0.0209 
     16 S16        18.2514  -30.0223  -40.1406 S.3       10 UNK        -0.2568 
     17 C17        18.3158  -28.2151  -40.3801 C.3       10 UNK        -0.0983 
     18 CA         19.4653  -27.7350  -41.3085 C.3       3 UNK         0.0876 
     19 N          19.2043  -26.4064  -41.8823 N.am      3 UNK        -0.4424 
     20 C          18.9912  -25.2521  -41.2313 C.2       2 UNK         0.4918 
     21 O          19.0940  -25.1343  -40.0095 O.2       2 UNK        -0.4875 
     22 CA         18.5458  -24.0287  -42.0573 C.3       2 UNK         0.0481 
     23 CB         19.3667  -22.7656  -41.7193 C.3       2 UNK        -0.1831 
     24 N          18.4555  -24.2790  -43.5037 N.am      2 UNK        -0.4498 
     25 C          19.4417  -24.3285  -44.4144 C.2       1 UNK         0.5027 
     26 O          20.6208  -24.0826  -44.1663 O.2       1 UNK        -0.4969 
     27 C          20.8614  -27.8675  -40.6682 C.2       3 UNK         0.5005 
     28 O          21.6225  -28.7570  -41.0544 O.2       3 UNK        -0.5279 
     29 N          21.2007  -26.9615  -39.7422 N.am      4 UNK        -0.4463 
     30 CA         22.4834  -26.9016  -39.0357 C.3       4 UNK         0.0283 
     31 CB         22.4295  -25.7960  -37.9703 C.3       4 UNK        -0.1875 
     32 C          23.6861  -26.6923  -39.9706 C.2       4 UNK         0.4949 
     33 O          24.7466  -27.2652  -39.7253 O.2       4 UNK        -0.5039 
     34 N          23.4867  -25.9273  -41.0538 N.am      5 UNK        -0.4663 
     35 CA         24.4827  -25.6911  -42.1050 C.3       5 UNK         0.0242 
     36 CB         23.9833  -24.5701  -43.0290 C.3       5 UNK        -0.1982 
     37 C          24.8212  -26.9498  -42.9260 C.2       5 UNK         0.5017 
     38 O          25.9284  -27.0403  -43.4564 O.2       5 UNK        -0.5012 
     39 N          23.8769  -27.8976  -42.9986 N.am      6 UNK        -0.4439 
     40 CA         24.0438  -29.2086  -43.6278 C.3       6 UNK         0.0297 
     41 CB         22.7358  -29.5764  -44.3534 C.3       6 UNK        -0.2006 
     42 C          24.4128  -30.2997  -42.6061 C.2       6 UNK         0.4892 
     43 O          24.5457  -31.4570  -43.0040 O.2       6 UNK        -0.5089 
     44 N          24.5140  -29.9421  -41.3136 N.am      7 UNK        -0.4243 
     45 CA         24.6655  -30.8308  -40.1523 C.3       7 UNK         0.0196 
     46 CB         26.0767  -31.4544  -40.1282 C.3       7 UNK        -0.2007 
     47 C          23.5424  -31.8860  -40.0668 C.2       7 UNK         0.5020 
     48 O          23.8019  -33.0380  -39.7134 O.2       7 UNK        -0.5147 
     49 N          22.3241  -31.4858  -40.4663 N.am      8 UNK        -0.4734 
     50 CA         21.1285  -32.3178  -40.6605 C.3       8 UNK         0.0238 
     51 CB         20.5693  -32.7842  -39.3006 C.3       8 UNK        -0.1912 
     52 C          21.3242  -33.4852  -41.6521 C.2       8 UNK         0.5038 
     53 O          20.5965  -34.4765  -41.5723 O.2       8 UNK        -0.5046 
     54 N          22.3044  -33.3502  -42.5564 N.am      9 UNK        -0.4200 
     55 CA         22.7707  -34.3699  -43.5070 C.3       9 UNK         0.0839 
     56 C          23.4897  -35.5798  -42.8362 C.2       9 UNK         0.5513 
     57 N          23.9368  -35.4799  -41.5886 N.am      9 UNK        -0.7519 
     58 O          23.6738  -36.6201  -43.4635 O.2       9 UNK        -0.4960 
     59 C59        21.6937  -34.7971  -44.5451 C.3       10 UNK        -0.0876 
     60 S60        20.9628  -33.3698  -45.4239 S.3       10 UNK        -0.2414 
     61 C61        19.2185  -33.4304  -44.8909 C.3       10 UNK         0.0169 
     62 H62        17.7600  -22.1614  -45.5738 H         1 UNK         0.0903 
     63 H63        17.8035  -22.3859  -47.3331 H         1 UNK         0.0903 
     64 H64        16.3362  -21.8187  -46.5453 H         1 UNK         0.0903 
     65 H65        17.2433  -25.8505  -45.9329 H         1 UNK         0.3096 
     66 H66        19.3980  -23.9716  -46.5074 H         1 UNK         0.1121 
     67 H67        20.8425  -25.8268  -46.4566 H         1 UNK         0.0849 
     68 H68        19.4197  -26.3903  -47.2681 H         1 UNK         0.0849 
     69 H69        17.4634  -27.9494  -45.7951 H         1 UNK         0.0865 
     70 H70        18.6336  -28.7916  -46.7907 H         1 UNK         0.0865 
     71 H71        19.2197  -31.0644  -46.2578 H         1 UNK         0.1346 
     72 H72        18.0917  -32.7784  -42.4915 H         1 UNK         0.1412 
     73 H73        17.2465  -28.6567  -43.3082 H         1 UNK         0.1426 
     74 H74        16.1688  -29.8473  -41.3760 H         1 UNK         0.0716 
     75 H75        16.5858  -31.5038  -41.0368 H         1 UNK         0.0716 
     76 H76        18.3887  -27.7438  -39.3984 H         1 UNK         0.0695 
     77 H77        17.3544  -27.8937  -40.7829 H         1 UNK         0.0695 
     78 H78        19.4939  -28.4018  -42.1692 H         1 UNK         0.0983 
     79 H79        19.1516  -26.3864  -42.8916 H         1 UNK         0.3095 
     80 H80        17.5199  -23.8292  -41.7441 H         1 UNK         0.0454 
     81 H81        19.0524  -21.9124  -42.3201 H         1 UNK         0.0851 
     82 H82        20.4352  -22.9152  -41.8765 H         1 UNK         0.0851 
     83 H83        19.2364  -22.4875  -40.6727 H         1 UNK         0.0851 
     84 H84        17.5288  -24.5108  -43.8365 H         1 UNK         0.2976 
     85 H85        20.5131  -26.2417  -39.5299 H         1 UNK         0.3116 
     86 H86        22.6238  -27.8593  -38.5300 H         1 UNK         0.0646 
     87 H87        21.6389  -25.9837  -37.2435 H         1 UNK         0.0847 
     88 H88        23.3685  -25.7397  -37.4177 H         1 UNK         0.0847 
     89 H89        22.2518  -24.8151  -38.4131 H         1 UNK         0.0847 
     90 H90        22.5817  -25.4965  -41.1763 H         1 UNK         0.3040 
     91 H91        25.4053  -25.3572  -41.6246 H         1 UNK         0.1015 
     92 H92        23.0735  -24.8602  -43.5551 H         1 UNK         0.0786 
     93 H93        24.7308  -24.3260  -43.7851 H         1 UNK         0.0786 
     94 H94        23.7748  -23.6554  -42.4737 H         1 UNK         0.0786 
     95 H95        23.0097  -27.7571  -42.4950 H         1 UNK         0.3172 
     96 H96        24.8447  -29.1708  -44.3689 H         1 UNK         0.0595 
     97 H97        21.8923  -29.6486  -43.6650 H         1 UNK         0.0839 
     98 H98        22.8206  -30.5387  -44.8606 H         1 UNK         0.0839 
     99 H99        22.4840  -28.8366  -45.1131 H         1 UNK         0.0839 
    100 H100       24.3984  -28.9622  -41.0865 H         1 UNK         0.2998 
    101 H101       24.5620  -30.2016  -39.2670 H         1 UNK         0.0822 
    102 H102       26.2396  -32.0185  -39.2091 H         1 UNK         0.0787 
    103 H103       26.2302  -32.1403  -40.9622 H         1 UNK         0.0787 
    104 H104       26.8493  -30.6872  -40.1777 H         1 UNK         0.0787 
    105 H105       22.2090  -30.5077  -40.7310 H         1 UNK         0.3055 
    106 H106       20.3877  -31.6682  -41.1266 H         1 UNK         0.1106 
    107 H107       20.4199  -31.9421  -38.6250 H         1 UNK         0.0828 
    108 H108       19.6017  -33.2727  -39.4220 H         1 UNK         0.0828 
    109 H109       21.2361  -33.4951  -38.8120 H         1 UNK         0.0828 
    110 H110       22.8803  -32.5164  -42.5279 H         1 UNK         0.2931 
    111 H111       23.5611  -33.8728  -44.0702 H         1 UNK         0.0412 
    112 H112       24.4088  -36.2660  -41.1708 H         1 UNK         0.3472 
    113 H113       23.8101  -34.6270  -41.0550 H         1 UNK         0.3472 
    114 H114       20.9210  -35.4016  -44.0695 H         1 UNK         0.0970 
    115 H115       22.1421  -35.4424  -45.3024 H         1 UNK         0.0970 
    116 H116       19.0898  -34.1641  -44.0948 H         1 UNK         0.0612 
    117 H117       18.6105  -33.7794  -45.7263 H         1 UNK         0.0612 
@<TRIPOS>BOND
     1    1    2 1    
     2    1   62 1    
     3    1   63 1    
     4    1   64 1    
     5    2    3 2    
     6    2    4 am   BACKBONE|DICT|INTERRES
     7    4    5 1    
     8    4   65 1    
     9    5    6 1    
    10    5   25 1    
    11    5   66 1    
    12    6    7 1    
    13    6   67 1    
    14    6   68 1    
    15    7    8 1    
    16    8    9 1    
    17    8   69 1    
    18    8   70 1    
    19    9   10 ar   
    20    9   14 ar   
    21   10   11 ar   
    22   10   71 1    
    23   11   12 ar   
    24   11   61 1    
    25   12   13 ar   
    26   12   72 1    
    27   13   14 ar   
    28   13   15 1    
    29   14   73 1    
    30   15   16 1    
    31   15   74 1    
    32   15   75 1    
    33   16   17 1    
    34   17   18 1    
    35   17   76 1    
    36   17   77 1    
    37   18   19 1    
    38   18   27 1    
    39   18   78 1    
    40   19   20 am   BACKBONE|DICT|INTERRES
    41   19   79 1    
    42   20   21 2    
    43   20   22 1    
    44   22   23 1    
    45   22   24 1    
    46   22   80 1    
    47   23   81 1    
    48   23   82 1    
    49   23   83 1    
    50   24   25 am   BACKBONE|DICT|INTERRES
    51   24   84 1    
    52   25   26 2    
    53   27   28 2    
    54   27   29 am   BACKBONE|DICT|INTERRES
    55   29   30 1    
    56   29   85 1    
    57   30   31 1    
    58   30   32 1    
    59   30   86 1    
    60   31   87 1    
    61   31   88 1    
    62   31   89 1    
    63   32   33 2    
    64   32   34 am   BACKBONE|DICT|INTERRES
    65   34   35 1    
    66   34   90 1    
    67   35   36 1    
    68   35   37 1    
    69   35   91 1    
    70   36   92 1    
    71   36   93 1    
    72   36   94 1    
    73   37   38 2    
    74   37   39 am   BACKBONE|DICT|INTERRES
    75   39   40 1    
    76   39   95 1    
    77   40   41 1    
    78   40   42 1    
    79   40   96 1    
    80   41   97 1    
    81   41   98 1    
    82   41   99 1    
    83   42   43 2    
    84   42   44 am   BACKBONE|DICT|INTERRES
    85   44   45 1    
    86   44  100 1    
    87   45   46 1    
    88   45   47 1    
    89   45  101 1    
    90   46  102 1    
    91   46  103 1    
    92   46  104 1    
    93   47   48 2    
    94   47   49 am   BACKBONE|DICT|INTERRES
    95   49   50 1    
    96   49  105 1    
    97   50   51 1    
    98   50   52 1    
    99   50  106 1    
   100   51  107 1    
   101   51  108 1    
   102   51  109 1    
   103   52   53 2    
   104   52   54 am   BACKBONE|DICT|INTERRES
   105   54   55 1    
   106   54  110 1    
   107   55   56 1    
   108   55   59 1    
   109   55  111 1    
   110   56   57 am   BACKBONE|DICT|INTERRES
   111   56   58 2    
   112   57  112 1    
   113   57  113 1    
   114   59   60 1    
   115   59  114 1    
   116   59  115 1    
   117   60   61 1    
   118   61  116 1    
   119   61  117 1    
@<TRIPOS>SUBSTRUCTURE
     1 UNK         1 GROUP             0       ****    0 ROOT    
