@<TRIPOS>MOLECULE
3R8
117   119    1
SMALL
USER_CHARGES


@<TRIPOS>ATOM
      1 CA         12.2394  -24.7061  -42.2862 C.3       0 UNK        -0.2013 
      2 C          13.1953  -25.1847  -43.3688 C.2       0 UNK         0.4866 
      3 O          12.9032  -25.0332  -44.5553 O.2       0 UNK        -0.5176 
      4 N          14.3343  -25.7590  -42.9715 N.am      1 UNK        -0.4884 
      5 CA         15.3913  -26.2514  -43.8517 C.3       1 UNK         0.0853 
      6 C6         15.0610  -27.6601  -44.4094 C.3       10 UNK        -0.0849 
      7 S7         16.1439  -28.1729  -45.7890 S.3       10 UNK        -0.2776 
      8 C8         16.6640  -29.8403  -45.2673 C.3       10 UNK         0.0316 
      9 C9         17.8790  -29.8136  -44.3486 C.ar      10 UNK        -0.0863 
     10 C10        17.7236  -29.6253  -42.9726 C.ar      10 UNK        -0.1009 
     11 C11        18.8320  -29.6295  -42.1219 C.ar      10 UNK        -0.0712 
     12 C12        20.1077  -29.8393  -42.6571 C.ar      10 UNK        -0.0894 
     13 C13        20.2738  -30.0717  -44.0265 C.ar      10 UNK        -0.0745 
     14 C14        19.1583  -30.0338  -44.8691 C.ar      10 UNK        -0.0972 
     15 C15        21.6368  -30.4627  -44.5827 C.3       10 UNK         0.0209 
     16 S16        22.9273  -29.2213  -44.2798 S.3       10 UNK        -0.2568 
     17 C17        22.5728  -27.9959  -45.5888 C.3       10 UNK        -0.0983 
     18 CA         22.5105  -26.5320  -45.0771 C.3       3 UNK         0.0876 
     19 N          21.4319  -26.3284  -44.1154 N.am      3 UNK        -0.4424 
     20 C          20.1471  -26.1561  -44.4276 C.2       2 UNK         0.4918 
     21 O          19.7190  -26.1284  -45.5856 O.2       2 UNK        -0.4875 
     22 CA         19.1840  -25.9521  -43.2506 C.3       2 UNK         0.0481 
     23 CB         19.4285  -24.5993  -42.5528 C.3       2 UNK        -0.1831 
     24 N          17.8210  -26.0186  -43.7652 N.am      2 UNK        -0.4498 
     25 C          16.7066  -26.2060  -43.0545 C.2       1 UNK         0.5027 
     26 O          16.6808  -26.3312  -41.8261 O.2       1 UNK        -0.4969 
     27 C          23.8315  -26.0711  -44.4362 C.2       3 UNK         0.5005 
     28 O          23.8654  -25.8023  -43.2316 O.2       3 UNK        -0.5279 
     29 N          24.9082  -26.0365  -45.2345 N.am      4 UNK        -0.4463 
     30 CA         26.2666  -25.6919  -44.7954 C.3       4 UNK         0.0283 
     31 CB         27.1843  -25.5739  -46.0230 C.3       4 UNK        -0.1875 
     32 C          26.8657  -26.6759  -43.7713 C.2       4 UNK         0.4949 
     33 O          27.6998  -26.2663  -42.9640 O.2       4 UNK        -0.5039 
     34 N          26.4242  -27.9424  -43.8050 N.am      5 UNK        -0.4663 
     35 CA         26.7923  -28.9726  -42.8268 C.3       5 UNK         0.0242 
     36 CB         26.5526  -30.3633  -43.4368 C.3       5 UNK        -0.1982 
     37 C          26.0446  -28.8299  -41.4873 C.2       5 UNK         0.5017 
     38 O          26.4819  -29.4181  -40.4976 O.2       5 UNK        -0.5012 
     39 N          24.9432  -28.0630  -41.4795 N.am      6 UNK        -0.4439 
     40 CA         24.0713  -27.6804  -40.3625 C.3       6 UNK         0.0297 
     41 CB         24.8358  -26.8311  -39.3288 C.3       6 UNK        -0.2006 
     42 C          23.3143  -28.8314  -39.6776 C.2       6 UNK         0.4892 
     43 O          22.0994  -28.7303  -39.5196 O.2       6 UNK        -0.5089 
     44 N          24.0357  -29.8740  -39.2533 N.am      7 UNK        -0.4243 
     45 CA         23.5246  -30.9781  -38.4376 C.3       7 UNK         0.0196 
     46 CB         24.6229  -31.3969  -37.4456 C.3       7 UNK        -0.2007 
     47 C          23.0617  -32.1922  -39.2587 C.2       7 UNK         0.5020 
     48 O          22.4274  -33.0841  -38.6952 O.2       7 UNK        -0.5147 
     49 N          23.3767  -32.2337  -40.5601 N.am      8 UNK        -0.4734 
     50 CA         23.1113  -33.3614  -41.4666 C.3       8 UNK         0.0238 
     51 CB         24.1210  -33.3002  -42.6290 C.3       8 UNK        -0.1912 
     52 C          21.6481  -33.4435  -41.9605 C.2       8 UNK         0.5038 
     53 O          21.4148  -33.7845  -43.1214 O.2       8 UNK        -0.5046 
     54 N          20.6950  -33.1030  -41.0879 N.am      9 UNK        -0.4200 
     55 CA         19.2581  -32.9966  -41.3726 C.3       9 UNK         0.0839 
     56 C          18.5954  -34.3628  -41.6908 C.2       9 UNK         0.5513 
     57 N          17.5870  -34.3756  -42.5519 N.am      9 UNK        -0.7519 
     58 O          18.9528  -35.3979  -41.1317 O.2       9 UNK        -0.4960 
     59 C59        18.4932  -32.2599  -40.2358 C.3       10 UNK        -0.0876 
     60 S60        19.3429  -30.7642  -39.6130 S.3       10 UNK        -0.2414 
     61 C61        18.6366  -29.4218  -40.6251 C.3       10 UNK         0.0169 
     62 H62        11.2771  -25.2072  -42.3873 H         1 UNK         0.0903 
     63 H63        12.6226  -24.9072  -41.2859 H         1 UNK         0.0903 
     64 H64        12.0761  -23.6326  -42.3773 H         1 UNK         0.0903 
     65 H65        14.5667  -25.8289  -41.9871 H         1 UNK         0.3096 
     66 H66        15.4862  -25.5521  -44.6863 H         1 UNK         0.1121 
     67 H67        15.0654  -28.4013  -43.6103 H         1 UNK         0.0849 
     68 H68        14.0428  -27.6676  -44.8011 H         1 UNK         0.0849 
     69 H69        15.8344  -30.3587  -44.7842 H         1 UNK         0.0865 
     70 H70        16.8921  -30.4225  -46.1615 H         1 UNK         0.0865 
     71 H71        16.7375  -29.4776  -42.5574 H         1 UNK         0.1346 
     72 H72        20.9649  -29.8702  -41.9979 H         1 UNK         0.1412 
     73 H73        19.2802  -30.2130  -45.9286 H         1 UNK         0.1426 
     74 H74        21.5837  -30.6736  -45.6518 H         1 UNK         0.0716 
     75 H75        21.9448  -31.3935  -44.1107 H         1 UNK         0.0716 
     76 H76        23.3301  -28.1010  -46.3670 H         1 UNK         0.0695 
     77 H77        21.6278  -28.2473  -46.0727 H         1 UNK         0.0695 
     78 H78        22.3338  -25.8717  -45.9293 H         1 UNK         0.0983 
     79 H79        21.7451  -26.2781  -43.1546 H         1 UNK         0.3095 
     80 H80        19.3359  -26.7667  -42.5400 H         1 UNK         0.0454 
     81 H81        20.4450  -24.5310  -42.1640 H         1 UNK         0.0851 
     82 H82        19.2837  -23.7631  -43.2378 H         1 UNK         0.0851 
     83 H83        18.7559  -24.4580  -41.7070 H         1 UNK         0.0851 
     84 H84        17.7751  -26.0052  -44.7782 H         1 UNK         0.2976 
     85 H85        24.7990  -26.2755  -46.2102 H         1 UNK         0.3116 
     86 H86        26.2178  -24.7135  -44.3125 H         1 UNK         0.0646 
     87 H87        28.1956  -25.2900  -45.7277 H         1 UNK         0.0847 
     88 H88        26.8272  -24.8120  -46.7160 H         1 UNK         0.0847 
     89 H89        27.2577  -26.5169  -46.5662 H         1 UNK         0.0847 
     90 H90        25.7443  -28.1993  -44.5067 H         1 UNK         0.3040 
     91 H91        27.8587  -28.8796  -42.6080 H         1 UNK         0.1015 
     92 H92        27.1384  -30.5037  -44.3453 H         1 UNK         0.0786 
     93 H93        25.5044  -30.5227  -43.6864 H         1 UNK         0.0786 
     94 H94        26.8446  -31.1511  -42.7408 H         1 UNK         0.0786 
     95 H95        24.6914  -27.6239  -42.3572 H         1 UNK         0.3172 
     96 H96        23.3101  -27.0359  -40.8052 H         1 UNK         0.0595 
     97 H97        25.2776  -25.9494  -39.7933 H         1 UNK         0.0839 
     98 H98        25.6370  -27.3930  -38.8479 H         1 UNK         0.0839 
     99 H99        24.1671  -26.4813  -38.5411 H         1 UNK         0.0839 
    100 H100       25.0308  -29.8689  -39.4690 H         1 UNK         0.2998 
    101 H101       22.6622  -30.6337  -37.8622 H         1 UNK         0.0822 
    102 H102       24.9161  -30.5647  -36.8053 H         1 UNK         0.0787 
    103 H103       24.2775  -32.1997  -36.7924 H         1 UNK         0.0787 
    104 H104       25.5156  -31.7552  -37.9602 H         1 UNK         0.0787 
    105 H105       23.8601  -31.4389  -40.9519 H         1 UNK         0.3055 
    106 H106       23.2976  -34.2887  -40.9199 H         1 UNK         0.1106 
    107 H107       24.0228  -34.1677  -43.2831 H         1 UNK         0.0828 
    108 H108       23.9751  -32.4113  -43.2427 H         1 UNK         0.0828 
    109 H109       25.1482  -33.2919  -42.2641 H         1 UNK         0.0828 
    110 H110       20.9792  -32.8846  -40.1408 H         1 UNK         0.2931 
    111 H111       19.1735  -32.3926  -42.2763 H         1 UNK         0.0412 
    112 H112       17.2835  -33.5302  -43.0099 H         1 UNK         0.3472 
    113 H113       17.1303  -35.2501  -42.7603 H         1 UNK         0.3472 
    114 H114       17.4893  -31.9886  -40.5673 H         1 UNK         0.0970 
    115 H115       18.3570  -32.9263  -39.3818 H         1 UNK         0.0970 
    116 H116       17.5787  -29.3177  -40.3792 H         1 UNK         0.0612 
    117 H117       19.1127  -28.4829  -40.3391 H         1 UNK         0.0612 
@<TRIPOS>BOND
     1    1    2 1    
     2    1   62 1    
     3    1   63 1    
     4    1   64 1    
     5    2    3 2    
     6    2    4 am   BACKBONE|DICT|INTERRES
     7    4    5 1    
     8    4   65 1    
     9    5    6 1    
    10    5   25 1    
    11    5   66 1    
    12    6    7 1    
    13    6   67 1    
    14    6   68 1    
    15    7    8 1    
    16    8    9 1    
    17    8   69 1    
    18    8   70 1    
    19    9   10 ar   
    20    9   14 ar   
    21   10   11 ar   
    22   10   71 1    
    23   11   12 ar   
    24   11   61 1    
    25   12   13 ar   
    26   12   72 1    
    27   13   14 ar   
    28   13   15 1    
    29   14   73 1    
    30   15   16 1    
    31   15   74 1    
    32   15   75 1    
    33   16   17 1    
    34   17   18 1    
    35   17   76 1    
    36   17   77 1    
    37   18   19 1    
    38   18   27 1    
    39   18   78 1    
    40   19   20 am   BACKBONE|DICT|INTERRES
    41   19   79 1    
    42   20   21 2    
    43   20   22 1    
    44   22   23 1    
    45   22   24 1    
    46   22   80 1    
    47   23   81 1    
    48   23   82 1    
    49   23   83 1    
    50   24   25 am   BACKBONE|DICT|INTERRES
    51   24   84 1    
    52   25   26 2    
    53   27   28 2    
    54   27   29 am   BACKBONE|DICT|INTERRES
    55   29   30 1    
    56   29   85 1    
    57   30   31 1    
    58   30   32 1    
    59   30   86 1    
    60   31   87 1    
    61   31   88 1    
    62   31   89 1    
    63   32   33 2    
    64   32   34 am   BACKBONE|DICT|INTERRES
    65   34   35 1    
    66   34   90 1    
    67   35   36 1    
    68   35   37 1    
    69   35   91 1    
    70   36   92 1    
    71   36   93 1    
    72   36   94 1    
    73   37   38 2    
    74   37   39 am   BACKBONE|DICT|INTERRES
    75   39   40 1    
    76   39   95 1    
    77   40   41 1    
    78   40   42 1    
    79   40   96 1    
    80   41   97 1    
    81   41   98 1    
    82   41   99 1    
    83   42   43 2    
    84   42   44 am   BACKBONE|DICT|INTERRES
    85   44   45 1    
    86   44  100 1    
    87   45   46 1    
    88   45   47 1    
    89   45  101 1    
    90   46  102 1    
    91   46  103 1    
    92   46  104 1    
    93   47   48 2    
    94   47   49 am   BACKBONE|DICT|INTERRES
    95   49   50 1    
    96   49  105 1    
    97   50   51 1    
    98   50   52 1    
    99   50  106 1    
   100   51  107 1    
   101   51  108 1    
   102   51  109 1    
   103   52   53 2    
   104   52   54 am   BACKBONE|DICT|INTERRES
   105   54   55 1    
   106   54  110 1    
   107   55   56 1    
   108   55   59 1    
   109   55  111 1    
   110   56   57 am   BACKBONE|DICT|INTERRES
   111   56   58 2    
   112   57  112 1    
   113   57  113 1    
   114   59   60 1    
   115   59  114 1    
   116   59  115 1    
   117   60   61 1    
   118   61  116 1    
   119   61  117 1    
@<TRIPOS>SUBSTRUCTURE
     1 UNK         1 GROUP             0       ****    0 ROOT    
