@<TRIPOS>MOLECULE
3R8
117   119    1
SMALL
USER_CHARGES


@<TRIPOS>ATOM
      1 CA         14.5361  -21.8767  -46.1882 C.3       0 UNK        -0.2013 
      2 C          15.3309  -23.1340  -46.5071 C.2       0 UNK         0.4866 
      3 O          16.0322  -23.1747  -47.5180 O.2       0 UNK        -0.5176 
      4 N          15.2295  -24.1609  -45.6515 N.am      1 UNK        -0.4884 
      5 CA         15.9285  -25.4466  -45.8017 C.3       1 UNK         0.0853 
      6 C6         15.2152  -26.5680  -45.0008 C.3       10 UNK        -0.0849 
      7 S7         15.2617  -28.1708  -45.8685 S.3       10 UNK        -0.2776 
      8 C8         14.8346  -29.3202  -44.5243 C.3       10 UNK         0.0316 
      9 C9         16.0418  -29.6514  -43.6595 C.ar      10 UNK        -0.0863 
     10 C10        16.9465  -30.6336  -44.0719 C.ar      10 UNK        -0.1009 
     11 C11        18.0426  -30.9730  -43.2732 C.ar      10 UNK        -0.0712 
     12 C12        18.2343  -30.3150  -42.0540 C.ar      10 UNK        -0.0894 
     13 C13        17.3486  -29.3151  -41.6422 C.ar      10 UNK        -0.0745 
     14 C14        16.2473  -28.9964  -42.4423 C.ar      10 UNK        -0.0972 
     15 C15        17.5741  -28.5756  -40.3331 C.3       10 UNK         0.0209 
     16 S16        18.1575  -26.8766  -40.6248 S.3       10 UNK        -0.2568 
     17 C17        19.9182  -27.1289  -41.0405 C.3       10 UNK        -0.0983 
     18 CA         20.2053  -27.2285  -42.5676 C.3       3 UNK         0.0876 
     19 N          19.6209  -26.1467  -43.3696 N.am      3 UNK        -0.4424 
     20 C          19.8714  -24.8336  -43.2817 C.2       2 UNK         0.4918 
     21 O          20.6129  -24.3240  -42.4417 O.2       2 UNK        -0.4875 
     22 CA         19.1788  -23.9053  -44.2985 C.3       2 UNK         0.0481 
     23 CB         20.0898  -23.6593  -45.5172 C.3       2 UNK        -0.1831 
     24 N          17.8250  -24.3024  -44.7167 N.am      2 UNK        -0.4498 
     25 C          17.4322  -25.3577  -45.4485 C.2       1 UNK         0.5027 
     26 O          18.2006  -26.2405  -45.8320 O.2       1 UNK        -0.4969 
     27 C          21.7137  -27.3335  -42.8749 C.2       3 UNK         0.5005 
     28 O          22.5356  -26.8461  -42.0955 O.2       3 UNK        -0.5279 
     29 N          22.0384  -27.9026  -44.0465 N.am      4 UNK        -0.4463 
     30 CA         23.3800  -28.0011  -44.6360 C.3       4 UNK         0.0283 
     31 CB         23.2918  -28.8054  -45.9447 C.3       4 UNK        -0.1875 
     32 C          24.4312  -28.6040  -43.6846 C.2       4 UNK         0.4949 
     33 O          24.4827  -29.8227  -43.5234 O.2       4 UNK        -0.5039 
     34 N          25.2274  -27.7232  -43.0615 N.am      5 UNK        -0.4663 
     35 CA         26.2204  -28.0114  -42.0187 C.3       5 UNK         0.0242 
     36 CB         27.4071  -28.8174  -42.5899 C.3       5 UNK        -0.1982 
     37 C          25.6069  -28.6109  -40.7332 C.2       5 UNK         0.5017 
     38 O          26.2493  -29.4204  -40.0606 O.2       5 UNK        -0.5012 
     39 N          24.3831  -28.1701  -40.3997 N.am      6 UNK        -0.4439 
     40 CA         23.6067  -28.5032  -39.2027 C.3       6 UNK         0.0297 
     41 CB         24.2506  -27.8710  -37.9471 C.3       6 UNK        -0.2006 
     42 C          23.3482  -30.0163  -39.0927 C.2       6 UNK         0.4892 
     43 O          22.6674  -30.5698  -39.9566 O.2       6 UNK        -0.5089 
     44 N          23.8961  -30.6602  -38.0522 N.am      7 UNK        -0.4243 
     45 CA         23.7647  -32.0933  -37.7709 C.3       7 UNK         0.0196 
     46 CB         24.4389  -32.4078  -36.4260 C.3       7 UNK        -0.2007 
     47 C          24.3198  -33.0090  -38.8764 C.2       7 UNK         0.5020 
     48 O          23.8384  -34.1335  -39.0192 O.2       7 UNK        -0.5147 
     49 N          25.2840  -32.5131  -39.6667 N.am      8 UNK        -0.4734 
     50 CA         25.8445  -33.2166  -40.8257 C.3       8 UNK         0.0238 
     51 CB         27.1296  -32.5109  -41.2796 C.3       8 UNK        -0.1912 
     52 C          24.8549  -33.3743  -41.9978 C.2       8 UNK         0.5038 
     53 O          25.1133  -34.1916  -42.8828 O.2       8 UNK        -0.5046 
     54 N          23.7374  -32.6328  -41.9737 N.am      9 UNK        -0.4200 
     55 CA         22.5863  -32.8270  -42.8657 C.3       9 UNK         0.0839 
     56 C          21.8464  -34.1821  -42.6400 C.2       9 UNK         0.5513 
     57 N          21.9648  -34.8204  -41.4796 N.am      9 UNK        -0.7519 
     58 O          21.1694  -34.6751  -43.5377 O.2       9 UNK        -0.4960 
     59 C59        21.6160  -31.6176  -42.7774 C.3       10 UNK        -0.0876 
     60 S60        20.5982  -31.3883  -44.2747 S.3       10 UNK        -0.2414 
     61 C61        18.9997  -32.0654  -43.7255 C.3       10 UNK         0.0169 
     62 H62        13.9604  -21.9788  -45.2684 H         1 UNK         0.0903 
     63 H63        15.2083  -21.0266  -46.0748 H         1 UNK         0.0903 
     64 H64        13.8422  -21.6563  -46.9990 H         1 UNK         0.0903 
     65 H65        14.6318  -24.0728  -44.8408 H         1 UNK         0.3096 
     66 H66        15.8844  -25.7018  -46.8635 H         1 UNK         0.1121 
     67 H67        14.1595  -26.3278  -44.8630 H         1 UNK         0.0849 
     68 H68        15.6279  -26.6665  -43.9952 H         1 UNK         0.0849 
     69 H69        14.0260  -28.9035  -43.9215 H         1 UNK         0.0865 
     70 H70        14.4401  -30.2389  -44.9612 H         1 UNK         0.0865 
     71 H71        16.7904  -31.1392  -45.0153 H         1 UNK         0.1346 
     72 H72        19.0774  -30.5707  -41.4290 H         1 UNK         0.1412 
     73 H73        15.5554  -28.2318  -42.1161 H         1 UNK         0.1426 
     74 H74        18.2800  -29.1070  -39.6929 H         1 UNK         0.0716 
     75 H75        16.6345  -28.5334  -39.7803 H         1 UNK         0.0716 
     76 H76        20.2814  -28.0239  -40.5323 H         1 UNK         0.0695 
     77 H77        20.4673  -26.2953  -40.5993 H         1 UNK         0.0695 
     78 H78        19.7444  -28.1495  -42.9256 H         1 UNK         0.0983 
     79 H79        19.0328  -26.4388  -44.1448 H         1 UNK         0.3095 
     80 H80        19.0488  -22.9456  -43.7956 H         1 UNK         0.0454 
     81 H81        20.2926  -24.5776  -46.0689 H         1 UNK         0.0851 
     82 H82        21.0527  -23.2517  -45.2064 H         1 UNK         0.0851 
     83 H83        19.6437  -22.9442  -46.2084 H         1 UNK         0.0851 
     84 H84        17.0936  -23.6656  -44.4326 H         1 UNK         0.2976 
     85 H85        21.2900  -28.2799  -44.6102 H         1 UNK         0.3116 
     86 H86        23.6930  -26.9873  -44.8934 H         1 UNK         0.0646 
     87 H87        22.6323  -28.3239  -46.6668 H         1 UNK         0.0847 
     88 H88        24.2726  -28.8955  -46.4135 H         1 UNK         0.0847 
     89 H89        22.9212  -29.8169  -45.7726 H         1 UNK         0.0847 
     90 H90        25.0651  -26.7413  -43.2421 H         1 UNK         0.3040 
     91 H91        26.6185  -27.0443  -41.7073 H         1 UNK         0.1015 
     92 H92        27.0887  -29.7624  -43.0271 H         1 UNK         0.0786 
     93 H93        28.1467  -29.0410  -41.8200 H         1 UNK         0.0786 
     94 H94        27.9194  -28.2543  -43.3699 H         1 UNK         0.0786 
     95 H95        23.8935  -27.5766  -41.0691 H         1 UNK         0.3172 
     96 H96        22.6283  -28.0397  -39.3371 H         1 UNK         0.0595 
     97 H97        25.2571  -28.2471  -37.7599 H         1 UNK         0.0839 
     98 H98        23.6501  -28.0600  -37.0561 H         1 UNK         0.0839 
     99 H99        24.3232  -26.7886  -38.0533 H         1 UNK         0.0839 
    100 H100       24.4603  -30.1239  -37.4091 H         1 UNK         0.2998 
    101 H101       22.6984  -32.3109  -37.6798 H         1 UNK         0.0822 
    102 H102       24.3343  -33.4644  -36.1746 H         1 UNK         0.0787 
    103 H103       25.5059  -32.1821  -36.4471 H         1 UNK         0.0787 
    104 H104       23.9895  -31.8379  -35.6125 H         1 UNK         0.0787 
    105 H105       25.6024  -31.5631  -39.5120 H         1 UNK         0.3055 
    106 H106       26.1112  -34.2262  -40.5047 H         1 UNK         0.1106 
    107 H107       27.5947  -33.0378  -42.1138 H         1 UNK         0.0828 
    108 H108       26.9234  -31.4956  -41.6096 H         1 UNK         0.0828 
    109 H109       27.8641  -32.4611  -40.4758 H         1 UNK         0.0828 
    110 H110       23.6035  -31.9713  -41.2177 H         1 UNK         0.2931 
    111 H111       22.9913  -32.8541  -43.8794 H         1 UNK         0.0412 
    112 H112       21.4882  -35.6994  -41.3535 H         1 UNK         0.3472 
    113 H113       22.5450  -34.4535  -40.7357 H         1 UNK         0.3472 
    114 H114       20.9939  -31.6866  -41.8847 H         1 UNK         0.0970 
    115 H115       22.1836  -30.6946  -42.6566 H         1 UNK         0.0970 
    116 H116       18.5679  -32.6280  -44.5545 H         1 UNK         0.0612 
    117 H117       19.1419  -32.7866  -42.9200 H         1 UNK         0.0612 
@<TRIPOS>BOND
     1    1    2 1    
     2    1   62 1    
     3    1   63 1    
     4    1   64 1    
     5    2    3 2    
     6    2    4 am   BACKBONE|DICT|INTERRES
     7    4    5 1    
     8    4   65 1    
     9    5    6 1    
    10    5   25 1    
    11    5   66 1    
    12    6    7 1    
    13    6   67 1    
    14    6   68 1    
    15    7    8 1    
    16    8    9 1    
    17    8   69 1    
    18    8   70 1    
    19    9   10 ar   
    20    9   14 ar   
    21   10   11 ar   
    22   10   71 1    
    23   11   12 ar   
    24   11   61 1    
    25   12   13 ar   
    26   12   72 1    
    27   13   14 ar   
    28   13   15 1    
    29   14   73 1    
    30   15   16 1    
    31   15   74 1    
    32   15   75 1    
    33   16   17 1    
    34   17   18 1    
    35   17   76 1    
    36   17   77 1    
    37   18   19 1    
    38   18   27 1    
    39   18   78 1    
    40   19   20 am   BACKBONE|DICT|INTERRES
    41   19   79 1    
    42   20   21 2    
    43   20   22 1    
    44   22   23 1    
    45   22   24 1    
    46   22   80 1    
    47   23   81 1    
    48   23   82 1    
    49   23   83 1    
    50   24   25 am   BACKBONE|DICT|INTERRES
    51   24   84 1    
    52   25   26 2    
    53   27   28 2    
    54   27   29 am   BACKBONE|DICT|INTERRES
    55   29   30 1    
    56   29   85 1    
    57   30   31 1    
    58   30   32 1    
    59   30   86 1    
    60   31   87 1    
    61   31   88 1    
    62   31   89 1    
    63   32   33 2    
    64   32   34 am   BACKBONE|DICT|INTERRES
    65   34   35 1    
    66   34   90 1    
    67   35   36 1    
    68   35   37 1    
    69   35   91 1    
    70   36   92 1    
    71   36   93 1    
    72   36   94 1    
    73   37   38 2    
    74   37   39 am   BACKBONE|DICT|INTERRES
    75   39   40 1    
    76   39   95 1    
    77   40   41 1    
    78   40   42 1    
    79   40   96 1    
    80   41   97 1    
    81   41   98 1    
    82   41   99 1    
    83   42   43 2    
    84   42   44 am   BACKBONE|DICT|INTERRES
    85   44   45 1    
    86   44  100 1    
    87   45   46 1    
    88   45   47 1    
    89   45  101 1    
    90   46  102 1    
    91   46  103 1    
    92   46  104 1    
    93   47   48 2    
    94   47   49 am   BACKBONE|DICT|INTERRES
    95   49   50 1    
    96   49  105 1    
    97   50   51 1    
    98   50   52 1    
    99   50  106 1    
   100   51  107 1    
   101   51  108 1    
   102   51  109 1    
   103   52   53 2    
   104   52   54 am   BACKBONE|DICT|INTERRES
   105   54   55 1    
   106   54  110 1    
   107   55   56 1    
   108   55   59 1    
   109   55  111 1    
   110   56   57 am   BACKBONE|DICT|INTERRES
   111   56   58 2    
   112   57  112 1    
   113   57  113 1    
   114   59   60 1    
   115   59  114 1    
   116   59  115 1    
   117   60   61 1    
   118   61  116 1    
   119   61  117 1    
@<TRIPOS>SUBSTRUCTURE
     1 UNK         1 GROUP             0       ****    0 ROOT    
