@<TRIPOS>MOLECULE
3R8
117   119    1
SMALL
USER_CHARGES


@<TRIPOS>ATOM
      1 CA         17.3563  -22.3314  -41.9572 C.3       0 UNK        -0.2013 
      2 C          17.4065  -22.9796  -43.3327 C.2       0 UNK         0.4866 
      3 O          17.3737  -22.2751  -44.3425 O.2       0 UNK        -0.5176 
      4 N          17.4767  -24.3161  -43.3784 N.am      1 UNK        -0.4884 
      5 CA         17.6107  -25.1047  -44.6085 C.3       1 UNK         0.0853 
      6 C6         17.0762  -26.5484  -44.4062 C.3       10 UNK        -0.0849 
      7 S7         16.4428  -27.2600  -45.9621 S.3       10 UNK        -0.2776 
      8 C8         15.5008  -28.6942  -45.3537 C.3       10 UNK         0.0316 
      9 C9         16.4014  -29.8057  -44.8302 C.ar      10 UNK        -0.0863 
     10 C10        16.2655  -30.2662  -43.5157 C.ar      10 UNK        -0.1009 
     11 C11        17.0431  -31.3321  -43.0488 C.ar      10 UNK        -0.0712 
     12 C12        17.9678  -31.9268  -43.9122 C.ar      10 UNK        -0.0894 
     13 C13        18.1529  -31.4419  -45.2092 C.ar      10 UNK        -0.0745 
     14 C14        17.3494  -30.3973  -45.6717 C.ar      10 UNK        -0.0972 
     15 C15        19.2510  -32.0258  -46.0892 C.3       10 UNK         0.0209 
     16 S16        20.5971  -30.8342  -46.4207 S.3       10 UNK        -0.2568 
     17 C17        21.0376  -30.2313  -44.7507 C.3       10 UNK        -0.0983 
     18 CA         21.6961  -28.8239  -44.7551 C.3       3 UNK         0.0876 
     19 N          20.9651  -27.8519  -45.5722 N.am      3 UNK        -0.4424 
     20 C          21.5233  -26.7926  -46.1739 C.2       2 UNK         0.4918 
     21 O          22.7260  -26.5320  -46.1380 O.2       2 UNK        -0.4875 
     22 CA         20.5774  -25.8630  -46.9561 C.3       2 UNK         0.0481 
     23 CB         20.3825  -26.3801  -48.3902 C.3       2 UNK        -0.1831 
     24 N          19.2700  -25.6997  -46.3150 N.am      2 UNK        -0.4498 
     25 C          19.0637  -25.0876  -45.1412 C.2       1 UNK         0.5027 
     26 O          19.9648  -24.5504  -44.4921 O.2       1 UNK        -0.4969 
     27 C          21.8493  -28.2568  -43.3298 C.2       3 UNK         0.5005 
     28 O          22.9636  -27.9318  -42.9117 O.2       3 UNK        -0.5279 
     29 N          20.7057  -28.1245  -42.6348 N.am      4 UNK        -0.4463 
     30 CA         20.5201  -27.5489  -41.2968 C.3       4 UNK         0.0283 
     31 CB         20.6091  -26.0092  -41.3778 C.3       4 UNK        -0.1875 
     32 C          21.4490  -28.1574  -40.2264 C.2       4 UNK         0.4949 
     33 O          21.8782  -29.3041  -40.3621 O.2       4 UNK        -0.5039 
     34 N          21.7550  -27.3795  -39.1803 N.am      5 UNK        -0.4663 
     35 CA         22.6875  -27.7424  -38.1093 C.3       5 UNK         0.0242 
     36 CB         22.5074  -26.7638  -36.9374 C.3       5 UNK        -0.1982 
     37 C          24.1600  -27.7774  -38.5608 C.2       5 UNK         0.5017 
     38 O          24.9789  -28.3781  -37.8660 O.2       5 UNK        -0.5012 
     39 N          24.4700  -27.1447  -39.7033 N.am      6 UNK        -0.4439 
     40 CA         25.7960  -27.1274  -40.3237 C.3       6 UNK         0.0297 
     41 CB         25.8272  -26.0950  -41.4628 C.3       6 UNK        -0.2006 
     42 C          26.2161  -28.5189  -40.8223 C.2       6 UNK         0.4892 
     43 O          27.3052  -28.9798  -40.4783 O.2       6 UNK        -0.5089 
     44 N          25.3340  -29.1725  -41.5914 N.am      7 UNK        -0.4243 
     45 CA         25.5082  -30.5621  -42.0251 C.3       7 UNK         0.0196 
     46 CB         24.7500  -30.7742  -43.3433 C.3       7 UNK        -0.2007 
     47 C          25.0219  -31.5753  -40.9727 C.2       7 UNK         0.5020 
     48 O          25.3970  -32.7444  -41.0575 O.2       7 UNK        -0.5147 
     49 N          24.1842  -31.1163  -40.0294 N.am      8 UNK        -0.4734 
     50 CA         23.4021  -31.8965  -39.0614 C.3       8 UNK         0.0238 
     51 CB         24.3082  -32.6932  -38.0983 C.3       8 UNK        -0.1912 
     52 C          22.3466  -32.7580  -39.7796 C.2       8 UNK         0.5038 
     53 O          22.2226  -33.9524  -39.5004 O.2       8 UNK        -0.5046 
     54 N          21.6230  -32.1184  -40.7097 N.am      9 UNK        -0.4200 
     55 CA         20.6590  -32.7198  -41.6406 C.3       9 UNK         0.0839 
     56 C          21.3083  -33.8247  -42.5299 C.2       9 UNK         0.5513 
     57 N          20.6671  -34.9659  -42.7490 N.am      9 UNK        -0.7519 
     58 O          22.3830  -33.6182  -43.0874 O.2       9 UNK        -0.4960 
     59 C59        19.3195  -33.1013  -40.9417 C.3       10 UNK        -0.0876 
     60 S60        18.3169  -31.6200  -40.5622 S.3       10 UNK        -0.2414 
     61 C61        16.8515  -31.8592  -41.6288 C.3       10 UNK         0.0169 
     62 H62        16.4450  -21.7435  -41.8522 H         1 UNK         0.0903 
     63 H63        17.3773  -23.0700  -41.1562 H         1 UNK         0.0903 
     64 H64        18.2088  -21.6654  -41.8262 H         1 UNK         0.0903 
     65 H65        17.5234  -24.8364  -42.5146 H         1 UNK         0.3096 
     66 H66        16.9950  -24.6147  -45.3671 H         1 UNK         0.1121 
     67 H67        17.8309  -27.2081  -43.9736 H         1 UNK         0.0849 
     68 H68        16.2454  -26.5418  -43.6983 H         1 UNK         0.0849 
     69 H69        14.7927  -28.3657  -44.5912 H         1 UNK         0.0865 
     70 H70        14.9004  -29.0908  -46.1737 H         1 UNK         0.0865 
     71 H71        15.5350  -29.8102  -42.8613 H         1 UNK         0.1346 
     72 H72        18.5639  -32.7587  -43.5737 H         1 UNK         0.1412 
     73 H73        17.4754  -30.0323  -46.6822 H         1 UNK         0.1426 
     74 H74        18.8198  -32.3470  -47.0382 H         1 UNK         0.0716 
     75 H75        19.6818  -32.9175  -45.6306 H         1 UNK         0.0716 
     76 H76        20.1422  -30.2223  -44.1329 H         1 UNK         0.0695 
     77 H77        21.7044  -30.9651  -44.2979 H         1 UNK         0.0695 
     78 H78        22.7001  -28.9383  -45.1708 H         1 UNK         0.0983 
     79 H79        19.9744  -28.0052  -45.6818 H         1 UNK         0.3095 
     80 H80        21.0484  -24.8793  -47.0115 H         1 UNK         0.0454 
     81 H81        19.8939  -27.3553  -48.4075 H         1 UNK         0.0851 
     82 H82        19.7802  -25.6915  -48.9828 H         1 UNK         0.0851 
     83 H83        21.3416  -26.4883  -48.8987 H         1 UNK         0.0851 
     84 H84        18.4771  -26.1303  -46.7735 H         1 UNK         0.2976 
     85 H85        19.8615  -28.4716  -43.0648 H         1 UNK         0.3116 
     86 H86        19.5055  -27.8102  -40.9929 H         1 UNK         0.0646 
     87 H87        20.3282  -25.5300  -40.4397 H         1 UNK         0.0847 
     88 H88        19.9262  -25.6227  -42.1314 H         1 UNK         0.0847 
     89 H89        21.6129  -25.6736  -41.6413 H         1 UNK         0.0847 
     90 H90        21.3499  -26.4556  -39.1317 H         1 UNK         0.3040 
     91 H91        22.4325  -28.7454  -37.7600 H         1 UNK         0.1015 
     92 H92        21.4857  -26.7825  -36.5574 H         1 UNK         0.0786 
     93 H93        22.7410  -25.7384  -37.2267 H         1 UNK         0.0786 
     94 H94        23.1639  -27.0250  -36.1060 H         1 UNK         0.0786 
     95 H95        23.7229  -26.6947  -40.2115 H         1 UNK         0.3172 
     96 H96        26.5158  -26.8132  -39.5648 H         1 UNK         0.0595 
     97 H97        25.6174  -25.0910  -41.0937 H         1 UNK         0.0839 
     98 H98        25.0998  -26.3236  -42.2428 H         1 UNK         0.0839 
     99 H99        26.8105  -26.0660  -41.9342 H         1 UNK         0.0839 
    100 H100       24.4766  -28.7045  -41.8761 H         1 UNK         0.2998 
    101 H101       26.5679  -30.7534  -42.2086 H         1 UNK         0.0822 
    102 H102       25.0560  -30.0563  -44.1044 H         1 UNK         0.0787 
    103 H103       24.9305  -31.7735  -43.7418 H         1 UNK         0.0787 
    104 H104       23.6761  -30.6770  -43.1945 H         1 UNK         0.0787 
    105 H105       23.9103  -30.1446  -40.1024 H         1 UNK         0.3055 
    106 H106       22.8450  -31.1753  -38.4614 H         1 UNK         0.1106 
    107 H107       24.8451  -33.4939  -38.6071 H         1 UNK         0.0828 
    108 H108       25.0432  -32.0455  -37.6203 H         1 UNK         0.0828 
    109 H109       23.7183  -33.1552  -37.3059 H         1 UNK         0.0828 
    110 H110       21.7721  -31.1181  -40.8120 H         1 UNK         0.2931 
    111 H111       20.4352  -31.9242  -42.3504 H         1 UNK         0.0412 
    112 H112       19.7907  -35.1768  -42.3004 H         1 UNK         0.3472 
    113 H113       21.0979  -35.6543  -43.3466 H         1 UNK         0.3472 
    114 H114       18.7148  -33.7711  -41.5509 H         1 UNK         0.0970 
    115 H115       19.5086  -33.6470  -40.0161 H         1 UNK         0.0970 
    116 H116       16.5753  -32.9137  -41.6617 H         1 UNK         0.0612 
    117 H117       16.0119  -31.3499  -41.1534 H         1 UNK         0.0612 
@<TRIPOS>BOND
     1    1    2 1    
     2    1   62 1    
     3    1   63 1    
     4    1   64 1    
     5    2    3 2    
     6    2    4 am   BACKBONE|DICT|INTERRES
     7    4    5 1    
     8    4   65 1    
     9    5    6 1    
    10    5   25 1    
    11    5   66 1    
    12    6    7 1    
    13    6   67 1    
    14    6   68 1    
    15    7    8 1    
    16    8    9 1    
    17    8   69 1    
    18    8   70 1    
    19    9   10 ar   
    20    9   14 ar   
    21   10   11 ar   
    22   10   71 1    
    23   11   12 ar   
    24   11   61 1    
    25   12   13 ar   
    26   12   72 1    
    27   13   14 ar   
    28   13   15 1    
    29   14   73 1    
    30   15   16 1    
    31   15   74 1    
    32   15   75 1    
    33   16   17 1    
    34   17   18 1    
    35   17   76 1    
    36   17   77 1    
    37   18   19 1    
    38   18   27 1    
    39   18   78 1    
    40   19   20 am   BACKBONE|DICT|INTERRES
    41   19   79 1    
    42   20   21 2    
    43   20   22 1    
    44   22   23 1    
    45   22   24 1    
    46   22   80 1    
    47   23   81 1    
    48   23   82 1    
    49   23   83 1    
    50   24   25 am   BACKBONE|DICT|INTERRES
    51   24   84 1    
    52   25   26 2    
    53   27   28 2    
    54   27   29 am   BACKBONE|DICT|INTERRES
    55   29   30 1    
    56   29   85 1    
    57   30   31 1    
    58   30   32 1    
    59   30   86 1    
    60   31   87 1    
    61   31   88 1    
    62   31   89 1    
    63   32   33 2    
    64   32   34 am   BACKBONE|DICT|INTERRES
    65   34   35 1    
    66   34   90 1    
    67   35   36 1    
    68   35   37 1    
    69   35   91 1    
    70   36   92 1    
    71   36   93 1    
    72   36   94 1    
    73   37   38 2    
    74   37   39 am   BACKBONE|DICT|INTERRES
    75   39   40 1    
    76   39   95 1    
    77   40   41 1    
    78   40   42 1    
    79   40   96 1    
    80   41   97 1    
    81   41   98 1    
    82   41   99 1    
    83   42   43 2    
    84   42   44 am   BACKBONE|DICT|INTERRES
    85   44   45 1    
    86   44  100 1    
    87   45   46 1    
    88   45   47 1    
    89   45  101 1    
    90   46  102 1    
    91   46  103 1    
    92   46  104 1    
    93   47   48 2    
    94   47   49 am   BACKBONE|DICT|INTERRES
    95   49   50 1    
    96   49  105 1    
    97   50   51 1    
    98   50   52 1    
    99   50  106 1    
   100   51  107 1    
   101   51  108 1    
   102   51  109 1    
   103   52   53 2    
   104   52   54 am   BACKBONE|DICT|INTERRES
   105   54   55 1    
   106   54  110 1    
   107   55   56 1    
   108   55   59 1    
   109   55  111 1    
   110   56   57 am   BACKBONE|DICT|INTERRES
   111   56   58 2    
   112   57  112 1    
   113   57  113 1    
   114   59   60 1    
   115   59  114 1    
   116   59  115 1    
   117   60   61 1    
   118   61  116 1    
   119   61  117 1    
@<TRIPOS>SUBSTRUCTURE
     1 UNK         1 GROUP             0       ****    0 ROOT    
