@<TRIPOS>MOLECULE
3R8
117   119    1
SMALL
USER_CHARGES


@<TRIPOS>ATOM
      1 CA         15.8866  -27.5052  -39.2037 C.3       0 UNK        -0.2013 
      2 C          15.3902  -26.9510  -40.5309 C.2       0 UNK         0.4866 
      3 O          14.2597  -26.4678  -40.6084 O.2       0 UNK        -0.5176 
      4 N          16.2236  -27.0162  -41.5713 N.am      1 UNK        -0.4884 
      5 CA         15.9294  -26.5483  -42.9269 C.3       1 UNK         0.0853 
      6 C6         15.1797  -27.6143  -43.7856 C.3       10 UNK        -0.0849 
      7 S7         15.9877  -29.2554  -43.8093 S.3       10 UNK        -0.2776 
      8 C8         16.4570  -29.5112  -45.5614 C.3       10 UNK         0.0316 
      9 C9         17.8115  -30.2028  -45.7383 C.ar      10 UNK        -0.0863 
     10 C10        18.2933  -31.1237  -44.7985 C.ar      10 UNK        -0.1009 
     11 C11        19.5590  -31.6961  -44.9384 C.ar      10 UNK        -0.0712 
     12 C12        20.3366  -31.3788  -46.0536 C.ar      10 UNK        -0.0894 
     13 C13        19.8750  -30.4627  -47.0033 C.ar      10 UNK        -0.0745 
     14 C14        18.6057  -29.8941  -46.8506 C.ar      10 UNK        -0.0972 
     15 C15        20.7754  -30.0603  -48.1659 C.3       10 UNK         0.0209 
     16 S16        21.4517  -28.3691  -48.0001 S.3       10 UNK        -0.2568 
     17 C17        22.2266  -28.3886  -46.3399 C.3       10 UNK        -0.0983 
     18 CA         22.2511  -27.0024  -45.6265 C.3       3 UNK         0.0876 
     19 N          20.9873  -26.2529  -45.7316 N.am      3 UNK        -0.4424 
     20 C          19.7990  -26.6482  -45.2546 C.2       2 UNK         0.4918 
     21 O          19.6343  -27.6726  -44.5937 O.2       2 UNK        -0.4875 
     22 CA         18.6008  -25.7409  -45.5993 C.3       2 UNK         0.0481 
     23 CB         18.2868  -25.7968  -47.1050 C.3       2 UNK        -0.1831 
     24 N          17.3924  -26.1098  -44.8595 N.am      2 UNK        -0.4498 
     25 C          17.2197  -25.9650  -43.5396 C.2       1 UNK         0.5027 
     26 O          18.0188  -25.3635  -42.8155 O.2       1 UNK        -0.4969 
     27 C          22.7400  -27.1283  -44.1619 C.2       3 UNK         0.5005 
     28 O          23.4477  -28.0805  -43.8331 O.2       3 UNK        -0.5279 
     29 N          22.3601  -26.1673  -43.3043 N.am      4 UNK        -0.4463 
     30 CA         22.5027  -26.1894  -41.8411 C.3       4 UNK         0.0283 
     31 CB         21.7651  -24.9744  -41.2543 C.3       4 UNK        -0.1875 
     32 C          23.9402  -26.2789  -41.2893 C.2       4 UNK         0.4949 
     33 O          24.1067  -26.4796  -40.0860 O.2       4 UNK        -0.5039 
     34 N          24.9509  -26.1446  -42.1578 N.am      5 UNK        -0.4663 
     35 CA         26.3502  -26.4512  -41.8556 C.3       5 UNK         0.0242 
     36 CB         27.2424  -25.8851  -42.9721 C.3       5 UNK        -0.1982 
     37 C          26.6064  -27.9610  -41.6712 C.2       5 UNK         0.5017 
     38 O          27.5489  -28.3213  -40.9645 O.2       5 UNK        -0.5012 
     39 N          25.7802  -28.8125  -42.2981 N.am      6 UNK        -0.4439 
     40 CA         25.7977  -30.2638  -42.1209 C.3       6 UNK         0.0297 
     41 CB         25.1725  -30.9342  -43.3536 C.3       6 UNK        -0.2006 
     42 C          25.0462  -30.6600  -40.8397 C.2       6 UNK         0.4892 
     43 O          24.0700  -30.0036  -40.4658 O.2       6 UNK        -0.5089 
     44 N          25.5194  -31.7345  -40.1948 N.am      7 UNK        -0.4243 
     45 CA         24.9978  -32.2563  -38.9300 C.3       7 UNK         0.0196 
     46 CB         25.8694  -33.4350  -38.4663 C.3       7 UNK        -0.2007 
     47 C          23.5224  -32.6785  -39.0280 C.2       7 UNK         0.5020 
     48 O          23.1679  -33.4467  -39.9229 O.2       7 UNK        -0.5147 
     49 N          22.7082  -32.1645  -38.0962 N.am      8 UNK        -0.4734 
     50 CA         21.2632  -32.3834  -37.9257 C.3       8 UNK         0.0238 
     51 CB         20.9463  -33.8783  -37.7050 C.3       8 UNK        -0.1912 
     52 C          20.3618  -31.7645  -39.0149 C.2       8 UNK         0.5038 
     53 O          19.1405  -31.8758  -38.8934 O.2       8 UNK        -0.5046 
     54 N          20.9399  -31.1083  -40.0297 N.am      9 UNK        -0.4200 
     55 CA         20.1942  -30.4115  -41.0914 C.3       9 UNK         0.0839 
     56 C          19.6613  -29.0135  -40.6626 C.2       9 UNK         0.5513 
     57 N          20.1880  -28.3992  -39.6090 N.am      9 UNK        -0.7519 
     58 O          18.7351  -28.4888  -41.2727 O.2       9 UNK        -0.4960 
     59 C59        21.0036  -30.3216  -42.4090 C.3       10 UNK        -0.0876 
     60 S60        21.5746  -31.9475  -43.0247 S.3       10 UNK        -0.2414 
     61 C61        20.0990  -32.6225  -43.8584 C.3       10 UNK         0.0169 
     62 H62        15.2307  -28.3058  -38.8627 H         1 UNK         0.0903 
     63 H63        15.8913  -26.7213  -38.4470 H         1 UNK         0.0903 
     64 H64        16.8966  -27.9068  -39.2823 H         1 UNK         0.0903 
     65 H65        17.1524  -27.4230  -41.4618 H         1 UNK         0.3096 
     66 H66        15.2677  -25.6828  -42.8461 H         1 UNK         0.1121 
     67 H67        14.1883  -27.7644  -43.3553 H         1 UNK         0.0849 
     68 H68        14.9851  -27.2591  -44.7982 H         1 UNK         0.0849 
     69 H69        15.6872  -30.1104  -46.0488 H         1 UNK         0.0865 
     70 H70        16.4734  -28.5521  -46.0779 H         1 UNK         0.0865 
     71 H71        17.6993  -31.3742  -43.9313 H         1 UNK         0.1346 
     72 H72        21.3235  -31.8098  -46.1526 H         1 UNK         0.1412 
     73 H73        18.2564  -29.1806  -47.5832 H         1 UNK         0.1426 
     74 H74        20.2103  -30.1237  -49.0968 H         1 UNK         0.0716 
     75 H75        21.6064  -30.7601  -48.2672 H         1 UNK         0.0716 
     76 H76        21.7044  -29.1031  -45.7054 H         1 UNK         0.0695 
     77 H77        23.2411  -28.7760  -46.4479 H         1 UNK         0.0695 
     78 H78        22.9997  -26.3928  -46.1346 H         1 UNK         0.0983 
     79 H79        21.0324  -25.3988  -46.2691 H         1 UNK         0.3095 
     80 H80        18.8642  -24.7149  -45.3346 H         1 UNK         0.0454 
     81 H81        18.0308  -26.8061  -47.4269 H         1 UNK         0.0851 
     82 H82        17.4545  -25.1415  -47.3622 H         1 UNK         0.0851 
     83 H83        19.1405  -25.4760  -47.7029 H         1 UNK         0.0851 
     84 H84        16.7003  -26.6326  -45.3718 H         1 UNK         0.2976 
     85 H85        21.7950  -25.4187  -43.6781 H         1 UNK         0.3116 
     86 H86        21.9919  -27.0893  -41.4939 H         1 UNK         0.0646 
     87 H87        21.8062  -24.9785  -40.1641 H         1 UNK         0.0847 
     88 H88        20.7105  -24.9784  -41.5327 H         1 UNK         0.0847 
     89 H89        22.2024  -24.0348  -41.5935 H         1 UNK         0.0847 
     90 H90        24.7173  -25.9829  -43.1264 H         1 UNK         0.3040 
     91 H91        26.6150  -25.9572  -40.9179 H         1 UNK         0.1015 
     92 H92        27.1217  -24.8059  -43.0685 H         1 UNK         0.0786 
     93 H93        27.0166  -26.3377  -43.9385 H         1 UNK         0.0786 
     94 H94        28.2962  -26.0743  -42.7619 H         1 UNK         0.0786 
     95 H95        24.9839  -28.4395  -42.8124 H         1 UNK         0.3172 
     96 H96        26.8344  -30.5981  -42.0409 H         1 UNK         0.0595 
     97 H97        25.1585  -32.0197  -43.2481 H         1 UNK         0.0839 
     98 H98        25.7324  -30.7009  -44.2592 H         1 UNK         0.0839 
     99 H99        24.1435  -30.6101  -43.5073 H         1 UNK         0.0839 
    100 H100       26.2998  -32.2334  -40.5966 H         1 UNK         0.2998 
    101 H101       25.0885  -31.4567  -38.1916 H         1 UNK         0.0822 
    102 H102       25.8532  -34.2554  -39.1852 H         1 UNK         0.0787 
    103 H103       26.9070  -33.1321  -38.3240 H         1 UNK         0.0787 
    104 H104       25.5151  -33.8307  -37.5134 H         1 UNK         0.0787 
    105 H105       23.1171  -31.5268  -37.4258 H         1 UNK         0.3055 
    106 H106       20.9966  -31.8605  -37.0055 H         1 UNK         0.1106 
    107 H107       21.1119  -34.4677  -38.6071 H         1 UNK         0.0828 
    108 H108       21.5583  -34.3019  -36.9088 H         1 UNK         0.0828 
    109 H109       19.9034  -34.0186  -37.4180 H         1 UNK         0.0828 
    110 H110       21.9488  -31.0565  -40.0796 H         1 UNK         0.2931 
    111 H111       19.3071  -31.0069  -41.3164 H         1 UNK         0.0412 
    112 H112       20.9489  -28.8189  -39.0999 H         1 UNK         0.3472 
    113 H113       19.8291  -27.5002  -39.3315 H         1 UNK         0.3472 
    114 H114       20.4222  -29.8245  -43.1875 H         1 UNK         0.0970 
    115 H115       21.8863  -29.6970  -42.2605 H         1 UNK         0.0970 
    116 H116       20.3573  -33.5821  -44.3078 H         1 UNK         0.0612 
    117 H117       19.3372  -32.8309  -43.1057 H         1 UNK         0.0612 
@<TRIPOS>BOND
     1    1    2 1    
     2    1   62 1    
     3    1   63 1    
     4    1   64 1    
     5    2    3 2    
     6    2    4 am   BACKBONE|DICT|INTERRES
     7    4    5 1    
     8    4   65 1    
     9    5    6 1    
    10    5   25 1    
    11    5   66 1    
    12    6    7 1    
    13    6   67 1    
    14    6   68 1    
    15    7    8 1    
    16    8    9 1    
    17    8   69 1    
    18    8   70 1    
    19    9   10 ar   
    20    9   14 ar   
    21   10   11 ar   
    22   10   71 1    
    23   11   12 ar   
    24   11   61 1    
    25   12   13 ar   
    26   12   72 1    
    27   13   14 ar   
    28   13   15 1    
    29   14   73 1    
    30   15   16 1    
    31   15   74 1    
    32   15   75 1    
    33   16   17 1    
    34   17   18 1    
    35   17   76 1    
    36   17   77 1    
    37   18   19 1    
    38   18   27 1    
    39   18   78 1    
    40   19   20 am   BACKBONE|DICT|INTERRES
    41   19   79 1    
    42   20   21 2    
    43   20   22 1    
    44   22   23 1    
    45   22   24 1    
    46   22   80 1    
    47   23   81 1    
    48   23   82 1    
    49   23   83 1    
    50   24   25 am   BACKBONE|DICT|INTERRES
    51   24   84 1    
    52   25   26 2    
    53   27   28 2    
    54   27   29 am   BACKBONE|DICT|INTERRES
    55   29   30 1    
    56   29   85 1    
    57   30   31 1    
    58   30   32 1    
    59   30   86 1    
    60   31   87 1    
    61   31   88 1    
    62   31   89 1    
    63   32   33 2    
    64   32   34 am   BACKBONE|DICT|INTERRES
    65   34   35 1    
    66   34   90 1    
    67   35   36 1    
    68   35   37 1    
    69   35   91 1    
    70   36   92 1    
    71   36   93 1    
    72   36   94 1    
    73   37   38 2    
    74   37   39 am   BACKBONE|DICT|INTERRES
    75   39   40 1    
    76   39   95 1    
    77   40   41 1    
    78   40   42 1    
    79   40   96 1    
    80   41   97 1    
    81   41   98 1    
    82   41   99 1    
    83   42   43 2    
    84   42   44 am   BACKBONE|DICT|INTERRES
    85   44   45 1    
    86   44  100 1    
    87   45   46 1    
    88   45   47 1    
    89   45  101 1    
    90   46  102 1    
    91   46  103 1    
    92   46  104 1    
    93   47   48 2    
    94   47   49 am   BACKBONE|DICT|INTERRES
    95   49   50 1    
    96   49  105 1    
    97   50   51 1    
    98   50   52 1    
    99   50  106 1    
   100   51  107 1    
   101   51  108 1    
   102   51  109 1    
   103   52   53 2    
   104   52   54 am   BACKBONE|DICT|INTERRES
   105   54   55 1    
   106   54  110 1    
   107   55   56 1    
   108   55   59 1    
   109   55  111 1    
   110   56   57 am   BACKBONE|DICT|INTERRES
   111   56   58 2    
   112   57  112 1    
   113   57  113 1    
   114   59   60 1    
   115   59  114 1    
   116   59  115 1    
   117   60   61 1    
   118   61  116 1    
   119   61  117 1    
@<TRIPOS>SUBSTRUCTURE
     1 UNK         1 GROUP             0       ****    0 ROOT    
