@<TRIPOS>MOLECULE
3R8
117   119    1
SMALL
USER_CHARGES


@<TRIPOS>ATOM
      1 CA         20.0211  -28.5383  -42.3245 C.3       0 UNK        -0.2013 
      2 C          18.5811  -28.0591  -42.3492 C.2       0 UNK         0.4866 
      3 O          18.1476  -27.3972  -41.4068 O.2       0 UNK        -0.5176 
      4 N          17.8377  -28.3778  -43.4190 N.am      1 UNK        -0.4884 
      5 CA         16.4327  -27.9823  -43.6104 C.3       1 UNK         0.0853 
      6 C6         15.7937  -28.6597  -44.8465 C.3       10 UNK        -0.0849 
      7 S7         15.8017  -30.4802  -44.7338 S.3       10 UNK        -0.2776 
      8 C8         16.8145  -30.9431  -46.1757 C.3       10 UNK         0.0316 
      9 C9         18.3006  -30.7303  -45.9250 C.ar      10 UNK        -0.0863 
     10 C10        18.9983  -31.6207  -45.1052 C.ar      10 UNK        -0.1009 
     11 C11        20.3698  -31.4649  -44.8911 C.ar      10 UNK        -0.0712 
     12 C12        21.0477  -30.4081  -45.5075 C.ar      10 UNK        -0.0894 
     13 C13        20.3651  -29.5169  -46.3418 C.ar      10 UNK        -0.0745 
     14 C14        18.9893  -29.6814  -46.5431 C.ar      10 UNK        -0.0972 
     15 C15        21.1282  -28.4299  -47.0896 C.3       10 UNK         0.0209 
     16 S16        20.5176  -26.7545  -46.7288 S.3       10 UNK        -0.2568 
     17 C17        21.4950  -26.2959  -45.2583 C.3       10 UNK        -0.0983 
     18 CA         21.1483  -24.8641  -44.7715 C.3       3 UNK         0.0876 
     19 N          19.7505  -24.7692  -44.3526 N.am      3 UNK        -0.4424 
     20 C          18.7956  -24.0763  -44.9845 C.2       2 UNK         0.4918 
     21 O          19.0068  -23.3135  -45.9288 O.2       2 UNK        -0.4875 
     22 CA         17.3567  -24.3546  -44.5225 C.3       2 UNK         0.0481 
     23 CB         16.2902  -23.7700  -45.4721 C.3       2 UNK        -0.1831 
     24 N          17.2022  -25.8026  -44.3969 N.am      2 UNK        -0.4498 
     25 C          16.2636  -26.4509  -43.6994 C.2       1 UNK         0.5027 
     26 O          15.3214  -25.9008  -43.1274 O.2       1 UNK        -0.4969 
     27 C          22.0428  -24.4372  -43.5967 C.2       3 UNK         0.5005 
     28 O          21.6782  -24.6520  -42.4374 O.2       3 UNK        -0.5279 
     29 N          23.1972  -23.8368  -43.9188 N.am      4 UNK        -0.4463 
     30 CA         24.1622  -23.3004  -42.9509 C.3       4 UNK         0.0283 
     31 CB         25.0838  -22.2982  -43.6660 C.3       4 UNK        -0.1875 
     32 C          24.9993  -24.3764  -42.2347 C.2       4 UNK         0.4949 
     33 O          25.5808  -24.0829  -41.1895 O.2       4 UNK        -0.5039 
     34 N          25.0547  -25.5856  -42.8019 N.am      5 UNK        -0.4663 
     35 CA         25.7045  -26.7636  -42.2339 C.3       5 UNK         0.0242 
     36 CB         26.9049  -27.1501  -43.1141 C.3       5 UNK        -0.1982 
     37 C          24.6809  -27.9031  -42.1800 C.2       5 UNK         0.5017 
     38 O          23.7485  -27.9233  -42.9888 O.2       5 UNK        -0.5012 
     39 N          24.8814  -28.8337  -41.2424 N.am      6 UNK        -0.4439 
     40 CA         24.0153  -29.9833  -41.0120 C.3       6 UNK         0.0297 
     41 CB         22.8695  -29.5807  -40.0694 C.3       6 UNK        -0.2006 
     42 C          24.8367  -31.1149  -40.3907 C.2       6 UNK         0.4892 
     43 O          25.7237  -30.8412  -39.5784 O.2       6 UNK        -0.5089 
     44 N          24.5052  -32.3575  -40.7598 N.am      7 UNK        -0.4243 
     45 CA         25.1002  -33.5745  -40.1966 C.3       7 UNK         0.0196 
     46 CB         25.2301  -34.6252  -41.3121 C.3       7 UNK        -0.2007 
     47 C          24.2785  -34.1471  -39.0270 C.2       7 UNK         0.5020 
     48 O          24.8361  -34.8665  -38.1985 O.2       7 UNK        -0.5147 
     49 N          22.9780  -33.8301  -38.9904 N.am      8 UNK        -0.4734 
     50 CA         21.9669  -34.3005  -38.0317 C.3       8 UNK         0.0238 
     51 CB         21.8365  -35.8391  -38.0460 C.3       8 UNK        -0.1912 
     52 C          20.6009  -33.6691  -38.3461 C.2       8 UNK         0.5038 
     53 O          19.8037  -33.4584  -37.4317 O.2       8 UNK        -0.5046 
     54 N          20.3716  -33.3861  -39.6355 N.am      9 UNK        -0.4200 
     55 CA         19.2396  -32.6522  -40.2192 C.3       9 UNK         0.0839 
     56 C          18.9357  -31.2712  -39.5677 C.2       9 UNK         0.5513 
     57 N          17.7129  -30.7804  -39.7175 N.am      9 UNK        -0.7519 
     58 O          19.7909  -30.6288  -38.9643 O.2       9 UNK        -0.4960 
     59 C59        19.4164  -32.5291  -41.7607 C.3       10 UNK        -0.0876 
     60 S60        21.0897  -31.9832  -42.2701 S.3       10 UNK        -0.2414 
     61 C61        21.1253  -32.4587  -44.0226 C.3       10 UNK         0.0169 
     62 H62        20.6992  -27.6983  -42.1739 H         1 UNK         0.0903 
     63 H63        20.1601  -29.2386  -41.5030 H         1 UNK         0.0903 
     64 H64        20.3020  -29.0384  -43.2485 H         1 UNK         0.0903 
     65 H65        18.2294  -28.9645  -44.1448 H         1 UNK         0.3096 
     66 H66        15.8832  -28.3079  -42.7240 H         1 UNK         0.1121 
     67 H67        14.7525  -28.3482  -44.9528 H         1 UNK         0.0849 
     68 H68        16.2958  -28.3418  -45.7621 H         1 UNK         0.0849 
     69 H69        16.6401  -31.9966  -46.3995 H         1 UNK         0.0865 
     70 H70        16.4804  -30.3924  -47.0566 H         1 UNK         0.0865 
     71 H71        18.4717  -32.4431  -44.6405 H         1 UNK         0.1346 
     72 H72        22.1120  -30.2932  -45.3519 H         1 UNK         0.1412 
     73 H73        18.4632  -29.0037  -47.2020 H         1 UNK         0.1426 
     74 H74        21.0212  -28.6112  -48.1599 H         1 UNK         0.0716 
     75 H75        22.1978  -28.4803  -46.8796 H         1 UNK         0.0716 
     76 H76        22.5528  -26.3685  -45.5178 H         1 UNK         0.0695 
     77 H77        21.3193  -27.0329  -44.4734 H         1 UNK         0.0695 
     78 H78        21.3355  -24.1679  -45.5925 H         1 UNK         0.0983 
     79 H79        19.5183  -25.2792  -43.5120 H         1 UNK         0.3095 
     80 H80        17.2396  -23.8999  -43.5369 H         1 UNK         0.0454 
     81 H81        16.4046  -22.6899  -45.5709 H         1 UNK         0.0851 
     82 H82        15.2808  -23.9514  -45.1038 H         1 UNK         0.0851 
     83 H83        16.3647  -24.2003  -46.4713 H         1 UNK         0.0851 
     84 H84        17.9337  -26.3513  -44.8300 H         1 UNK         0.2976 
     85 H85        23.4240  -23.7061  -44.8950 H         1 UNK         0.3116 
     86 H86        23.6072  -22.7590  -42.1816 H         1 UNK         0.0646 
     87 H87        25.7917  -21.8510  -42.9666 H         1 UNK         0.0847 
     88 H88        24.5154  -21.4818  -44.1119 H         1 UNK         0.0847 
     89 H89        25.6659  -22.7754  -44.4555 H         1 UNK         0.0847 
     90 H90        24.4754  -25.7664  -43.6101 H         1 UNK         0.3040 
     91 H91        26.0510  -26.5605  -41.2178 H         1 UNK         0.1015 
     92 H92        27.4193  -28.0252  -42.7148 H         1 UNK         0.0786 
     93 H93        27.6340  -26.3410  -43.1642 H         1 UNK         0.0786 
     94 H94        26.5983  -27.3877  -44.1337 H         1 UNK         0.0786 
     95 H95        25.6973  -28.7937  -40.6436 H         1 UNK         0.3172 
     96 H96        23.6054  -30.3247  -41.9651 H         1 UNK         0.0595 
     97 H97        22.1975  -30.4203  -39.8969 H         1 UNK         0.0839 
     98 H98        22.2771  -28.7666  -40.4842 H         1 UNK         0.0839 
     99 H99        23.2410  -29.2570  -39.0964 H         1 UNK         0.0839 
    100 H100       23.7889  -32.4810  -41.4620 H         1 UNK         0.2998 
    101 H101       26.1022  -33.3571  -39.8194 H         1 UNK         0.0822 
    102 H102       25.8571  -34.2623  -42.1268 H         1 UNK         0.0787 
    103 H103       25.6894  -35.5401  -40.9349 H         1 UNK         0.0787 
    104 H104       24.2596  -34.8963  -41.7300 H         1 UNK         0.0787 
    105 H105       22.6548  -33.1406  -39.6524 H         1 UNK         0.3055 
    106 H106       22.2629  -33.9740  -37.0326 H         1 UNK         0.1106 
    107 H107       22.7354  -36.3277  -37.6716 H         1 UNK         0.0828 
    108 H108       21.0141  -36.1678  -37.4088 H         1 UNK         0.0828 
    109 H109       21.6423  -36.2181  -39.0499 H         1 UNK         0.0828 
    110 H110       21.0633  -33.6710  -40.3103 H         1 UNK         0.2931 
    111 H111       18.3614  -33.2741  -40.0355 H         1 UNK         0.0412 
    112 H112       16.9979  -31.2928  -40.2096 H         1 UNK         0.3472 
    113 H113       17.5002  -29.8774  -39.3230 H         1 UNK         0.3472 
    114 H114       19.2254  -33.5028  -42.2143 H         1 UNK         0.0970 
    115 H115       18.6741  -31.8556  -42.1937 H         1 UNK         0.0970 
    116 H116       22.1660  -32.5145  -44.3451 H         1 UNK         0.0612 
    117 H117       20.7168  -33.4628  -44.1455 H         1 UNK         0.0612 
@<TRIPOS>BOND
     1    1    2 1    
     2    1   62 1    
     3    1   63 1    
     4    1   64 1    
     5    2    3 2    
     6    2    4 am   BACKBONE|DICT|INTERRES
     7    4    5 1    
     8    4   65 1    
     9    5    6 1    
    10    5   25 1    
    11    5   66 1    
    12    6    7 1    
    13    6   67 1    
    14    6   68 1    
    15    7    8 1    
    16    8    9 1    
    17    8   69 1    
    18    8   70 1    
    19    9   10 ar   
    20    9   14 ar   
    21   10   11 ar   
    22   10   71 1    
    23   11   12 ar   
    24   11   61 1    
    25   12   13 ar   
    26   12   72 1    
    27   13   14 ar   
    28   13   15 1    
    29   14   73 1    
    30   15   16 1    
    31   15   74 1    
    32   15   75 1    
    33   16   17 1    
    34   17   18 1    
    35   17   76 1    
    36   17   77 1    
    37   18   19 1    
    38   18   27 1    
    39   18   78 1    
    40   19   20 am   BACKBONE|DICT|INTERRES
    41   19   79 1    
    42   20   21 2    
    43   20   22 1    
    44   22   23 1    
    45   22   24 1    
    46   22   80 1    
    47   23   81 1    
    48   23   82 1    
    49   23   83 1    
    50   24   25 am   BACKBONE|DICT|INTERRES
    51   24   84 1    
    52   25   26 2    
    53   27   28 2    
    54   27   29 am   BACKBONE|DICT|INTERRES
    55   29   30 1    
    56   29   85 1    
    57   30   31 1    
    58   30   32 1    
    59   30   86 1    
    60   31   87 1    
    61   31   88 1    
    62   31   89 1    
    63   32   33 2    
    64   32   34 am   BACKBONE|DICT|INTERRES
    65   34   35 1    
    66   34   90 1    
    67   35   36 1    
    68   35   37 1    
    69   35   91 1    
    70   36   92 1    
    71   36   93 1    
    72   36   94 1    
    73   37   38 2    
    74   37   39 am   BACKBONE|DICT|INTERRES
    75   39   40 1    
    76   39   95 1    
    77   40   41 1    
    78   40   42 1    
    79   40   96 1    
    80   41   97 1    
    81   41   98 1    
    82   41   99 1    
    83   42   43 2    
    84   42   44 am   BACKBONE|DICT|INTERRES
    85   44   45 1    
    86   44  100 1    
    87   45   46 1    
    88   45   47 1    
    89   45  101 1    
    90   46  102 1    
    91   46  103 1    
    92   46  104 1    
    93   47   48 2    
    94   47   49 am   BACKBONE|DICT|INTERRES
    95   49   50 1    
    96   49  105 1    
    97   50   51 1    
    98   50   52 1    
    99   50  106 1    
   100   51  107 1    
   101   51  108 1    
   102   51  109 1    
   103   52   53 2    
   104   52   54 am   BACKBONE|DICT|INTERRES
   105   54   55 1    
   106   54  110 1    
   107   55   56 1    
   108   55   59 1    
   109   55  111 1    
   110   56   57 am   BACKBONE|DICT|INTERRES
   111   56   58 2    
   112   57  112 1    
   113   57  113 1    
   114   59   60 1    
   115   59  114 1    
   116   59  115 1    
   117   60   61 1    
   118   61  116 1    
   119   61  117 1    
@<TRIPOS>SUBSTRUCTURE
     1 UNK         1 GROUP             0       ****    0 ROOT    
