@<TRIPOS>MOLECULE
3R8
117   119    1
SMALL
USER_CHARGES


@<TRIPOS>ATOM
      1 CA         15.7170  -23.2460  -46.7527 C.3       0 UNK        -0.2013 
      2 C          16.5913  -24.3523  -46.1826 C.2       0 UNK         0.4866 
      3 O          17.3750  -24.9522  -46.9159 O.2       0 UNK        -0.5176 
      4 N          16.4835  -24.6099  -44.8724 N.am      1 UNK        -0.4884 
      5 CA         17.1766  -25.6843  -44.1394 C.3       1 UNK         0.0853 
      6 C6         16.4061  -26.0692  -42.8494 C.3       10 UNK        -0.0849 
      7 S7         14.8367  -26.9085  -43.2823 S.3       10 UNK        -0.2776 
      8 C8         15.0767  -28.6502  -42.7690 C.3       10 UNK         0.0316 
      9 C9         16.4964  -29.1672  -42.9727 C.ar      10 UNK        -0.0863 
     10 C10        17.2813  -29.4832  -41.8614 C.ar      10 UNK        -0.1009 
     11 C11        18.6013  -29.9087  -42.0192 C.ar      10 UNK        -0.0712 
     12 C12        19.1457  -30.0001  -43.3049 C.ar      10 UNK        -0.0894 
     13 C13        18.3766  -29.6772  -44.4294 C.ar      10 UNK        -0.0745 
     14 C14        17.0392  -29.2965  -44.2547 C.ar      10 UNK        -0.0972 
     15 C15        18.9989  -29.7013  -45.8245 C.3       10 UNK         0.0209 
     16 S16        18.7887  -28.0932  -46.6573 S.3       10 UNK        -0.2568 
     17 C17        20.3044  -27.8695  -47.6572 C.3       10 UNK        -0.0983 
     18 CA         21.4097  -26.9875  -46.9974 C.3       3 UNK         0.0876 
     19 N          20.8544  -25.9268  -46.1443 N.am      3 UNK        -0.4424 
     20 C          21.5126  -25.0400  -45.3824 C.2       2 UNK         0.4918 
     21 O          22.7393  -24.9761  -45.3066 O.2       2 UNK        -0.4875 
     22 CA         20.6657  -24.0444  -44.5590 C.3       2 UNK         0.0481 
     23 CB         20.8296  -22.6191  -45.1110 C.3       2 UNK        -0.1831 
     24 N          19.2363  -24.3686  -44.5114 N.am      2 UNK        -0.4498 
     25 C          18.6826  -25.4207  -43.8909 C.2       1 UNK         0.5027 
     26 O          19.3308  -26.1965  -43.1887 O.2       1 UNK        -0.4969 
     27 C          22.4835  -27.8634  -46.3220 C.2       3 UNK         0.5005 
     28 O          23.5046  -28.1480  -46.9511 O.2       3 UNK        -0.5279 
     29 N          22.2438  -28.2739  -45.0710 N.am      4 UNK        -0.4463 
     30 CA         23.1383  -29.1399  -44.2995 C.3       4 UNK         0.0283 
     31 CB         23.0704  -30.5872  -44.8348 C.3       4 UNK        -0.1875 
     32 C          22.8109  -29.0351  -42.8037 C.2       4 UNK         0.4949 
     33 O          22.7840  -30.0568  -42.1134 O.2       4 UNK        -0.5039 
     34 N          22.5494  -27.8008  -42.3454 N.am      5 UNK        -0.4663 
     35 CA         21.9538  -27.4290  -41.0526 C.3       5 UNK         0.0242 
     36 CB         22.0070  -25.9006  -40.8967 C.3       5 UNK        -0.1982 
     37 C          22.5471  -28.0973  -39.8003 C.2       5 UNK         0.5017 
     38 O          21.7971  -28.4022  -38.8735 O.2       5 UNK        -0.5012 
     39 N          23.8670  -28.3105  -39.7991 N.am      6 UNK        -0.4439 
     40 CA         24.6080  -28.9891  -38.7331 C.3       6 UNK         0.0297 
     41 CB         25.3845  -27.9424  -37.9114 C.3       6 UNK        -0.2006 
     42 C          25.5238  -30.0888  -39.2997 C.2       6 UNK         0.4892 
     43 O          26.5091  -30.4458  -38.6514 O.2       6 UNK        -0.5089 
     44 N          25.2015  -30.5914  -40.4995 N.am      7 UNK        -0.4243 
     45 CA         25.9481  -31.6412  -41.1936 C.3       7 UNK         0.0196 
     46 CB         26.4697  -31.1055  -42.5376 C.3       7 UNK        -0.2007 
     47 C          25.0805  -32.8902  -41.3872 C.2       7 UNK         0.5020 
     48 O          25.5468  -33.9927  -41.0992 O.2       7 UNK        -0.5147 
     49 N          23.8356  -32.7078  -41.8501 N.am      8 UNK        -0.4734 
     50 CA         22.8544  -33.7883  -41.9807 C.3       8 UNK         0.0238 
     51 CB         21.8496  -33.4535  -43.0952 C.3       8 UNK        -0.1912 
     52 C          22.1212  -34.0322  -40.6560 C.2       8 UNK         0.5038 
     53 O          21.9154  -35.1862  -40.2780 O.2       8 UNK        -0.5046 
     54 N          21.7440  -32.9383  -39.9859 N.am      9 UNK        -0.4200 
     55 CA         21.0592  -32.9451  -38.6896 C.3       9 UNK         0.0839 
     56 C          22.0836  -32.9838  -37.5276 C.2       9 UNK         0.5513 
     57 N          21.7751  -33.6949  -36.4522 N.am      9 UNK        -0.7519 
     58 O          23.1327  -32.3446  -37.5758 O.2       9 UNK        -0.4960 
     59 C59        20.1029  -31.7350  -38.5441 C.3       10 UNK        -0.0876 
     60 S60        18.8544  -31.6645  -39.8768 S.3       10 UNK        -0.2414 
     61 C61        19.4461  -30.2088  -40.7906 C.3       10 UNK         0.0169 
     62 H62        15.0704  -23.6460  -47.5333 H         1 UNK         0.0903 
     63 H63        15.0855  -22.7902  -45.9903 H         1 UNK         0.0903 
     64 H64        16.3375  -22.4651  -47.1915 H         1 UNK         0.0903 
     65 H65        15.8273  -24.0730  -44.3224 H         1 UNK         0.3096 
     66 H66        17.1705  -26.5606  -44.7885 H         1 UNK         0.1121 
     67 H67        16.9977  -26.7084  -42.1939 H         1 UNK         0.0849 
     68 H68        16.1815  -25.1801  -42.2581 H         1 UNK         0.0849 
     69 H69        14.7856  -28.7401  -41.7212 H         1 UNK         0.0865 
     70 H70        14.3831  -29.2808  -43.3268 H         1 UNK         0.0865 
     71 H71        16.8725  -29.3855  -40.8648 H         1 UNK         0.1346 
     72 H72        20.1752  -30.3032  -43.4255 H         1 UNK         0.1412 
     73 H73        16.4361  -29.0426  -45.1160 H         1 UNK         0.1426 
     74 H74        18.5252  -30.4811  -46.4219 H         1 UNK         0.0716 
     75 H75        20.0586  -29.9502  -45.7707 H         1 UNK         0.0716 
     76 H76        20.6825  -28.8434  -47.9765 H         1 UNK         0.0695 
     77 H77        19.9832  -27.3808  -48.5782 H         1 UNK         0.0695 
     78 H78        21.9308  -26.4668  -47.8036 H         1 UNK         0.0983 
     79 H79        19.8441  -25.8852  -46.1394 H         1 UNK         0.3095 
     80 H80        21.0488  -24.0563  -43.5379 H         1 UNK         0.0454 
     81 H81        21.8792  -22.3219  -45.1237 H         1 UNK         0.0851 
     82 H82        20.4557  -22.5358  -46.1323 H         1 UNK         0.0851 
     83 H83        20.2984  -21.8913  -44.4974 H         1 UNK         0.0851 
     84 H84        18.6269  -23.8071  -45.0891 H         1 UNK         0.2976 
     85 H85        21.3844  -27.9868  -44.6191 H         1 UNK         0.3116 
     86 H86        24.1621  -28.7779  -44.4143 H         1 UNK         0.0646 
     87 H87        23.7264  -31.2542  -44.2784 H         1 UNK         0.0847 
     88 H88        23.3834  -30.6454  -45.8768 H         1 UNK         0.0847 
     89 H89        22.0610  -30.9910  -44.7718 H         1 UNK         0.0847 
     90 H90        22.6618  -27.0388  -42.9993 H         1 UNK         0.3040 
     91 H91        20.9028  -27.7184  -41.1025 H         1 UNK         0.1015 
     92 H92        21.4432  -25.4029  -41.6836 H         1 UNK         0.0786 
     93 H93        23.0307  -25.5254  -40.9253 H         1 UNK         0.0786 
     94 H94        21.5699  -25.5871  -39.9473 H         1 UNK         0.0786 
     95 H95        24.4002  -28.0165  -40.6061 H         1 UNK         0.3172 
     96 H96        23.9154  -29.5014  -38.0621 H         1 UNK         0.0595 
     97 H97        25.8989  -28.4050  -37.0681 H         1 UNK         0.0839 
     98 H98        24.7153  -27.1856  -37.5019 H         1 UNK         0.0839 
     99 H99        26.1367  -27.4340  -38.5157 H         1 UNK         0.0839 
    100 H100       24.3390  -30.2816  -40.9346 H         1 UNK         0.2998 
    101 H101       26.8147  -31.9482  -40.6039 H         1 UNK         0.0822 
    102 H102       27.1981  -30.3093  -42.3838 H         1 UNK         0.0787 
    103 H103       26.9661  -31.8920  -43.1078 H         1 UNK         0.0787 
    104 H104       25.6697  -30.7043  -43.1576 H         1 UNK         0.0787 
    105 H105       23.5088  -31.7669  -42.0520 H         1 UNK         0.3055 
    106 H106       23.3647  -34.7149  -42.2547 H         1 UNK         0.1106 
    107 H107       21.3304  -32.5132  -42.9063 H         1 UNK         0.0828 
    108 H108       22.3441  -33.3825  -44.0635 H         1 UNK         0.0828 
    109 H109       21.0898  -34.2316  -43.1811 H         1 UNK         0.0828 
    110 H110       21.9932  -32.0332  -40.3536 H         1 UNK         0.2931 
    111 H111       20.4472  -33.8480  -38.6300 H         1 UNK         0.0412 
    112 H112       20.9128  -34.2154  -36.4000 H         1 UNK         0.3472 
    113 H113       22.4222  -33.7199  -35.6793 H         1 UNK         0.3472 
    114 H114       19.5679  -31.7921  -37.5944 H         1 UNK         0.0970 
    115 H115       20.6666  -30.8009  -38.5113 H         1 UNK         0.0970 
    116 H116       19.4273  -29.3437  -40.1267 H         1 UNK         0.0612 
    117 H117       20.4859  -30.3700  -41.0686 H         1 UNK         0.0612 
@<TRIPOS>BOND
     1    1    2 1    
     2    1   62 1    
     3    1   63 1    
     4    1   64 1    
     5    2    3 2    
     6    2    4 am   BACKBONE|DICT|INTERRES
     7    4    5 1    
     8    4   65 1    
     9    5    6 1    
    10    5   25 1    
    11    5   66 1    
    12    6    7 1    
    13    6   67 1    
    14    6   68 1    
    15    7    8 1    
    16    8    9 1    
    17    8   69 1    
    18    8   70 1    
    19    9   10 ar   
    20    9   14 ar   
    21   10   11 ar   
    22   10   71 1    
    23   11   12 ar   
    24   11   61 1    
    25   12   13 ar   
    26   12   72 1    
    27   13   14 ar   
    28   13   15 1    
    29   14   73 1    
    30   15   16 1    
    31   15   74 1    
    32   15   75 1    
    33   16   17 1    
    34   17   18 1    
    35   17   76 1    
    36   17   77 1    
    37   18   19 1    
    38   18   27 1    
    39   18   78 1    
    40   19   20 am   BACKBONE|DICT|INTERRES
    41   19   79 1    
    42   20   21 2    
    43   20   22 1    
    44   22   23 1    
    45   22   24 1    
    46   22   80 1    
    47   23   81 1    
    48   23   82 1    
    49   23   83 1    
    50   24   25 am   BACKBONE|DICT|INTERRES
    51   24   84 1    
    52   25   26 2    
    53   27   28 2    
    54   27   29 am   BACKBONE|DICT|INTERRES
    55   29   30 1    
    56   29   85 1    
    57   30   31 1    
    58   30   32 1    
    59   30   86 1    
    60   31   87 1    
    61   31   88 1    
    62   31   89 1    
    63   32   33 2    
    64   32   34 am   BACKBONE|DICT|INTERRES
    65   34   35 1    
    66   34   90 1    
    67   35   36 1    
    68   35   37 1    
    69   35   91 1    
    70   36   92 1    
    71   36   93 1    
    72   36   94 1    
    73   37   38 2    
    74   37   39 am   BACKBONE|DICT|INTERRES
    75   39   40 1    
    76   39   95 1    
    77   40   41 1    
    78   40   42 1    
    79   40   96 1    
    80   41   97 1    
    81   41   98 1    
    82   41   99 1    
    83   42   43 2    
    84   42   44 am   BACKBONE|DICT|INTERRES
    85   44   45 1    
    86   44  100 1    
    87   45   46 1    
    88   45   47 1    
    89   45  101 1    
    90   46  102 1    
    91   46  103 1    
    92   46  104 1    
    93   47   48 2    
    94   47   49 am   BACKBONE|DICT|INTERRES
    95   49   50 1    
    96   49  105 1    
    97   50   51 1    
    98   50   52 1    
    99   50  106 1    
   100   51  107 1    
   101   51  108 1    
   102   51  109 1    
   103   52   53 2    
   104   52   54 am   BACKBONE|DICT|INTERRES
   105   54   55 1    
   106   54  110 1    
   107   55   56 1    
   108   55   59 1    
   109   55  111 1    
   110   56   57 am   BACKBONE|DICT|INTERRES
   111   56   58 2    
   112   57  112 1    
   113   57  113 1    
   114   59   60 1    
   115   59  114 1    
   116   59  115 1    
   117   60   61 1    
   118   61  116 1    
   119   61  117 1    
@<TRIPOS>SUBSTRUCTURE
     1 UNK         1 GROUP             0       ****    0 ROOT    
