@<TRIPOS>MOLECULE
3R8
117   119    1
SMALL
USER_CHARGES


@<TRIPOS>ATOM
      1 CA         18.2004  -23.0373  -48.4820 C.3       0 UNK        -0.2013 
      2 C          18.7337  -24.4168  -48.1252 C.2       0 UNK         0.4866 
      3 O          19.8491  -24.7628  -48.5167 O.2       0 UNK        -0.5176 
      4 N          17.9423  -25.2108  -47.3943 N.am      1 UNK        -0.4884 
      5 CA         18.3149  -26.5361  -46.8892 C.3       1 UNK         0.0853 
      6 C6         17.0704  -27.3893  -46.5343 C.3       10 UNK        -0.0849 
      7 S7         15.8504  -26.5530  -45.4591 S.3       10 UNK        -0.2776 
      8 C8         14.7621  -27.9429  -45.0102 C.3       10 UNK         0.0316 
      9 C9         15.4180  -28.8430  -43.9752 C.ar      10 UNK        -0.0863 
     10 C10        16.0695  -30.0157  -44.3651 C.ar      10 UNK        -0.1009 
     11 C11        16.7249  -30.8083  -43.4197 C.ar      10 UNK        -0.0712 
     12 C12        16.6809  -30.4518  -42.0692 C.ar      10 UNK        -0.0894 
     13 C13        16.0410  -29.2740  -41.6684 C.ar      10 UNK        -0.0745 
     14 C14        15.4040  -28.4798  -42.6264 C.ar      10 UNK        -0.0972 
     15 C15        16.0631  -28.8227  -40.2123 C.3       10 UNK         0.0209 
     16 S16        17.7304  -28.8184  -39.4650 S.3       10 UNK        -0.2568 
     17 C17        18.7740  -27.9906  -40.7220 C.3       10 UNK        -0.0983 
     18 CA         19.8444  -28.9575  -41.3146 C.3       3 UNK         0.0876 
     19 N          20.1779  -28.6527  -42.7109 N.am      3 UNK        -0.4424 
     20 C          20.8263  -27.5660  -43.1510 C.2       2 UNK         0.4918 
     21 O          21.1215  -26.6003  -42.4454 O.2       2 UNK        -0.4875 
     22 CA         21.2572  -27.5878  -44.6278 C.3       2 UNK         0.0481 
     23 CB         22.0979  -28.8380  -44.9563 C.3       2 UNK        -0.1831 
     24 N          20.1417  -27.4968  -45.5724 N.am      2 UNK        -0.4498 
     25 C          19.3264  -26.4427  -45.7231 C.2       1 UNK         0.5027 
     26 O          19.3653  -25.4321  -45.0160 O.2       1 UNK        -0.4969 
     27 C          21.1085  -29.0933  -40.4260 C.2       3 UNK         0.5005 
     28 O          22.2259  -29.2114  -40.9361 O.2       3 UNK        -0.5279 
     29 N          20.9133  -29.0598  -39.1003 N.am      4 UNK        -0.4463 
     30 CA         21.9660  -29.0926  -38.0786 C.3       4 UNK         0.0283 
     31 CB         21.3199  -29.1997  -36.6887 C.3       4 UNK        -0.1875 
     32 C          22.9216  -27.8865  -38.1353 C.2       4 UNK         0.4949 
     33 O          24.0670  -28.0013  -37.6994 O.2       4 UNK        -0.5039 
     34 N          22.4519  -26.7672  -38.7066 N.am      5 UNK        -0.4663 
     35 CA         23.2268  -25.5506  -38.9676 C.3       5 UNK         0.0242 
     36 CB         22.2773  -24.4532  -39.4743 C.3       5 UNK        -0.1982 
     37 C          24.3920  -25.7528  -39.9553 C.2       5 UNK         0.5017 
     38 O          25.3454  -24.9744  -39.9169 O.2       5 UNK        -0.5012 
     39 N          24.3125  -26.7952  -40.7927 N.am      6 UNK        -0.4439 
     40 CA         25.3785  -27.2454  -41.6852 C.3       6 UNK         0.0297 
     41 CB         25.0070  -26.9099  -43.1399 C.3       6 UNK        -0.2006 
     42 C          25.6574  -28.7390  -41.4436 C.2       6 UNK         0.4892 
     43 O          25.8323  -29.4979  -42.3974 O.2       6 UNK        -0.5089 
     44 N          25.6979  -29.1220  -40.1582 N.am      7 UNK        -0.4243 
     45 CA         25.9439  -30.4539  -39.5938 C.3       7 UNK         0.0196 
     46 CB         27.3021  -31.0355  -40.0362 C.3       7 UNK        -0.2007 
     47 C          24.7944  -31.4480  -39.8207 C.2       7 UNK         0.5020 
     48 O          24.2504  -31.9593  -38.8416 O.2       7 UNK        -0.5147 
     49 N          24.4444  -31.7110  -41.0829 N.am      8 UNK        -0.4734 
     50 CA         23.3662  -32.6079  -41.4952 C.3       8 UNK         0.0238 
     51 CB         23.7386  -34.0772  -41.2021 C.3       8 UNK        -0.1912 
     52 C          23.0871  -32.4278  -42.9910 C.2       8 UNK         0.5038 
     53 O          23.9693  -31.9878  -43.7323 O.2       8 UNK        -0.5046 
     54 N          21.8796  -32.8208  -43.4106 N.am      9 UNK        -0.4200 
     55 CA         21.4892  -32.9436  -44.8222 C.3       9 UNK         0.0839 
     56 C          22.1441  -34.1802  -45.4944 C.2       9 UNK         0.5513 
     57 N          22.4493  -34.0962  -46.7818 N.am      9 UNK        -0.7519 
     58 O          22.3375  -35.2234  -44.8730 O.2       9 UNK        -0.4960 
     59 C59        19.9484  -32.9812  -44.9854 C.3       10 UNK        -0.0876 
     60 S60        19.1800  -31.4287  -44.4248 S.3       10 UNK        -0.2414 
     61 C61        17.5458  -32.0016  -43.8735 C.3       10 UNK         0.0169 
     62 H62        18.8554  -22.2662  -48.0774 H         1 UNK         0.0903 
     63 H63        18.1610  -22.9181  -49.5644 H         1 UNK         0.0903 
     64 H64        17.1983  -22.8727  -48.0863 H         1 UNK         0.0903 
     65 H65        17.0498  -24.8687  -47.0654 H         1 UNK         0.3096 
     66 H66        18.8306  -27.0502  -47.7043 H         1 UNK         0.1121 
     67 H67        16.5558  -27.6693  -47.4549 H         1 UNK         0.0849 
     68 H68        17.3800  -28.3293  -46.0768 H         1 UNK         0.0849 
     69 H69        13.8278  -27.5465  -44.6095 H         1 UNK         0.0865 
     70 H70        14.4934  -28.5077  -45.9044 H         1 UNK         0.0865 
     71 H71        16.1074  -30.2905  -45.4104 H         1 UNK         0.1346 
     72 H72        17.1888  -31.0620  -41.3352 H         1 UNK         0.1412 
     73 H73        14.9167  -27.5610  -42.3290 H         1 UNK         0.1426 
     74 H74        15.4170  -29.4795  -39.6287 H         1 UNK         0.0716 
     75 H75        15.6478  -27.8183  -40.1155 H         1 UNK         0.0716 
     76 H76        19.2345  -27.1024  -40.2853 H         1 UNK         0.0695 
     77 H77        18.1313  -27.6092  -41.5165 H         1 UNK         0.0695 
     78 H78        19.4184  -29.9603  -41.3573 H         1 UNK         0.0983 
     79 H79        19.9860  -29.3946  -43.3704 H         1 UNK         0.3095 
     80 H80        21.8945  -26.7148  -44.7843 H         1 UNK         0.0454 
     81 H81        22.6760  -28.6941  -45.8690 H         1 UNK         0.0851 
     82 H82        22.8052  -29.0765  -44.1607 H         1 UNK         0.0851 
     83 H83        21.4780  -29.7214  -45.0966 H         1 UNK         0.0851 
     84 H84        20.0227  -28.2863  -46.1905 H         1 UNK         0.2976 
     85 H85        19.9591  -28.9715  -38.7715 H         1 UNK         0.3116 
     86 H86        22.5625  -29.9896  -38.2482 H         1 UNK         0.0646 
     87 H87        20.6884  -28.3382  -36.4680 H         1 UNK         0.0847 
     88 H88        22.0808  -29.2542  -35.9087 H         1 UNK         0.0847 
     89 H89        20.7076  -30.0975  -36.6029 H         1 UNK         0.0847 
     90 H90        21.4988  -26.7725  -39.0389 H         1 UNK         0.3040 
     91 H91        23.6608  -25.2234  -38.0202 H         1 UNK         0.1015 
     92 H92        21.7981  -24.7368  -40.4126 H         1 UNK         0.0786 
     93 H93        22.8166  -23.5218  -39.6529 H         1 UNK         0.0786 
     94 H94        21.4940  -24.2372  -38.7475 H         1 UNK         0.0786 
     95 H95        23.4937  -27.3946  -40.7503 H         1 UNK         0.3172 
     96 H96        26.3125  -26.7298  -41.4532 H         1 UNK         0.0595 
     97 H97        24.0603  -27.3646  -43.4210 H         1 UNK         0.0839 
     98 H98        25.7671  -27.2639  -43.8374 H         1 UNK         0.0839 
     99 H99        24.9121  -25.8335  -43.2827 H         1 UNK         0.0839 
    100 H100       25.4744  -28.4173  -39.4656 H         1 UNK         0.2998 
    101 H101       26.0028  -30.2953  -38.5154 H         1 UNK         0.0822 
    102 H102       28.1197  -30.3537  -39.8024 H         1 UNK         0.0787 
    103 H103       27.5057  -31.9750  -39.5208 H         1 UNK         0.0787 
    104 H104       27.3343  -31.2432  -41.1060 H         1 UNK         0.0787 
    105 H105       24.8989  -31.1979  -41.8366 H         1 UNK         0.3055 
    106 H106       22.4654  -32.3353  -40.9406 H         1 UNK         0.1106 
    107 H107       22.9656  -34.7600  -41.5572 H         1 UNK         0.0828 
    108 H108       24.6702  -34.3583  -41.6948 H         1 UNK         0.0828 
    109 H109       23.8565  -34.2617  -40.1347 H         1 UNK         0.0828 
    110 H110       21.2276  -33.2019  -42.7420 H         1 UNK         0.2931 
    111 H111       21.8583  -32.0587  -45.3444 H         1 UNK         0.0412 
    112 H112       22.2872  -33.2480  -47.3027 H         1 UNK         0.3472 
    113 H113       22.8613  -34.8939  -47.2410 H         1 UNK         0.3472 
    114 H114       19.5243  -33.8244  -44.4367 H         1 UNK         0.0970 
    115 H115       19.6730  -33.1266  -46.0318 H         1 UNK         0.0970 
    116 H116       17.6611  -32.7228  -43.0628 H         1 UNK         0.0612 
    117 H117       17.0408  -32.5185  -44.6911 H         1 UNK         0.0612 
@<TRIPOS>BOND
     1    1    2 1    
     2    1   62 1    
     3    1   63 1    
     4    1   64 1    
     5    2    3 2    
     6    2    4 am   BACKBONE|DICT|INTERRES
     7    4    5 1    
     8    4   65 1    
     9    5    6 1    
    10    5   25 1    
    11    5   66 1    
    12    6    7 1    
    13    6   67 1    
    14    6   68 1    
    15    7    8 1    
    16    8    9 1    
    17    8   69 1    
    18    8   70 1    
    19    9   10 ar   
    20    9   14 ar   
    21   10   11 ar   
    22   10   71 1    
    23   11   12 ar   
    24   11   61 1    
    25   12   13 ar   
    26   12   72 1    
    27   13   14 ar   
    28   13   15 1    
    29   14   73 1    
    30   15   16 1    
    31   15   74 1    
    32   15   75 1    
    33   16   17 1    
    34   17   18 1    
    35   17   76 1    
    36   17   77 1    
    37   18   19 1    
    38   18   27 1    
    39   18   78 1    
    40   19   20 am   BACKBONE|DICT|INTERRES
    41   19   79 1    
    42   20   21 2    
    43   20   22 1    
    44   22   23 1    
    45   22   24 1    
    46   22   80 1    
    47   23   81 1    
    48   23   82 1    
    49   23   83 1    
    50   24   25 am   BACKBONE|DICT|INTERRES
    51   24   84 1    
    52   25   26 2    
    53   27   28 2    
    54   27   29 am   BACKBONE|DICT|INTERRES
    55   29   30 1    
    56   29   85 1    
    57   30   31 1    
    58   30   32 1    
    59   30   86 1    
    60   31   87 1    
    61   31   88 1    
    62   31   89 1    
    63   32   33 2    
    64   32   34 am   BACKBONE|DICT|INTERRES
    65   34   35 1    
    66   34   90 1    
    67   35   36 1    
    68   35   37 1    
    69   35   91 1    
    70   36   92 1    
    71   36   93 1    
    72   36   94 1    
    73   37   38 2    
    74   37   39 am   BACKBONE|DICT|INTERRES
    75   39   40 1    
    76   39   95 1    
    77   40   41 1    
    78   40   42 1    
    79   40   96 1    
    80   41   97 1    
    81   41   98 1    
    82   41   99 1    
    83   42   43 2    
    84   42   44 am   BACKBONE|DICT|INTERRES
    85   44   45 1    
    86   44  100 1    
    87   45   46 1    
    88   45   47 1    
    89   45  101 1    
    90   46  102 1    
    91   46  103 1    
    92   46  104 1    
    93   47   48 2    
    94   47   49 am   BACKBONE|DICT|INTERRES
    95   49   50 1    
    96   49  105 1    
    97   50   51 1    
    98   50   52 1    
    99   50  106 1    
   100   51  107 1    
   101   51  108 1    
   102   51  109 1    
   103   52   53 2    
   104   52   54 am   BACKBONE|DICT|INTERRES
   105   54   55 1    
   106   54  110 1    
   107   55   56 1    
   108   55   59 1    
   109   55  111 1    
   110   56   57 am   BACKBONE|DICT|INTERRES
   111   56   58 2    
   112   57  112 1    
   113   57  113 1    
   114   59   60 1    
   115   59  114 1    
   116   59  115 1    
   117   60   61 1    
   118   61  116 1    
   119   61  117 1    
@<TRIPOS>SUBSTRUCTURE
     1 UNK         1 GROUP             0       ****    0 ROOT    
