@<TRIPOS>MOLECULE
3R8
117   119    1
SMALL
USER_CHARGES


@<TRIPOS>ATOM
      1 CA         18.8530  -20.9498  -45.3215 C.3       0 UNK        -0.2013 
      2 C          19.4459  -22.2060  -44.7011 C.2       0 UNK         0.4866 
      3 O          19.8821  -22.1714  -43.5508 O.2       0 UNK        -0.5176 
      4 N          19.4674  -23.3137  -45.4558 N.am      1 UNK        -0.4884 
      5 CA         19.9785  -24.6193  -45.0145 C.3       1 UNK         0.0853 
      6 C6         20.1769  -25.5820  -46.2186 C.3       10 UNK        -0.0849 
      7 S7         21.6535  -26.6312  -46.0376 S.3       10 UNK        -0.2776 
      8 C8         21.3254  -27.9461  -47.2596 C.3       10 UNK         0.0316 
      9 C9         20.7543  -29.1932  -46.6001 C.ar      10 UNK        -0.0863 
     10 C10        21.5628  -29.9437  -45.7445 C.ar      10 UNK        -0.1009 
     11 C11        21.0637  -31.0754  -45.0975 C.ar      10 UNK        -0.0712 
     12 C12        19.7512  -31.4859  -45.3456 C.ar      10 UNK        -0.0894 
     13 C13        18.9309  -30.7488  -46.2080 C.ar      10 UNK        -0.0745 
     14 C14        19.4381  -29.6037  -46.8353 C.ar      10 UNK        -0.0972 
     15 C15        17.4829  -31.1655  -46.4261 C.3       10 UNK         0.0209 
     16 S16        16.3156  -30.0248  -45.6126 S.3       10 UNK        -0.2568 
     17 C17        16.7316  -30.2327  -43.8449 C.3       10 UNK        -0.0983 
     18 CA         17.8042  -29.2183  -43.3621 C.3       3 UNK         0.0876 
     19 N          17.4619  -27.8199  -43.6266 N.am      3 UNK        -0.4424 
     20 C          16.5709  -27.0569  -42.9812 C.2       2 UNK         0.4918 
     21 O          15.7312  -27.4964  -42.1949 O.2       2 UNK        -0.4875 
     22 CA         16.6555  -25.5326  -43.2207 C.3       2 UNK         0.0481 
     23 CB         16.7118  -24.7691  -41.8814 C.3       2 UNK        -0.1831 
     24 N          17.7541  -25.0846  -44.0960 N.am      2 UNK        -0.4498 
     25 C          19.0789  -25.2527  -43.9322 C.2       1 UNK         0.5027 
     26 O          19.5807  -25.8937  -43.0053 O.2       1 UNK        -0.4969 
     27 C          18.2458  -29.4195  -41.8956 C.2       3 UNK         0.5005 
     28 O          17.8217  -30.3784  -41.2475 O.2       3 UNK        -0.5279 
     29 N          19.0670  -28.4834  -41.3946 N.am      4 UNK        -0.4463 
     30 CA         19.5549  -28.4589  -40.0156 C.3       4 UNK         0.0283 
     31 CB         18.4676  -27.9051  -39.0758 C.3       4 UNK        -0.1875 
     32 C          20.8565  -27.6611  -39.8565 C.2       4 UNK         0.4949 
     33 O          21.6651  -28.0136  -38.9985 O.2       4 UNK        -0.5039 
     34 N          21.0609  -26.6059  -40.6589 N.am      5 UNK        -0.4663 
     35 CA         22.2356  -25.7303  -40.5923 C.3       5 UNK         0.0242 
     36 CB         21.8083  -24.2952  -40.9562 C.3       5 UNK        -0.1982 
     37 C          23.3805  -26.2536  -41.4803 C.2       5 UNK         0.5017 
     38 O          23.9314  -25.4996  -42.2849 O.2       5 UNK        -0.5012 
     39 N          23.7144  -27.5387  -41.3261 N.am      6 UNK        -0.4439 
     40 CA         24.7393  -28.2583  -42.0755 C.3       6 UNK         0.0297 
     41 CB         24.2373  -28.5515  -43.5019 C.3       6 UNK        -0.2006 
     42 C          25.1012  -29.5473  -41.3246 C.2       6 UNK         0.4892 
     43 O          24.4390  -29.8989  -40.3439 O.2       6 UNK        -0.5089 
     44 N          26.1610  -30.2189  -41.7925 N.am      7 UNK        -0.4243 
     45 CA         26.6695  -31.4766  -41.2409 C.3       7 UNK         0.0196 
     46 CB         27.9835  -31.8402  -41.9516 C.3       7 UNK        -0.2007 
     47 C          25.6597  -32.6311  -41.3621 C.2       7 UNK         0.5020 
     48 O          24.8902  -32.6799  -42.3237 O.2       7 UNK        -0.5147 
     49 N          25.7058  -33.5475  -40.3865 N.am      8 UNK        -0.4734 
     50 CA         24.8700  -34.7445  -40.2060 C.3       8 UNK         0.0238 
     51 CB         24.9703  -35.7082  -41.4059 C.3       8 UNK        -0.1912 
     52 C          23.4038  -34.4451  -39.8464 C.2       8 UNK         0.5038 
     53 O          22.9027  -35.0181  -38.8778 O.2       8 UNK        -0.5046 
     54 N          22.7453  -33.5683  -40.6122 N.am      9 UNK        -0.4200 
     55 CA         21.3707  -33.1108  -40.3613 C.3       9 UNK         0.0839 
     56 C          21.2326  -32.1357  -39.1573 C.2       9 UNK         0.5513 
     57 N          22.2407  -31.3346  -38.8351 N.am      9 UNK        -0.7519 
     58 O          20.1982  -32.1212  -38.4957 O.2       9 UNK        -0.4960 
     59 C59        20.6952  -32.5551  -41.6413 C.3       10 UNK        -0.0876 
     60 S60        21.6344  -31.1932  -42.4162 S.3       10 UNK        -0.2414 
     61 C61        21.9364  -31.8176  -44.0995 C.3       10 UNK         0.0169 
     62 H62        18.0023  -20.6071  -44.7330 H         1 UNK         0.0903 
     63 H63        19.5971  -20.1539  -45.3399 H         1 UNK         0.0903 
     64 H64        18.5126  -21.1191  -46.3429 H         1 UNK         0.0903 
     65 H65        19.1079  -23.2726  -46.3995 H         1 UNK         0.3096 
     66 H66        20.9488  -24.4323  -44.5472 H         1 UNK         0.1121 
     67 H67        20.3251  -25.0141  -47.1388 H         1 UNK         0.0849 
     68 H68        19.2973  -26.2039  -46.3994 H         1 UNK         0.0849 
     69 H69        20.6661  -27.5774  -48.0470 H         1 UNK         0.0865 
     70 H70        22.2639  -28.2070  -47.7510 H         1 UNK         0.0865 
     71 H71        22.5794  -29.6253  -45.5650 H         1 UNK         0.1346 
     72 H72        19.3598  -32.3572  -44.8386 H         1 UNK         0.1412 
     73 H73        18.8001  -29.0270  -47.4914 H         1 UNK         0.1426 
     74 H74        17.3082  -32.1797  -46.0633 H         1 UNK         0.0716 
     75 H75        17.2717  -31.1830  -47.4962 H         1 UNK         0.0716 
     76 H76        17.0692  -31.2577  -43.6819 H         1 UNK         0.0695 
     77 H77        15.8148  -30.1180  -43.2644 H         1 UNK         0.0695 
     78 H78        18.7135  -29.3949  -43.9330 H         1 UNK         0.0983 
     79 H79        18.0889  -27.3428  -44.2558 H         1 UNK         0.3095 
     80 H80        15.7307  -25.2529  -43.7272 H         1 UNK         0.0454 
     81 H81        17.5922  -25.0402  -41.2977 H         1 UNK         0.0851 
     82 H82        15.8370  -24.9848  -41.2668 H         1 UNK         0.0851 
     83 H83        16.7353  -23.6911  -42.0397 H         1 UNK         0.0851 
     84 H84        17.4620  -24.5539  -44.9051 H         1 UNK         0.2976 
     85 H85        19.3649  -27.7280  -42.0014 H         1 UNK         0.3116 
     86 H86        19.7816  -29.4843  -39.7160 H         1 UNK         0.0646 
     87 H87        17.5773  -28.5339  -39.0811 H         1 UNK         0.0847 
     88 H88        18.1664  -26.8965  -39.3609 H         1 UNK         0.0847 
     89 H89        18.8250  -27.8629  -38.0460 H         1 UNK         0.0847 
     90 H90        20.3902  -26.3670  -41.3836 H         1 UNK         0.3040 
     91 H91        22.6153  -25.7057  -39.5683 H         1 UNK         0.1015 
     92 H92        21.4704  -24.2218  -41.9902 H         1 UNK         0.0786 
     93 H93        22.6382  -23.5977  -40.8360 H         1 UNK         0.0786 
     94 H94        20.9985  -23.9464  -40.3152 H         1 UNK         0.0786 
     95 H95        23.2565  -28.0902  -40.6054 H         1 UNK         0.3172 
     96 H96        25.6384  -27.6409  -42.1257 H         1 UNK         0.0595 
     97 H97        23.2823  -29.0723  -43.4746 H         1 UNK         0.0839 
     98 H98        24.9368  -29.1723  -44.0624 H         1 UNK         0.0839 
     99 H99        24.0946  -27.6337  -44.0725 H         1 UNK         0.0839 
    100 H100       26.6282  -29.8700  -42.6163 H         1 UNK         0.2998 
    101 H101       26.8794  -31.3078  -40.1824 H         1 UNK         0.0822 
    102 H102       28.7321  -31.0569  -41.8305 H         1 UNK         0.0787 
    103 H103       28.4092  -32.7581  -41.5437 H         1 UNK         0.0787 
    104 H104       27.8319  -31.9994  -43.0202 H         1 UNK         0.0787 
    105 H105       26.3725  -33.3917  -39.6420 H         1 UNK         0.3055 
    106 H106       25.2932  -35.2650  -39.3447 H         1 UNK         0.1106 
    107 H107       24.5378  -35.2852  -42.3129 H         1 UNK         0.0828 
    108 H108       24.4379  -36.6378  -41.2006 H         1 UNK         0.0828 
    109 H109       26.0067  -35.9694  -41.6191 H         1 UNK         0.0828 
    110 H110       23.2496  -33.1161  -41.3696 H         1 UNK         0.2931 
    111 H111       20.7958  -33.9971  -40.0842 H         1 UNK         0.0412 
    112 H112       23.0547  -31.2527  -39.4311 H         1 UNK         0.3472 
    113 H113       22.1296  -30.6941  -38.0656 H         1 UNK         0.3472 
    114 H114       19.6876  -32.2027  -41.4184 H         1 UNK         0.0970 
    115 H115       20.5590  -33.3678  -42.3547 H         1 UNK         0.0970 
    116 H116       22.9906  -31.6661  -44.3374 H         1 UNK         0.0612 
    117 H117       21.7675  -32.8926  -44.1664 H         1 UNK         0.0612 
@<TRIPOS>BOND
     1    1    2 1    
     2    1   62 1    
     3    1   63 1    
     4    1   64 1    
     5    2    3 2    
     6    2    4 am   BACKBONE|DICT|INTERRES
     7    4    5 1    
     8    4   65 1    
     9    5    6 1    
    10    5   25 1    
    11    5   66 1    
    12    6    7 1    
    13    6   67 1    
    14    6   68 1    
    15    7    8 1    
    16    8    9 1    
    17    8   69 1    
    18    8   70 1    
    19    9   10 ar   
    20    9   14 ar   
    21   10   11 ar   
    22   10   71 1    
    23   11   12 ar   
    24   11   61 1    
    25   12   13 ar   
    26   12   72 1    
    27   13   14 ar   
    28   13   15 1    
    29   14   73 1    
    30   15   16 1    
    31   15   74 1    
    32   15   75 1    
    33   16   17 1    
    34   17   18 1    
    35   17   76 1    
    36   17   77 1    
    37   18   19 1    
    38   18   27 1    
    39   18   78 1    
    40   19   20 am   BACKBONE|DICT|INTERRES
    41   19   79 1    
    42   20   21 2    
    43   20   22 1    
    44   22   23 1    
    45   22   24 1    
    46   22   80 1    
    47   23   81 1    
    48   23   82 1    
    49   23   83 1    
    50   24   25 am   BACKBONE|DICT|INTERRES
    51   24   84 1    
    52   25   26 2    
    53   27   28 2    
    54   27   29 am   BACKBONE|DICT|INTERRES
    55   29   30 1    
    56   29   85 1    
    57   30   31 1    
    58   30   32 1    
    59   30   86 1    
    60   31   87 1    
    61   31   88 1    
    62   31   89 1    
    63   32   33 2    
    64   32   34 am   BACKBONE|DICT|INTERRES
    65   34   35 1    
    66   34   90 1    
    67   35   36 1    
    68   35   37 1    
    69   35   91 1    
    70   36   92 1    
    71   36   93 1    
    72   36   94 1    
    73   37   38 2    
    74   37   39 am   BACKBONE|DICT|INTERRES
    75   39   40 1    
    76   39   95 1    
    77   40   41 1    
    78   40   42 1    
    79   40   96 1    
    80   41   97 1    
    81   41   98 1    
    82   41   99 1    
    83   42   43 2    
    84   42   44 am   BACKBONE|DICT|INTERRES
    85   44   45 1    
    86   44  100 1    
    87   45   46 1    
    88   45   47 1    
    89   45  101 1    
    90   46  102 1    
    91   46  103 1    
    92   46  104 1    
    93   47   48 2    
    94   47   49 am   BACKBONE|DICT|INTERRES
    95   49   50 1    
    96   49  105 1    
    97   50   51 1    
    98   50   52 1    
    99   50  106 1    
   100   51  107 1    
   101   51  108 1    
   102   51  109 1    
   103   52   53 2    
   104   52   54 am   BACKBONE|DICT|INTERRES
   105   54   55 1    
   106   54  110 1    
   107   55   56 1    
   108   55   59 1    
   109   55  111 1    
   110   56   57 am   BACKBONE|DICT|INTERRES
   111   56   58 2    
   112   57  112 1    
   113   57  113 1    
   114   59   60 1    
   115   59  114 1    
   116   59  115 1    
   117   60   61 1    
   118   61  116 1    
   119   61  117 1    
@<TRIPOS>SUBSTRUCTURE
     1 UNK         1 GROUP             0       ****    0 ROOT    
