@<TRIPOS>MOLECULE
3R8
117   119    1
SMALL
USER_CHARGES


@<TRIPOS>ATOM
      1 CA         15.2916  -25.2297  -44.9741 C.3       0 UNK        -0.2013 
      2 C          16.4824  -25.4853  -45.8847 C.2       0 UNK         0.4866 
      3 O          16.9902  -24.5461  -46.4975 O.2       0 UNK        -0.5176 
      4 N          16.9115  -26.7491  -46.0033 N.am      1 UNK        -0.4884 
      5 CA         17.9359  -27.1936  -46.9580 C.3       1 UNK         0.0853 
      6 C6         17.9360  -28.7296  -47.2218 C.3       10 UNK        -0.0849 
      7 S7         16.3015  -29.5338  -47.0357 S.3       10 UNK        -0.2776 
      8 C8         16.6286  -30.8410  -45.8016 C.3       10 UNK         0.0316 
      9 C9         17.3351  -30.3357  -44.5470 C.ar      10 UNK        -0.0863 
     10 C10        18.6573  -30.7166  -44.2913 C.ar      10 UNK        -0.1009 
     11 C11        19.3116  -30.2788  -43.1376 C.ar      10 UNK        -0.0712 
     12 C12        18.6343  -29.4608  -42.2327 C.ar      10 UNK        -0.0894 
     13 C13        17.3208  -29.0570  -42.4807 C.ar      10 UNK        -0.0745 
     14 C14        16.6713  -29.5052  -43.6370 C.ar      10 UNK        -0.0972 
     15 C15        16.6032  -28.1408  -41.5006 C.3       10 UNK         0.0209 
     16 S16        16.6884  -26.4103  -42.0543 S.3       10 UNK        -0.2568 
     17 C17        17.9132  -25.6533  -40.9317 C.3       10 UNK        -0.0983 
     18 CA         19.3845  -26.0629  -41.1948 C.3       3 UNK         0.0876 
     19 N          19.7407  -26.0468  -42.6216 N.am      3 UNK        -0.4424 
     20 C          20.8654  -26.5657  -43.1350 C.2       2 UNK         0.4918 
     21 O          21.7825  -27.0069  -42.4400 O.2       2 UNK        -0.4875 
     22 CA         20.9769  -26.6126  -44.6673 C.3       2 UNK         0.0481 
     23 CB         22.0558  -27.6062  -45.1502 C.3       2 UNK        -0.1831 
     24 N          19.6809  -26.9356  -45.2661 N.am      2 UNK        -0.4498 
     25 C          19.3406  -26.7166  -46.5439 C.2       1 UNK         0.5027 
     26 O          20.0735  -26.1757  -47.3735 O.2       1 UNK        -0.4969 
     27 C          20.3430  -25.2440  -40.3057 C.2       3 UNK         0.5005 
     28 O          20.5219  -25.5873  -39.1364 O.2       3 UNK        -0.5279 
     29 N          20.9550  -24.1951  -40.8746 N.am      4 UNK        -0.4463 
     30 CA         21.9733  -23.3734  -40.2158 C.3       4 UNK         0.0283 
     31 CB         22.1572  -22.0648  -41.0013 C.3       4 UNK        -0.1875 
     32 C          23.3230  -24.0975  -40.0576 C.2       4 UNK         0.4949 
     33 O          24.0562  -23.7961  -39.1156 O.2       4 UNK        -0.5039 
     34 N          23.6322  -25.0227  -40.9771 N.am      5 UNK        -0.4663 
     35 CA         24.8529  -25.8295  -40.9555 C.3       5 UNK         0.0242 
     36 CB         25.2789  -26.1599  -42.3961 C.3       5 UNK        -0.1982 
     37 C          24.6621  -27.1164  -40.1417 C.2       5 UNK         0.5017 
     38 O          25.5464  -27.4660  -39.3597 O.2       5 UNK        -0.5012 
     39 N          23.5206  -27.7931  -40.3532 N.am      6 UNK        -0.4439 
     40 CA         23.1309  -29.0839  -39.7697 C.3       6 UNK         0.0297 
     41 CB         22.8481  -28.9396  -38.2603 C.3       6 UNK        -0.2006 
     42 C          24.1388  -30.2073  -40.0943 C.2       6 UNK         0.4892 
     43 O          24.5008  -30.9970  -39.2188 O.2       6 UNK        -0.5089 
     44 N          24.6002  -30.2324  -41.3525 N.am      7 UNK        -0.4243 
     45 CA         25.6363  -31.1264  -41.8710 C.3       7 UNK         0.0196 
     46 CB         26.2181  -30.5052  -43.1549 C.3       7 UNK        -0.2007 
     47 C          25.1114  -32.5566  -42.0947 C.2       7 UNK         0.5020 
     48 O          24.9191  -32.9697  -43.2399 O.2       7 UNK        -0.5147 
     49 N          24.8603  -33.2739  -40.9909 N.am      8 UNK        -0.4734 
     50 CA         24.3553  -34.6532  -40.8636 C.3       8 UNK         0.0238 
     51 CB         25.2856  -35.6688  -41.5559 C.3       8 UNK        -0.1912 
     52 C          22.8930  -34.8419  -41.3092 C.2       8 UNK         0.5038 
     53 O          22.1318  -35.5002  -40.5985 O.2       8 UNK        -0.5046 
     54 N          22.5263  -34.2317  -42.4407 N.am      9 UNK        -0.4200 
     55 CA         21.1723  -34.1392  -43.0047 C.3       9 UNK         0.0839 
     56 C          20.6074  -35.5079  -43.4925 C.2       9 UNK         0.5513 
     57 N          19.3099  -35.6066  -43.7531 N.am      9 UNK        -0.7519 
     58 O          21.3396  -36.4759  -43.6911 O.2       9 UNK        -0.4960 
     59 C59        20.1911  -33.3423  -42.0899 C.3       10 UNK        -0.0876 
     60 S60        20.8931  -31.7872  -41.4331 S.3       10 UNK        -0.2414 
     61 C61        20.7534  -30.6749  -42.8639 C.3       10 UNK         0.0169 
     62 H62        15.5670  -24.5372  -44.1793 H         1 UNK         0.0903 
     63 H63        14.4747  -24.7860  -45.5424 H         1 UNK         0.0903 
     64 H64        14.9235  -26.1480  -44.5170 H         1 UNK         0.0903 
     65 H65        16.4481  -27.4901  -45.4962 H         1 UNK         0.3096 
     66 H66        17.7051  -26.7071  -47.9090 H         1 UNK         0.1121 
     67 H67        18.2842  -28.9181  -48.2388 H         1 UNK         0.0849 
     68 H68        18.6580  -29.2441  -46.5881 H         1 UNK         0.0849 
     69 H69        17.2122  -31.6303  -46.2782 H         1 UNK         0.0865 
     70 H70        15.6811  -31.3006  -45.5167 H         1 UNK         0.0865 
     71 H71        19.1788  -31.3558  -44.9909 H         1 UNK         0.1346 
     72 H72        19.1380  -29.1525  -41.3294 H         1 UNK         0.1412 
     73 H73        15.6495  -29.2069  -43.8292 H         1 UNK         0.1426 
     74 H74        17.0190  -28.2408  -40.4969 H         1 UNK         0.0716 
     75 H75        15.5553  -28.4351  -41.4264 H         1 UNK         0.0716 
     76 H76        17.6312  -25.8866  -39.9030 H         1 UNK         0.0695 
     77 H77        17.8017  -24.5720  -41.0335 H         1 UNK         0.0695 
     78 H78        19.5001  -27.0902  -40.8546 H         1 UNK         0.0983 
     79 H79        19.0355  -25.6844  -43.2469 H         1 UNK         0.3095 
     80 H80        21.2652  -25.6086  -44.9843 H         1 UNK         0.0454 
     81 H81        22.1707  -27.5807  -46.2334 H         1 UNK         0.0851 
     82 H82        21.8132  -28.6300  -44.8655 H         1 UNK         0.0851 
     83 H83        23.0315  -27.3694  -44.7260 H         1 UNK         0.0851 
     84 H84        19.0126  -27.3984  -44.6634 H         1 UNK         0.2976 
     85 H85        20.7341  -23.9743  -41.8350 H         1 UNK         0.3116 
     86 H86        21.6149  -23.1210  -39.2153 H         1 UNK         0.0646 
     87 H87        22.8912  -21.4199  -40.5161 H         1 UNK         0.0847 
     88 H88        21.2253  -21.5023  -41.0611 H         1 UNK         0.0847 
     89 H89        22.5073  -22.2472  -42.0180 H         1 UNK         0.0847 
     90 H90        22.9506  -25.2465  -41.6891 H         1 UNK         0.3040 
     91 H91        25.6597  -25.2573  -40.4911 H         1 UNK         0.1015 
     92 H92        25.4689  -25.2529  -42.9700 H         1 UNK         0.0786 
     93 H93        24.5202  -26.7373  -42.9242 H         1 UNK         0.0786 
     94 H94        26.1986  -26.7468  -42.4048 H         1 UNK         0.0786 
     95 H95        22.8773  -27.4236  -41.0517 H         1 UNK         0.3172 
     96 H96        22.1931  -29.3606  -40.2518 H         1 UNK         0.0595 
     97 H97        23.7528  -28.7045  -37.6989 H         1 UNK         0.0839 
     98 H98        22.4417  -29.8649  -37.8500 H         1 UNK         0.0839 
     99 H99        22.1192  -28.1519  -38.0685 H         1 UNK         0.0839 
    100 H100       24.2265  -29.5581  -42.0037 H         1 UNK         0.2998 
    101 H101       26.4433  -31.1849  -41.1371 H         1 UNK         0.0822 
    102 H102       25.4574  -30.3820  -43.9271 H         1 UNK         0.0787 
    103 H103       26.6578  -29.5271  -42.9583 H         1 UNK         0.0787 
    104 H104       27.0058  -31.1352  -43.5706 H         1 UNK         0.0787 
    105 H105       24.9462  -32.7679  -40.1134 H         1 UNK         0.3055 
    106 H106       24.3771  -34.8717  -39.7943 H         1 UNK         0.1106 
    107 H107       24.9542  -36.6902  -41.3641 H         1 UNK         0.0828 
    108 H108       25.3061  -35.5362  -42.6379 H         1 UNK         0.0828 
    109 H109       26.3081  -35.5856  -41.1877 H         1 UNK         0.0828 
    110 H110       23.2574  -33.7440  -42.9510 H         1 UNK         0.2931 
    111 H111       21.3020  -33.5596  -43.9187 H         1 UNK         0.0412 
    112 H112       18.6860  -34.8258  -43.6276 H         1 UNK         0.3472 
    113 H113       18.9470  -36.4861  -44.0875 H         1 UNK         0.3472 
    114 H114       19.2683  -33.1051  -42.6200 H         1 UNK         0.0970 
    115 H115       19.8964  -33.9549  -41.2362 H         1 UNK         0.0970 
    116 H116       21.3355  -29.7756  -42.6599 H         1 UNK         0.0612 
    117 H117       21.2095  -31.1408  -43.7382 H         1 UNK         0.0612 
@<TRIPOS>BOND
     1    1    2 1    
     2    1   62 1    
     3    1   63 1    
     4    1   64 1    
     5    2    3 2    
     6    2    4 am   BACKBONE|DICT|INTERRES
     7    4    5 1    
     8    4   65 1    
     9    5    6 1    
    10    5   25 1    
    11    5   66 1    
    12    6    7 1    
    13    6   67 1    
    14    6   68 1    
    15    7    8 1    
    16    8    9 1    
    17    8   69 1    
    18    8   70 1    
    19    9   10 ar   
    20    9   14 ar   
    21   10   11 ar   
    22   10   71 1    
    23   11   12 ar   
    24   11   61 1    
    25   12   13 ar   
    26   12   72 1    
    27   13   14 ar   
    28   13   15 1    
    29   14   73 1    
    30   15   16 1    
    31   15   74 1    
    32   15   75 1    
    33   16   17 1    
    34   17   18 1    
    35   17   76 1    
    36   17   77 1    
    37   18   19 1    
    38   18   27 1    
    39   18   78 1    
    40   19   20 am   BACKBONE|DICT|INTERRES
    41   19   79 1    
    42   20   21 2    
    43   20   22 1    
    44   22   23 1    
    45   22   24 1    
    46   22   80 1    
    47   23   81 1    
    48   23   82 1    
    49   23   83 1    
    50   24   25 am   BACKBONE|DICT|INTERRES
    51   24   84 1    
    52   25   26 2    
    53   27   28 2    
    54   27   29 am   BACKBONE|DICT|INTERRES
    55   29   30 1    
    56   29   85 1    
    57   30   31 1    
    58   30   32 1    
    59   30   86 1    
    60   31   87 1    
    61   31   88 1    
    62   31   89 1    
    63   32   33 2    
    64   32   34 am   BACKBONE|DICT|INTERRES
    65   34   35 1    
    66   34   90 1    
    67   35   36 1    
    68   35   37 1    
    69   35   91 1    
    70   36   92 1    
    71   36   93 1    
    72   36   94 1    
    73   37   38 2    
    74   37   39 am   BACKBONE|DICT|INTERRES
    75   39   40 1    
    76   39   95 1    
    77   40   41 1    
    78   40   42 1    
    79   40   96 1    
    80   41   97 1    
    81   41   98 1    
    82   41   99 1    
    83   42   43 2    
    84   42   44 am   BACKBONE|DICT|INTERRES
    85   44   45 1    
    86   44  100 1    
    87   45   46 1    
    88   45   47 1    
    89   45  101 1    
    90   46  102 1    
    91   46  103 1    
    92   46  104 1    
    93   47   48 2    
    94   47   49 am   BACKBONE|DICT|INTERRES
    95   49   50 1    
    96   49  105 1    
    97   50   51 1    
    98   50   52 1    
    99   50  106 1    
   100   51  107 1    
   101   51  108 1    
   102   51  109 1    
   103   52   53 2    
   104   52   54 am   BACKBONE|DICT|INTERRES
   105   54   55 1    
   106   54  110 1    
   107   55   56 1    
   108   55   59 1    
   109   55  111 1    
   110   56   57 am   BACKBONE|DICT|INTERRES
   111   56   58 2    
   112   57  112 1    
   113   57  113 1    
   114   59   60 1    
   115   59  114 1    
   116   59  115 1    
   117   60   61 1    
   118   61  116 1    
   119   61  117 1    
@<TRIPOS>SUBSTRUCTURE
     1 UNK         1 GROUP             0       ****    0 ROOT    
