@<TRIPOS>MOLECULE
3R8
117   119    1
SMALL
USER_CHARGES


@<TRIPOS>ATOM
      1 CA         21.0257  -24.8994  -41.3052 C.3       0 UNK        -0.2013 
      2 C          20.0865  -25.2338  -42.4528 C.2       0 UNK         0.4866 
      3 O          20.5098  -25.8583  -43.4270 O.2       0 UNK        -0.5176 
      4 N          18.8234  -24.7922  -42.3638 N.am      1 UNK        -0.4884 
      5 CA         17.7130  -25.0760  -43.2951 C.3       1 UNK         0.0853 
      6 C6         17.3914  -26.5918  -43.4081 C.3       10 UNK        -0.0849 
      7 S7         17.1036  -27.4501  -41.8235 S.3       10 UNK        -0.2776 
      8 C8         16.2644  -28.9666  -42.4000 C.3       10 UNK         0.0316 
      9 C9         17.1565  -29.8131  -43.3009 C.ar      10 UNK        -0.0863 
     10 C10        17.9301  -30.8486  -42.7684 C.ar      10 UNK        -0.1009 
     11 C11        18.7489  -31.6268  -43.5971 C.ar      10 UNK        -0.0712 
     12 C12        18.8311  -31.3186  -44.9602 C.ar      10 UNK        -0.0894 
     13 C13        18.0751  -30.2744  -45.5022 C.ar      10 UNK        -0.0745 
     14 C14        17.2094  -29.5576  -44.6739 C.ar      10 UNK        -0.0972 
     15 C15        18.1917  -29.9145  -46.9794 C.3       10 UNK         0.0209 
     16 S16        18.6495  -28.1650  -47.2433 S.3       10 UNK        -0.2568 
     17 C17        20.2904  -28.0973  -46.4525 C.3       10 UNK        -0.0983 
     18 CA         21.0804  -26.8085  -46.8061 C.3       3 UNK         0.0876 
     19 N          20.3974  -25.6099  -46.3052 N.am      3 UNK        -0.4424 
     20 C          20.1884  -24.4740  -46.9851 C.2       2 UNK         0.4918 
     21 O          20.5159  -24.3167  -48.1619 O.2       2 UNK        -0.4875 
     22 CA         19.5494  -23.2948  -46.2120 C.3       2 UNK         0.0481 
     23 CB         18.5577  -22.4876  -47.0763 C.3       2 UNK        -0.1831 
     24 N          18.9639  -23.6893  -44.9213 N.am      2 UNK        -0.4498 
     25 C          17.8987  -24.4802  -44.7147 C.2       1 UNK         0.5027 
     26 O          17.1036  -24.7897  -45.6027 O.2       1 UNK        -0.4969 
     27 C          22.5129  -26.9014  -46.2323 C.2       3 UNK         0.5005 
     28 O          23.2498  -27.8127  -46.6119 O.2       3 UNK        -0.5279 
     29 N          22.8672  -25.9921  -45.3066 N.am      4 UNK        -0.4463 
     30 CA         24.0417  -26.0136  -44.4241 C.3       4 UNK         0.0283 
     31 CB         25.3624  -25.9507  -45.2202 C.3       4 UNK        -0.1875 
     32 C          23.9943  -27.1848  -43.4213 C.2       4 UNK         0.4949 
     33 O          25.0380  -27.6774  -42.9898 O.2       4 UNK        -0.5039 
     34 N          22.7783  -27.5985  -43.0399 N.am      5 UNK        -0.4663 
     35 CA         22.4903  -28.7145  -42.1400 C.3       5 UNK         0.0242 
     36 CB         21.0938  -29.2668  -42.4768 C.3       5 UNK        -0.1982 
     37 C          22.6270  -28.3133  -40.6601 C.2       5 UNK         0.5017 
     38 O          21.6958  -28.5032  -39.8769 O.2       5 UNK        -0.5012 
     39 N          23.7880  -27.7490  -40.3030 N.am      6 UNK        -0.4439 
     40 CA         24.1240  -27.3074  -38.9453 C.3       6 UNK         0.0297 
     41 CB         25.4022  -26.4554  -38.9912 C.3       6 UNK        -0.2006 
     42 C          24.2834  -28.4707  -37.9485 C.2       6 UNK         0.4892 
     43 O          24.0180  -28.2886  -36.7598 O.2       6 UNK        -0.5089 
     44 N          24.7008  -29.6376  -38.4527 N.am      7 UNK        -0.4243 
     45 CA         24.8582  -30.8847  -37.7110 C.3       7 UNK         0.0196 
     46 CB         26.1711  -30.8658  -36.8998 C.3       7 UNK        -0.2007 
     47 C          24.7799  -32.0452  -38.7118 C.2       7 UNK         0.5020 
     48 O          25.7536  -32.7808  -38.8820 O.2       7 UNK        -0.5147 
     49 N          23.6369  -32.1586  -39.3978 N.am      8 UNK        -0.4734 
     50 CA         23.3636  -33.1910  -40.3973 C.3       8 UNK         0.0238 
     51 CB         23.5795  -32.6098  -41.8060 C.3       8 UNK        -0.1912 
     52 C          21.9259  -33.6997  -40.2386 C.2       8 UNK         0.5038 
     53 O          21.0741  -32.9614  -39.7381 O.2       8 UNK        -0.5046 
     54 N          21.7040  -34.9355  -40.7052 N.am      9 UNK        -0.4200 
     55 CA         20.4435  -35.6958  -40.7037 C.3       9 UNK         0.0839 
     56 C          19.7052  -35.7693  -39.3302 C.2       9 UNK         0.5513 
     57 N          18.3912  -35.9490  -39.3089 N.am      9 UNK        -0.7519 
     58 O          20.3322  -35.7465  -38.2727 O.2       9 UNK        -0.4960 
     59 C59        19.5711  -35.4243  -41.9679 C.3       10 UNK        -0.0876 
     60 S60        18.5766  -33.8911  -41.9750 S.3       10 UNK        -0.2414 
     61 C61        19.5691  -32.7823  -43.0299 C.3       10 UNK         0.0169 
     62 H62        21.0812  -25.7390  -40.6136 H         1 UNK         0.0903 
     63 H63        20.6895  -24.0227  -40.7523 H         1 UNK         0.0903 
     64 H64        22.0289  -24.6981  -41.6797 H         1 UNK         0.0903 
     65 H65        18.5547  -24.2663  -41.5428 H         1 UNK         0.3096 
     66 H66        16.8338  -24.5799  -42.8808 H         1 UNK         0.1121 
     67 H67        16.4973  -26.7312  -44.0181 H         1 UNK         0.0849 
     68 H68        18.2021  -27.1078  -43.9259 H         1 UNK         0.0849 
     69 H69        15.9544  -29.5488  -41.5309 H         1 UNK         0.0865 
     70 H70        15.3462  -28.6986  -42.9250 H         1 UNK         0.0865 
     71 H71        17.8902  -31.0563  -41.7078 H         1 UNK         0.1346 
     72 H72        19.4875  -31.8912  -45.6011 H         1 UNK         0.1412 
     73 H73        16.6087  -28.7666  -45.0999 H         1 UNK         0.1426 
     74 H74        18.9231  -30.5507  -47.4801 H         1 UNK         0.0716 
     75 H75        17.2338  -30.1047  -47.4653 H         1 UNK         0.0716 
     76 H76        20.8430  -28.9862  -46.7635 H         1 UNK         0.0695 
     77 H77        20.1558  -28.1809  -45.3721 H         1 UNK         0.0695 
     78 H78        21.1808  -26.7543  -47.8922 H         1 UNK         0.0983 
     79 H79        20.1169  -25.6523  -45.3301 H         1 UNK         0.3095 
     80 H80        20.3746  -22.6265  -45.9623 H         1 UNK         0.0454 
     81 H81        18.1009  -21.6780  -46.5076 H         1 UNK         0.0851 
     82 H82        17.7586  -23.1130  -47.4746 H         1 UNK         0.0851 
     83 H83        19.0646  -22.0361  -47.9298 H         1 UNK         0.0851 
     84 H84        19.5321  -23.4885  -44.1096 H         1 UNK         0.2976 
     85 H85        22.1672  -25.3050  -45.0639 H         1 UNK         0.3116 
     86 H86        23.9806  -25.1052  -43.8231 H         1 UNK         0.0646 
     87 H87        25.3585  -25.1264  -45.9331 H         1 UNK         0.0847 
     88 H88        26.2112  -25.7971  -44.5529 H         1 UNK         0.0847 
     89 H89        25.5512  -26.8721  -45.7714 H         1 UNK         0.0847 
     90 H90        21.9698  -27.0754  -43.3664 H         1 UNK         0.3040 
     91 H91        23.2184  -29.5066  -42.3237 H         1 UNK         0.1015 
     92 H92        20.3165  -28.5106  -42.3563 H         1 UNK         0.0786 
     93 H93        20.8344  -30.1023  -41.8258 H         1 UNK         0.0786 
     94 H94        21.0481  -29.6308  -43.5031 H         1 UNK         0.0786 
     95 H95        24.4891  -27.6243  -41.0272 H         1 UNK         0.3172 
     96 H96        23.3075  -26.6769  -38.5868 H         1 UNK         0.0595 
     97 H97        26.2549  -27.0240  -39.3646 H         1 UNK         0.0839 
     98 H98        25.6639  -26.0915  -37.9965 H         1 UNK         0.0839 
     99 H99        25.2747  -25.5816  -39.6305 H         1 UNK         0.0839 
    100 H100       24.8832  -29.6937  -39.4453 H         1 UNK         0.2998 
    101 H101       24.0220  -30.9986  -37.0177 H         1 UNK         0.0822 
    102 H102       26.1705  -30.0673  -36.1578 H         1 UNK         0.0787 
    103 H103       26.3114  -31.8044  -36.3620 H         1 UNK         0.0787 
    104 H104       27.0398  -30.7229  -37.5436 H         1 UNK         0.0787 
    105 H105       22.8474  -31.5677  -39.1658 H         1 UNK         0.3055 
    106 H106       24.0395  -34.0370  -40.2501 H         1 UNK         0.1106 
    107 H107       24.5851  -32.2051  -41.9213 H         1 UNK         0.0828 
    108 H108       23.4503  -33.3767  -42.5707 H         1 UNK         0.0828 
    109 H109       22.8678  -31.8143  -42.0238 H         1 UNK         0.0828 
    110 H110       22.4936  -35.4430  -41.0766 H         1 UNK         0.2931 
    111 H111       20.7929  -36.7216  -40.8277 H         1 UNK         0.0412 
    112 H112       17.8588  -35.9529  -40.1649 H         1 UNK         0.3472 
    113 H113       17.9192  -36.0269  -38.4216 H         1 UNK         0.3472 
    114 H114       20.2013  -35.4503  -42.8576 H         1 UNK         0.0970 
    115 H115       18.8757  -36.2538  -42.1056 H         1 UNK         0.0970 
    116 H116       20.3993  -32.3826  -42.4493 H         1 UNK         0.0612 
    117 H117       20.0070  -33.3621  -43.8434 H         1 UNK         0.0612 
@<TRIPOS>BOND
     1    1    2 1    
     2    1   62 1    
     3    1   63 1    
     4    1   64 1    
     5    2    3 2    
     6    2    4 am   BACKBONE|DICT|INTERRES
     7    4    5 1    
     8    4   65 1    
     9    5    6 1    
    10    5   25 1    
    11    5   66 1    
    12    6    7 1    
    13    6   67 1    
    14    6   68 1    
    15    7    8 1    
    16    8    9 1    
    17    8   69 1    
    18    8   70 1    
    19    9   10 ar   
    20    9   14 ar   
    21   10   11 ar   
    22   10   71 1    
    23   11   12 ar   
    24   11   61 1    
    25   12   13 ar   
    26   12   72 1    
    27   13   14 ar   
    28   13   15 1    
    29   14   73 1    
    30   15   16 1    
    31   15   74 1    
    32   15   75 1    
    33   16   17 1    
    34   17   18 1    
    35   17   76 1    
    36   17   77 1    
    37   18   19 1    
    38   18   27 1    
    39   18   78 1    
    40   19   20 am   BACKBONE|DICT|INTERRES
    41   19   79 1    
    42   20   21 2    
    43   20   22 1    
    44   22   23 1    
    45   22   24 1    
    46   22   80 1    
    47   23   81 1    
    48   23   82 1    
    49   23   83 1    
    50   24   25 am   BACKBONE|DICT|INTERRES
    51   24   84 1    
    52   25   26 2    
    53   27   28 2    
    54   27   29 am   BACKBONE|DICT|INTERRES
    55   29   30 1    
    56   29   85 1    
    57   30   31 1    
    58   30   32 1    
    59   30   86 1    
    60   31   87 1    
    61   31   88 1    
    62   31   89 1    
    63   32   33 2    
    64   32   34 am   BACKBONE|DICT|INTERRES
    65   34   35 1    
    66   34   90 1    
    67   35   36 1    
    68   35   37 1    
    69   35   91 1    
    70   36   92 1    
    71   36   93 1    
    72   36   94 1    
    73   37   38 2    
    74   37   39 am   BACKBONE|DICT|INTERRES
    75   39   40 1    
    76   39   95 1    
    77   40   41 1    
    78   40   42 1    
    79   40   96 1    
    80   41   97 1    
    81   41   98 1    
    82   41   99 1    
    83   42   43 2    
    84   42   44 am   BACKBONE|DICT|INTERRES
    85   44   45 1    
    86   44  100 1    
    87   45   46 1    
    88   45   47 1    
    89   45  101 1    
    90   46  102 1    
    91   46  103 1    
    92   46  104 1    
    93   47   48 2    
    94   47   49 am   BACKBONE|DICT|INTERRES
    95   49   50 1    
    96   49  105 1    
    97   50   51 1    
    98   50   52 1    
    99   50  106 1    
   100   51  107 1    
   101   51  108 1    
   102   51  109 1    
   103   52   53 2    
   104   52   54 am   BACKBONE|DICT|INTERRES
   105   54   55 1    
   106   54  110 1    
   107   55   56 1    
   108   55   59 1    
   109   55  111 1    
   110   56   57 am   BACKBONE|DICT|INTERRES
   111   56   58 2    
   112   57  112 1    
   113   57  113 1    
   114   59   60 1    
   115   59  114 1    
   116   59  115 1    
   117   60   61 1    
   118   61  116 1    
   119   61  117 1    
@<TRIPOS>SUBSTRUCTURE
     1 UNK         1 GROUP             0       ****    0 ROOT    
