@<TRIPOS>MOLECULE
3R8
117   119    1
SMALL
USER_CHARGES


@<TRIPOS>ATOM
      1 CA         16.9479  -23.9619  -46.7673 C.3       0 UNK        -0.2013 
      2 C          17.8428  -25.1831  -46.6166 C.2       0 UNK         0.4866 
      3 O          18.8127  -25.3271  -47.3619 O.2       0 UNK        -0.5176 
      4 N          17.5196  -26.0676  -45.6652 N.am      1 UNK        -0.4884 
      5 CA         18.2940  -27.2719  -45.3453 C.3       1 UNK         0.0853 
      6 C6         17.4769  -28.2653  -44.4861 C.3       10 UNK        -0.0849 
      7 S7         16.0678  -28.9622  -45.4097 S.3       10 UNK        -0.2776 
      8 C8         15.0439  -29.6225  -44.0562 C.3       10 UNK         0.0316 
      9 C9         15.7701  -30.7182  -43.2906 C.ar      10 UNK        -0.0863 
     10 C10        15.8429  -32.0131  -43.8148 C.ar      10 UNK        -0.1009 
     11 C11        16.5354  -33.0167  -43.1302 C.ar      10 UNK        -0.0712 
     12 C12        17.1327  -32.7209  -41.9012 C.ar      10 UNK        -0.0894 
     13 C13        17.0873  -31.4258  -41.3819 C.ar      10 UNK        -0.0745 
     14 C14        16.3932  -30.4297  -42.0721 C.ar      10 UNK        -0.0972 
     15 C15        17.8354  -31.1031  -40.1018 C.3       10 UNK         0.0209 
     16 S16        19.5610  -30.6700  -40.4810 S.3       10 UNK        -0.2568 
     17 C17        19.5649  -28.8829  -40.1405 C.3       10 UNK        -0.0983 
     18 CA         20.8946  -28.2222  -40.5795 C.3       3 UNK         0.0876 
     19 N          21.0099  -28.1495  -42.0446 N.am      3 UNK        -0.4424 
     20 C          22.0750  -27.6996  -42.7272 C.2       2 UNK         0.4918 
     21 O          23.1015  -27.2995  -42.1839 O.2       2 UNK        -0.4875 
     22 CA         21.9778  -27.6205  -44.2633 C.3       2 UNK         0.0481 
     23 CB         22.9212  -28.6355  -44.9262 C.3       2 UNK        -0.1831 
     24 N          20.6253  -27.7845  -44.8073 N.am      2 UNK        -0.4498 
     25 C          19.6180  -26.9157  -44.6395 C.2       1 UNK         0.5027 
     26 O          19.6945  -25.9081  -43.9302 O.2       1 UNK        -0.4969 
     27 C          21.0915  -26.8655  -39.8622 C.2       3 UNK         0.5005 
     28 O          21.3732  -26.8581  -38.6617 O.2       3 UNK        -0.5279 
     29 N          20.9919  -25.7467  -40.5955 N.am      4 UNK        -0.4463 
     30 CA         21.4092  -24.4084  -40.1774 C.3       4 UNK         0.0283 
     31 CB         20.8246  -23.3813  -41.1645 C.3       4 UNK        -0.1875 
     32 C          22.9469  -24.2995  -40.0540 C.2       4 UNK         0.4949 
     33 O          23.5887  -23.6374  -40.8708 O.2       4 UNK        -0.5039 
     34 N          23.4944  -24.9528  -39.0199 N.am      5 UNK        -0.4663 
     35 CA         24.8977  -24.9554  -38.5862 C.3       5 UNK         0.0242 
     36 CB         25.3467  -23.5373  -38.1688 C.3       5 UNK        -0.1982 
     37 C          25.8770  -25.6345  -39.5673 C.2       5 UNK         0.5017 
     38 O          27.0244  -25.1972  -39.6800 O.2       5 UNK        -0.5012 
     39 N          25.4372  -26.7152  -40.2225 N.am      6 UNK        -0.4439 
     40 CA         26.2691  -27.6037  -41.0373 C.3       6 UNK         0.0297 
     41 CB         26.4274  -27.0527  -42.4724 C.3       6 UNK        -0.2006 
     42 C          25.7263  -29.0437  -40.9529 C.2       6 UNK         0.4892 
     43 O          25.1707  -29.4177  -39.9166 O.2       6 UNK        -0.5089 
     44 N          25.9452  -29.8383  -42.0105 N.am      7 UNK        -0.4243 
     45 CA         25.5771  -31.2557  -42.1199 C.3       7 UNK         0.0196 
     46 CB         26.1877  -31.8164  -43.4162 C.3       7 UNK        -0.2007 
     47 C          24.0577  -31.5090  -42.0941 C.2       7 UNK         0.5020 
     48 O          23.2716  -30.5975  -42.3422 O.2       7 UNK        -0.5147 
     49 N          23.6651  -32.7587  -41.8184 N.am      8 UNK        -0.4734 
     50 CA         22.2633  -33.1830  -41.7963 C.3       8 UNK         0.0238 
     51 CB         22.1562  -34.5724  -41.1462 C.3       8 UNK        -0.1912 
     52 C          21.6370  -33.1909  -43.2035 C.2       8 UNK         0.5038 
     53 O          22.1958  -33.8221  -44.1038 O.2       8 UNK        -0.5046 
     54 N          20.4744  -32.5375  -43.3261 N.am      9 UNK        -0.4200 
     55 CA         19.6130  -32.4200  -44.5151 C.3       9 UNK         0.0839 
     56 C          20.2022  -31.5341  -45.6463 C.2       9 UNK         0.5513 
     57 N          19.3701  -30.7246  -46.2896 N.am      9 UNK        -0.7519 
     58 O          21.3784  -31.5981  -45.9887 O.2       9 UNK        -0.4960 
     59 C59        19.1148  -33.7818  -45.0858 C.3       10 UNK        -0.0876 
     60 S60        18.4257  -34.9329  -43.8427 S.3       10 UNK        -0.2414 
     61 C61        16.6810  -34.4064  -43.7362 C.3       10 UNK         0.0169 
     62 H62        17.5250  -23.0521  -46.6042 H         1 UNK         0.0903 
     63 H63        16.1215  -23.9712  -46.0567 H         1 UNK         0.0903 
     64 H64        16.5295  -23.9249  -47.7729 H         1 UNK         0.0903 
     65 H65        16.7175  -25.8952  -45.0765 H         1 UNK         0.3096 
     66 H66        18.5481  -27.7598  -46.2895 H         1 UNK         0.1121 
     67 H67        17.1134  -27.7780  -43.5791 H         1 UNK         0.0849 
     68 H68        18.0961  -29.1023  -44.1570 H         1 UNK         0.0849 
     69 H69        14.7524  -28.8100  -43.3886 H         1 UNK         0.0865 
     70 H70        14.1171  -30.0199  -44.4727 H         1 UNK         0.0865 
     71 H71        15.3810  -32.2296  -44.7686 H         1 UNK         0.1346 
     72 H72        17.6806  -33.4901  -41.3739 H         1 UNK         0.1412 
     73 H73        16.3604  -29.4254  -41.6725 H         1 UNK         0.1426 
     74 H74        17.3420  -30.2950  -39.5596 H         1 UNK         0.0716 
     75 H75        17.8254  -31.9671  -39.4355 H         1 UNK         0.0716 
     76 H76        19.4019  -28.7662  -39.0667 H         1 UNK         0.0695 
     77 H77        18.7142  -28.4111  -40.6358 H         1 UNK         0.0695 
     78 H78        21.7202  -28.8515  -40.2376 H         1 UNK         0.0983 
     79 H79        20.2148  -28.4784  -42.5679 H         1 UNK         0.3095 
     80 H80        22.3207  -26.6223  -44.5436 H         1 UNK         0.0454 
     81 H81        22.9490  -28.5112  -46.0086 H         1 UNK         0.0851 
     82 H82        22.6201  -29.6603  -44.7122 H         1 UNK         0.0851 
     83 H83        23.9419  -28.5199  -44.5595 H         1 UNK         0.0851 
     84 H84        20.4745  -28.6042  -45.3790 H         1 UNK         0.2976 
     85 H85        20.7670  -25.8534  -41.5758 H         1 UNK         0.3116 
     86 H86        20.9831  -24.2038  -39.1929 H         1 UNK         0.0646 
     87 H87        19.7353  -23.4217  -41.1811 H         1 UNK         0.0847 
     88 H88        21.1062  -22.3656  -40.8839 H         1 UNK         0.0847 
     89 H89        21.1803  -23.5500  -42.1820 H         1 UNK         0.0847 
     90 H90        22.8635  -25.5369  -38.4769 H         1 UNK         0.3040 
     91 H91        24.9242  -25.5732  -37.6871 H         1 UNK         0.1015 
     92 H92        25.4149  -22.8653  -39.0248 H         1 UNK         0.0786 
     93 H93        26.3295  -23.5601  -37.6963 H         1 UNK         0.0786 
     94 H94        24.6557  -23.0969  -37.4499 H         1 UNK         0.0786 
     95 H95        24.4813  -27.0226  -40.0955 H         1 UNK         0.3172 
     96 H96        27.2632  -27.6449  -40.5874 H         1 UNK         0.0595 
     97 H97        27.1753  -27.6121  -43.0347 H         1 UNK         0.0839 
     98 H98        26.7589  -26.0143  -42.4614 H         1 UNK         0.0839 
     99 H99        25.4941  -27.0914  -43.0325 H         1 UNK         0.0839 
    100 H100       26.3827  -29.4299  -42.8224 H         1 UNK         0.2998 
    101 H101       26.0185  -31.7765  -41.2676 H         1 UNK         0.0822 
    102 H102       27.2713  -31.6974  -43.4307 H         1 UNK         0.0787 
    103 H103       25.9813  -32.8822  -43.5228 H         1 UNK         0.0787 
    104 H104       25.7818  -31.3185  -44.2981 H         1 UNK         0.0787 
    105 H105       24.3616  -33.4747  -41.6699 H         1 UNK         0.3055 
    106 H106       21.7180  -32.4774  -41.1674 H         1 UNK         0.1106 
    107 H107       22.5362  -34.5648  -40.1245 H         1 UNK         0.0828 
    108 H108       21.1166  -34.9006  -41.1022 H         1 UNK         0.0828 
    109 H109       22.7107  -35.3254  -41.7077 H         1 UNK         0.0828 
    110 H110       20.1285  -32.0425  -42.5156 H         1 UNK         0.2931 
    111 H111       18.7419  -31.8816  -44.1454 H         1 UNK         0.0412 
    112 H112       18.3857  -30.7062  -46.0695 H         1 UNK         0.3472 
    113 H113       19.7152  -30.2131  -47.0864 H         1 UNK         0.3472 
    114 H114       18.3603  -33.6141  -45.8566 H         1 UNK         0.0970 
    115 H115       19.9365  -34.2985  -45.5851 H         1 UNK         0.0970 
    116 H116       16.2327  -34.4525  -44.7298 H         1 UNK         0.0612 
    117 H117       16.1362  -35.1186  -43.1155 H         1 UNK         0.0612 
@<TRIPOS>BOND
     1    1    2 1    
     2    1   62 1    
     3    1   63 1    
     4    1   64 1    
     5    2    3 2    
     6    2    4 am   BACKBONE|DICT|INTERRES
     7    4    5 1    
     8    4   65 1    
     9    5    6 1    
    10    5   25 1    
    11    5   66 1    
    12    6    7 1    
    13    6   67 1    
    14    6   68 1    
    15    7    8 1    
    16    8    9 1    
    17    8   69 1    
    18    8   70 1    
    19    9   10 ar   
    20    9   14 ar   
    21   10   11 ar   
    22   10   71 1    
    23   11   12 ar   
    24   11   61 1    
    25   12   13 ar   
    26   12   72 1    
    27   13   14 ar   
    28   13   15 1    
    29   14   73 1    
    30   15   16 1    
    31   15   74 1    
    32   15   75 1    
    33   16   17 1    
    34   17   18 1    
    35   17   76 1    
    36   17   77 1    
    37   18   19 1    
    38   18   27 1    
    39   18   78 1    
    40   19   20 am   BACKBONE|DICT|INTERRES
    41   19   79 1    
    42   20   21 2    
    43   20   22 1    
    44   22   23 1    
    45   22   24 1    
    46   22   80 1    
    47   23   81 1    
    48   23   82 1    
    49   23   83 1    
    50   24   25 am   BACKBONE|DICT|INTERRES
    51   24   84 1    
    52   25   26 2    
    53   27   28 2    
    54   27   29 am   BACKBONE|DICT|INTERRES
    55   29   30 1    
    56   29   85 1    
    57   30   31 1    
    58   30   32 1    
    59   30   86 1    
    60   31   87 1    
    61   31   88 1    
    62   31   89 1    
    63   32   33 2    
    64   32   34 am   BACKBONE|DICT|INTERRES
    65   34   35 1    
    66   34   90 1    
    67   35   36 1    
    68   35   37 1    
    69   35   91 1    
    70   36   92 1    
    71   36   93 1    
    72   36   94 1    
    73   37   38 2    
    74   37   39 am   BACKBONE|DICT|INTERRES
    75   39   40 1    
    76   39   95 1    
    77   40   41 1    
    78   40   42 1    
    79   40   96 1    
    80   41   97 1    
    81   41   98 1    
    82   41   99 1    
    83   42   43 2    
    84   42   44 am   BACKBONE|DICT|INTERRES
    85   44   45 1    
    86   44  100 1    
    87   45   46 1    
    88   45   47 1    
    89   45  101 1    
    90   46  102 1    
    91   46  103 1    
    92   46  104 1    
    93   47   48 2    
    94   47   49 am   BACKBONE|DICT|INTERRES
    95   49   50 1    
    96   49  105 1    
    97   50   51 1    
    98   50   52 1    
    99   50  106 1    
   100   51  107 1    
   101   51  108 1    
   102   51  109 1    
   103   52   53 2    
   104   52   54 am   BACKBONE|DICT|INTERRES
   105   54   55 1    
   106   54  110 1    
   107   55   56 1    
   108   55   59 1    
   109   55  111 1    
   110   56   57 am   BACKBONE|DICT|INTERRES
   111   56   58 2    
   112   57  112 1    
   113   57  113 1    
   114   59   60 1    
   115   59  114 1    
   116   59  115 1    
   117   60   61 1    
   118   61  116 1    
   119   61  117 1    
@<TRIPOS>SUBSTRUCTURE
     1 UNK         1 GROUP             0       ****    0 ROOT    
