@<TRIPOS>MOLECULE
3R8
117   119    1
SMALL
USER_CHARGES


@<TRIPOS>ATOM
      1 CA         16.0975  -23.9578  -40.9088 C.3       0 UNK        -0.2013 
      2 C          16.8058  -24.8007  -41.9595 C.2       0 UNK         0.4866 
      3 O          17.2991  -25.8774  -41.6301 O.2       0 UNK        -0.5176 
      4 N          16.8324  -24.3113  -43.2077 N.am      1 UNK        -0.4884 
      5 CA         17.4824  -24.8688  -44.4045 C.3       1 UNK         0.0853 
      6 C6         17.1889  -26.3675  -44.6882 C.3       10 UNK        -0.0849 
      7 S7         15.4210  -26.7785  -44.8531 S.3       10 UNK        -0.2776 
      8 C8         15.2774  -28.2023  -43.7116 C.3       10 UNK         0.0316 
      9 C9         16.2176  -29.3765  -44.0064 C.ar      10 UNK        -0.0863 
     10 C10        16.6579  -30.1736  -42.9438 C.ar      10 UNK        -0.1009 
     11 C11        17.5150  -31.2573  -43.1632 C.ar      10 UNK        -0.0712 
     12 C12        17.9386  -31.5406  -44.4645 C.ar      10 UNK        -0.0894 
     13 C13        17.5220  -30.7490  -45.5367 C.ar      10 UNK        -0.0745 
     14 C14        16.6432  -29.6853  -45.3054 C.ar      10 UNK        -0.0972 
     15 C15        18.0268  -31.0466  -46.9434 C.3       10 UNK         0.0209 
     16 S16        19.7810  -30.5879  -47.1637 S.3       10 UNK        -0.2568 
     17 C17        19.7044  -28.7686  -47.0251 C.3       10 UNK        -0.0983 
     18 CA         20.9493  -28.0695  -46.4152 C.3       3 UNK         0.0876 
     19 N          20.7078  -26.6244  -46.3578 N.am      3 UNK        -0.4424 
     20 C          21.5743  -25.6680  -45.9932 C.2       2 UNK         0.4918 
     21 O          22.7634  -25.8696  -45.7517 O.2       2 UNK        -0.4875 
     22 CA         20.9944  -24.2454  -45.8486 C.3       2 UNK         0.0481 
     23 CB         21.2672  -23.4228  -47.1177 C.3       2 UNK        -0.1831 
     24 N          19.5503  -24.2513  -45.5685 N.am      2 UNK        -0.4498 
     25 C          19.0089  -24.6438  -44.4043 C.2       1 UNK         0.5027 
     26 O          19.6807  -24.9163  -43.4084 O.2       1 UNK        -0.4969 
     27 C          21.3598  -28.6447  -45.0375 C.2       3 UNK         0.5005 
     28 O          22.2290  -29.5157  -44.9759 O.2       3 UNK        -0.5279 
     29 N          20.7890  -28.1047  -43.9506 N.am      4 UNK        -0.4463 
     30 CA         21.0773  -28.4831  -42.5657 C.3       4 UNK         0.0283 
     31 CB         19.8252  -28.2233  -41.7111 C.3       4 UNK        -0.1875 
     32 C          22.3197  -27.7626  -42.0075 C.2       4 UNK         0.4949 
     33 O          22.2904  -27.2776  -40.8744 O.2       4 UNK        -0.5039 
     34 N          23.3960  -27.7050  -42.8036 N.am      5 UNK        -0.4663 
     35 CA         24.6818  -27.0871  -42.4694 C.3       5 UNK         0.0242 
     36 CB         25.6268  -27.2059  -43.6763 C.3       5 UNK        -0.1982 
     37 C          25.2970  -27.7327  -41.2180 C.2       5 UNK         0.5017 
     38 O          25.6492  -28.9120  -41.2615 O.2       5 UNK        -0.5012 
     39 N          25.3322  -26.9752  -40.1111 N.am      6 UNK        -0.4439 
     40 CA         25.7355  -27.4021  -38.7619 C.3       6 UNK         0.0297 
     41 CB         27.2542  -27.6756  -38.7157 C.3       6 UNK        -0.2006 
     42 C          24.9092  -28.5853  -38.2051 C.2       6 UNK         0.4892 
     43 O          25.4071  -29.3219  -37.3522 O.2       6 UNK        -0.5089 
     44 N          23.6761  -28.7565  -38.7119 N.am      7 UNK        -0.4243 
     45 CA         22.7550  -29.8735  -38.4667 C.3       7 UNK         0.0196 
     46 CB         22.2567  -29.8684  -37.0062 C.3       7 UNK        -0.2007 
     47 C          23.3094  -31.2476  -38.9032 C.2       7 UNK         0.5020 
     48 O          22.8754  -32.2732  -38.3751 O.2       7 UNK        -0.5147 
     49 N          24.2336  -31.2652  -39.8789 N.am      8 UNK        -0.4734 
     50 CA         24.8933  -32.4756  -40.3912 C.3       8 UNK         0.0238 
     51 CB         26.0490  -32.0718  -41.3206 C.3       8 UNK        -0.1912 
     52 C          23.9557  -33.4695  -41.1021 C.2       8 UNK         0.5038 
     53 O          24.3394  -34.6254  -41.2876 O.2       8 UNK        -0.5046 
     54 N          22.7524  -33.0154  -41.4734 N.am      9 UNK        -0.4200 
     55 CA         21.6592  -33.8451  -41.9938 C.3       9 UNK         0.0839 
     56 C          21.0373  -34.8332  -40.9602 C.2       9 UNK         0.5513 
     57 N          21.2864  -34.6880  -39.6626 N.am      9 UNK        -0.7519 
     58 O          20.3230  -35.7536  -41.3492 O.2       9 UNK        -0.4960 
     59 C59        20.5843  -32.9755  -42.6953 C.3       10 UNK        -0.0876 
     60 S60        19.7158  -31.8280  -41.5637 S.3       10 UNK        -0.2414 
     61 C61        17.9708  -32.1231  -41.9948 C.3       10 UNK         0.0169 
     62 H62        15.2728  -24.5204  -40.4717 H         1 UNK         0.0903 
     63 H63        16.7912  -23.6950  -40.1104 H         1 UNK         0.0903 
     64 H64        15.6946  -23.0347  -41.3253 H         1 UNK         0.0903 
     65 H65        16.3953  -23.4135  -43.3647 H         1 UNK         0.3096 
     66 H66        17.0693  -24.2956  -45.2365 H         1 UNK         0.1121 
     67 H67        17.6549  -26.6649  -45.6276 H         1 UNK         0.0849 
     68 H68        17.6431  -26.9983  -43.9219 H         1 UNK         0.0849 
     69 H69        14.2498  -28.5665  -43.7367 H         1 UNK         0.0865 
     70 H70        15.4493  -27.8356  -42.6980 H         1 UNK         0.0865 
     71 H71        16.3322  -29.9484  -41.9373 H         1 UNK         0.1346 
     72 H72        18.6056  -32.3696  -44.6494 H         1 UNK         0.1412 
     73 H73        16.3069  -29.0865  -46.1402 H         1 UNK         0.1426 
     74 H74        17.9138  -32.1124  -47.1470 H         1 UNK         0.0716 
     75 H75        17.4240  -30.5281  -47.6908 H         1 UNK         0.0716 
     76 H76        18.8254  -28.5038  -46.4408 H         1 UNK         0.0695 
     77 H77        19.5207  -28.3777  -48.0272 H         1 UNK         0.0695 
     78 H78        21.7938  -28.2303  -47.0889 H         1 UNK         0.0983 
     79 H79        19.7727  -26.3300  -46.5902 H         1 UNK         0.3095 
     80 H80        21.5064  -23.7623  -45.0135 H         1 UNK         0.0454 
     81 H81        20.9218  -22.3949  -47.0066 H         1 UNK         0.0851 
     82 H82        20.7772  -23.8502  -47.9933 H         1 UNK         0.0851 
     83 H83        22.3362  -23.3810  -47.3317 H         1 UNK         0.0851 
     84 H84        18.9423  -24.0176  -46.3416 H         1 UNK         0.2976 
     85 H85        20.1587  -27.3253  -44.0704 H         1 UNK         0.3116 
     86 H86        21.2901  -29.5526  -42.5315 H         1 UNK         0.0646 
     87 H87        19.9551  -28.6036  -40.6973 H         1 UNK         0.0847 
     88 H88        18.9475  -28.7146  -42.1287 H         1 UNK         0.0847 
     89 H89        19.6085  -27.1575  -41.6351 H         1 UNK         0.0847 
     90 H90        23.3344  -28.1720  -43.7006 H         1 UNK         0.3040 
     91 H91        24.5034  -26.0270  -42.2778 H         1 UNK         0.1015 
     92 H92        25.2183  -26.6986  -44.5508 H         1 UNK         0.0786 
     93 H93        25.8079  -28.2470  -43.9473 H         1 UNK         0.0786 
     94 H94        26.5947  -26.7514  -43.4604 H         1 UNK         0.0786 
     95 H95        24.9694  -26.0332  -40.1731 H         1 UNK         0.3172 
     96 H96        25.5312  -26.5576  -38.1022 H         1 UNK         0.0595 
     97 H97        27.5240  -28.5555  -39.3010 H         1 UNK         0.0839 
     98 H98        27.5914  -27.8507  -37.6933 H         1 UNK         0.0839 
     99 H99        27.8228  -26.8292  -39.1006 H         1 UNK         0.0839 
    100 H100       23.3562  -28.0888  -39.4091 H         1 UNK         0.2998 
    101 H101       21.8901  -29.6898  -39.1061 H         1 UNK         0.0822 
    102 H102       23.0536  -30.1185  -36.3052 H         1 UNK         0.0787 
    103 H103       21.8565  -28.8938  -36.7270 H         1 UNK         0.0787 
    104 H104       21.4582  -30.5974  -36.8623 H         1 UNK         0.0787 
    105 H105       24.5630  -30.3833  -40.2601 H         1 UNK         0.3055 
    106 H106       25.3159  -33.0041  -39.5338 H         1 UNK         0.1106 
    107 H107       26.5873  -32.9485  -41.6833 H         1 UNK         0.0828 
    108 H108       25.6905  -31.5246  -42.1936 H         1 UNK         0.0828 
    109 H109       26.7725  -31.4411  -40.8036 H         1 UNK         0.0828 
    110 H110       22.5186  -32.0573  -41.2634 H         1 UNK         0.2931 
    111 H111       22.0989  -34.4762  -42.7686 H         1 UNK         0.0412 
    112 H112       21.8542  -33.9195  -39.3263 H         1 UNK         0.3472 
    113 H113       20.8805  -35.3364  -39.0069 H         1 UNK         0.3472 
    114 H114       21.0433  -32.3847  -43.4902 H         1 UNK         0.0970 
    115 H115       19.8657  -33.6273  -43.1937 H         1 UNK         0.0970 
    116 H116       17.8072  -33.1775  -42.2213 H         1 UNK         0.0612 
    117 H117       17.3650  -31.9104  -41.1127 H         1 UNK         0.0612 
@<TRIPOS>BOND
     1    1    2 1    
     2    1   62 1    
     3    1   63 1    
     4    1   64 1    
     5    2    3 2    
     6    2    4 am   BACKBONE|DICT|INTERRES
     7    4    5 1    
     8    4   65 1    
     9    5    6 1    
    10    5   25 1    
    11    5   66 1    
    12    6    7 1    
    13    6   67 1    
    14    6   68 1    
    15    7    8 1    
    16    8    9 1    
    17    8   69 1    
    18    8   70 1    
    19    9   10 ar   
    20    9   14 ar   
    21   10   11 ar   
    22   10   71 1    
    23   11   12 ar   
    24   11   61 1    
    25   12   13 ar   
    26   12   72 1    
    27   13   14 ar   
    28   13   15 1    
    29   14   73 1    
    30   15   16 1    
    31   15   74 1    
    32   15   75 1    
    33   16   17 1    
    34   17   18 1    
    35   17   76 1    
    36   17   77 1    
    37   18   19 1    
    38   18   27 1    
    39   18   78 1    
    40   19   20 am   BACKBONE|DICT|INTERRES
    41   19   79 1    
    42   20   21 2    
    43   20   22 1    
    44   22   23 1    
    45   22   24 1    
    46   22   80 1    
    47   23   81 1    
    48   23   82 1    
    49   23   83 1    
    50   24   25 am   BACKBONE|DICT|INTERRES
    51   24   84 1    
    52   25   26 2    
    53   27   28 2    
    54   27   29 am   BACKBONE|DICT|INTERRES
    55   29   30 1    
    56   29   85 1    
    57   30   31 1    
    58   30   32 1    
    59   30   86 1    
    60   31   87 1    
    61   31   88 1    
    62   31   89 1    
    63   32   33 2    
    64   32   34 am   BACKBONE|DICT|INTERRES
    65   34   35 1    
    66   34   90 1    
    67   35   36 1    
    68   35   37 1    
    69   35   91 1    
    70   36   92 1    
    71   36   93 1    
    72   36   94 1    
    73   37   38 2    
    74   37   39 am   BACKBONE|DICT|INTERRES
    75   39   40 1    
    76   39   95 1    
    77   40   41 1    
    78   40   42 1    
    79   40   96 1    
    80   41   97 1    
    81   41   98 1    
    82   41   99 1    
    83   42   43 2    
    84   42   44 am   BACKBONE|DICT|INTERRES
    85   44   45 1    
    86   44  100 1    
    87   45   46 1    
    88   45   47 1    
    89   45  101 1    
    90   46  102 1    
    91   46  103 1    
    92   46  104 1    
    93   47   48 2    
    94   47   49 am   BACKBONE|DICT|INTERRES
    95   49   50 1    
    96   49  105 1    
    97   50   51 1    
    98   50   52 1    
    99   50  106 1    
   100   51  107 1    
   101   51  108 1    
   102   51  109 1    
   103   52   53 2    
   104   52   54 am   BACKBONE|DICT|INTERRES
   105   54   55 1    
   106   54  110 1    
   107   55   56 1    
   108   55   59 1    
   109   55  111 1    
   110   56   57 am   BACKBONE|DICT|INTERRES
   111   56   58 2    
   112   57  112 1    
   113   57  113 1    
   114   59   60 1    
   115   59  114 1    
   116   59  115 1    
   117   60   61 1    
   118   61  116 1    
   119   61  117 1    
@<TRIPOS>SUBSTRUCTURE
     1 UNK         1 GROUP             0       ****    0 ROOT    
