@<TRIPOS>MOLECULE
3R8
117   119    1
SMALL
USER_CHARGES


@<TRIPOS>ATOM
      1 CA         19.5645  -27.9544  -42.5705 C.3       0 UNK        -0.2013 
      2 C          19.0335  -26.5798  -42.9391 C.2       0 UNK         0.4866 
      3 O          19.6828  -25.5799  -42.6384 O.2       0 UNK        -0.5176 
      4 N          17.8659  -26.5196  -43.5953 N.am      1 UNK        -0.4884 
      5 CA         17.1961  -25.2755  -44.0105 C.3       1 UNK         0.0853 
      6 C6         15.7693  -25.5318  -44.5512 C.3       10 UNK        -0.0849 
      7 S7         14.7077  -26.3834  -43.3364 S.3       10 UNK        -0.2776 
      8 C8         14.2964  -27.9271  -44.2115 C.3       10 UNK         0.0316 
      9 C9         15.4530  -28.9188  -44.2347 C.ar      10 UNK        -0.0863 
     10 C10        15.7749  -29.6411  -43.0818 C.ar      10 UNK        -0.1009 
     11 C11        16.7716  -30.6219  -43.1085 C.ar      10 UNK        -0.0712 
     12 C12        17.4614  -30.8659  -44.3005 C.ar      10 UNK        -0.0894 
     13 C13        17.1582  -30.1427  -45.4583 C.ar      10 UNK        -0.0745 
     14 C14        16.1541  -29.1690  -45.4189 C.ar      10 UNK        -0.0972 
     15 C15        17.8653  -30.4625  -46.7691 C.3       10 UNK         0.0209 
     16 S16        18.9290  -29.1032  -47.3422 S.3       10 UNK        -0.2568 
     17 C17        20.3470  -29.2297  -46.2016 C.3       10 UNK        -0.0983 
     18 CA         21.4034  -28.1036  -46.4157 C.3       3 UNK         0.0876 
     19 N          20.8099  -26.7718  -46.3042 N.am      3 UNK        -0.4424 
     20 C          20.5058  -25.9542  -47.3193 C.2       2 UNK         0.4918 
     21 O          20.8281  -26.1541  -48.4916 O.2       2 UNK        -0.4875 
     22 CA         19.6183  -24.7535  -46.9510 C.3       2 UNK         0.0481 
     23 CB         18.9312  -24.1044  -48.1683 C.3       2 UNK        -0.1831 
     24 N          18.6197  -25.2139  -45.9876 N.am      2 UNK        -0.4498 
     25 C          18.0245  -24.4814  -45.0418 C.2       1 UNK         0.5027 
     26 O          18.1316  -23.2584  -44.9417 O.2       1 UNK        -0.4969 
     27 C          22.5965  -28.1785  -45.4405 C.2       3 UNK         0.5005 
     28 O          23.2563  -27.1614  -45.2059 O.2       3 UNK        -0.5279 
     29 N          22.8642  -29.3651  -44.8776 N.am      4 UNK        -0.4463 
     30 CA         23.9342  -29.6289  -43.9118 C.3       4 UNK         0.0283 
     31 CB         24.2499  -31.1353  -43.9165 C.3       4 UNK        -0.1875 
     32 C          23.5979  -29.0874  -42.5071 C.2       4 UNK         0.4949 
     33 O          23.3880  -29.8600  -41.5690 O.2       4 UNK        -0.5039 
     34 N          23.5443  -27.7546  -42.3963 N.am      5 UNK        -0.4663 
     35 CA         23.4077  -27.0060  -41.1448 C.3       5 UNK         0.0242 
     36 CB         23.2330  -25.5151  -41.4728 C.3       5 UNK        -0.1982 
     37 C          24.6256  -27.2173  -40.2282 C.2       5 UNK         0.5017 
     38 O          25.7261  -27.4692  -40.7247 O.2       5 UNK        -0.5012 
     39 N          24.4025  -27.1497  -38.9075 N.am      6 UNK        -0.4439 
     40 CA         25.3412  -27.4377  -37.8052 C.3       6 UNK         0.0297 
     41 CB         26.5898  -26.5351  -37.8562 C.3       6 UNK        -0.2006 
     42 C          25.7305  -28.9257  -37.6738 C.2       6 UNK         0.4892 
     43 O          25.9117  -29.4013  -36.5533 O.2       6 UNK        -0.5089 
     44 N          25.7891  -29.6467  -38.8002 N.am      7 UNK        -0.4243 
     45 CA         25.9383  -31.1007  -38.9001 C.3       7 UNK         0.0196 
     46 CB         26.5448  -31.4330  -40.2734 C.3       7 UNK        -0.2007 
     47 C          24.6148  -31.8649  -38.6788 C.2       7 UNK         0.5020 
     48 O          24.5995  -33.0876  -38.8251 O.2       7 UNK        -0.5147 
     49 N          23.5331  -31.1443  -38.3424 N.am      8 UNK        -0.4734 
     50 CA         22.1903  -31.6383  -38.0110 C.3       8 UNK         0.0238 
     51 CB         22.2154  -32.4208  -36.6799 C.3       8 UNK        -0.1912 
     52 C          21.5306  -32.4251  -39.1586 C.2       8 UNK         0.5038 
     53 O          20.9112  -33.4629  -38.9153 O.2       8 UNK        -0.5046 
     54 N          21.6825  -31.9104  -40.3861 N.am      9 UNK        -0.4200 
     55 CA         21.1558  -32.4761  -41.6391 C.3       9 UNK         0.0839 
     56 C          21.8952  -33.7607  -42.1218 C.2       9 UNK         0.5513 
     57 N          23.0153  -34.1537  -41.5252 N.am      9 UNK        -0.7519 
     58 O          21.4662  -34.3947  -43.0821 O.2       9 UNK        -0.4960 
     59 C59        19.6070  -32.6406  -41.6564 C.3       10 UNK        -0.0876 
     60 S60        18.7102  -31.1230  -41.1761 S.3       10 UNK        -0.2414 
     61 C61        17.0575  -31.4505  -41.8626 C.3       10 UNK         0.0169 
     62 H62        18.9698  -28.7483  -43.0181 H         1 UNK         0.0903 
     63 H63        20.5937  -28.0682  -42.9077 H         1 UNK         0.0903 
     64 H64        19.5467  -28.0851  -41.4890 H         1 UNK         0.0903 
     65 H65        17.3506  -27.3712  -43.7787 H         1 UNK         0.3096 
     66 H66        17.1119  -24.6443  -43.1227 H         1 UNK         0.1121 
     67 H67        15.8050  -26.1068  -45.4784 H         1 UNK         0.0849 
     68 H68        15.2848  -24.5862  -44.8033 H         1 UNK         0.0849 
     69 H69        13.4444  -28.3910  -43.7121 H         1 UNK         0.0865 
     70 H70        13.9568  -27.6970  -45.2227 H         1 UNK         0.0865 
     71 H71        15.2242  -29.4573  -42.1689 H         1 UNK         0.1346 
     72 H72        18.2216  -31.6334  -44.3306 H         1 UNK         0.1412 
     73 H73        15.9016  -28.6292  -46.3218 H         1 UNK         0.1426 
     74 H74        18.4590  -31.3740  -46.6848 H         1 UNK         0.0716 
     75 H75        17.1133  -30.6610  -47.5340 H         1 UNK         0.0716 
     76 H76        20.7927  -30.2138  -46.3554 H         1 UNK         0.0695 
     77 H77        19.9652  -29.2125  -45.1804 H         1 UNK         0.0695 
     78 H78        21.8327  -28.2280  -47.4123 H         1 UNK         0.0983 
     79 H79        20.6116  -26.4608  -45.3646 H         1 UNK         0.3095 
     80 H80        20.2636  -24.0135  -46.4735 H         1 UNK         0.0454 
     81 H81        18.3197  -23.2518  -47.8732 H         1 UNK         0.0851 
     82 H82        18.2883  -24.8138  -48.6905 H         1 UNK         0.0851 
     83 H83        19.6678  -23.7395  -48.8851 H         1 UNK         0.0851 
     84 H84        18.4542  -26.2120  -45.9865 H         1 UNK         0.2976 
     85 H85        22.2702  -30.1488  -45.1056 H         1 UNK         0.3116 
     86 H86        24.8365  -29.1105  -44.2440 H         1 UNK         0.0646 
     87 H87        23.3852  -31.7344  -43.6386 H         1 UNK         0.0847 
     88 H88        25.0499  -31.3729  -43.2163 H         1 UNK         0.0847 
     89 H89        24.5808  -31.4665  -44.9009 H         1 UNK         0.0847 
     90 H90        23.6900  -27.2146  -43.2436 H         1 UNK         0.3040 
     91 H91        22.5120  -27.3678  -40.6352 H         1 UNK         0.1015 
     92 H92        24.1072  -25.1102  -41.9846 H         1 UNK         0.0786 
     93 H93        23.0836  -24.9276  -40.5660 H         1 UNK         0.0786 
     94 H94        22.3653  -25.3486  -42.1114 H         1 UNK         0.0786 
     95 H95        23.4611  -26.9324  -38.6078 H         1 UNK         0.3172 
     96 H96        24.7988  -27.1832  -36.8931 H         1 UNK         0.0595 
     97 H97        27.2281  -26.7616  -38.7105 H         1 UNK         0.0839 
     98 H98        27.1976  -26.6662  -36.9600 H         1 UNK         0.0839 
     99 H99        26.3167  -25.4813  -37.9106 H         1 UNK         0.0839 
    100 H100       25.6724  -29.1431  -39.6740 H         1 UNK         0.2998 
    101 H101       26.6338  -31.4357  -38.1278 H         1 UNK         0.0822 
    102 H102       27.5099  -30.9447  -40.4095 H         1 UNK         0.0787 
    103 H103       26.7067  -32.5057  -40.3876 H         1 UNK         0.0787 
    104 H104       25.8899  -31.1116  -41.0823 H         1 UNK         0.0787 
    105 H105       23.6549  -30.1435  -38.2926 H         1 UNK         0.3055 
    106 H106       21.5643  -30.7572  -37.8599 H         1 UNK         0.1106 
    107 H107       21.2062  -32.6851  -36.3617 H         1 UNK         0.0828 
    108 H108       22.7817  -33.3487  -36.7666 H         1 UNK         0.0828 
    109 H109       22.6609  -31.8295  -35.8800 H         1 UNK         0.0828 
    110 H110       22.2649  -31.0873  -40.5087 H         1 UNK         0.2931 
    111 H111       21.3898  -31.7245  -42.3929 H         1 UNK         0.0412 
    112 H112       23.3760  -33.6570  -40.7220 H         1 UNK         0.3472 
    113 H113       23.4870  -34.9793  -41.8585 H         1 UNK         0.3472 
    114 H114       19.2968  -33.4492  -40.9930 H         1 UNK         0.0970 
    115 H115       19.2794  -32.9330  -42.6549 H         1 UNK         0.0970 
    116 H116       16.9436  -32.5101  -42.0950 H         1 UNK         0.0612 
    117 H117       16.3220  -31.2348  -41.0862 H         1 UNK         0.0612 
@<TRIPOS>BOND
     1    1    2 1    
     2    1   62 1    
     3    1   63 1    
     4    1   64 1    
     5    2    3 2    
     6    2    4 am   BACKBONE|DICT|INTERRES
     7    4    5 1    
     8    4   65 1    
     9    5    6 1    
    10    5   25 1    
    11    5   66 1    
    12    6    7 1    
    13    6   67 1    
    14    6   68 1    
    15    7    8 1    
    16    8    9 1    
    17    8   69 1    
    18    8   70 1    
    19    9   10 ar   
    20    9   14 ar   
    21   10   11 ar   
    22   10   71 1    
    23   11   12 ar   
    24   11   61 1    
    25   12   13 ar   
    26   12   72 1    
    27   13   14 ar   
    28   13   15 1    
    29   14   73 1    
    30   15   16 1    
    31   15   74 1    
    32   15   75 1    
    33   16   17 1    
    34   17   18 1    
    35   17   76 1    
    36   17   77 1    
    37   18   19 1    
    38   18   27 1    
    39   18   78 1    
    40   19   20 am   BACKBONE|DICT|INTERRES
    41   19   79 1    
    42   20   21 2    
    43   20   22 1    
    44   22   23 1    
    45   22   24 1    
    46   22   80 1    
    47   23   81 1    
    48   23   82 1    
    49   23   83 1    
    50   24   25 am   BACKBONE|DICT|INTERRES
    51   24   84 1    
    52   25   26 2    
    53   27   28 2    
    54   27   29 am   BACKBONE|DICT|INTERRES
    55   29   30 1    
    56   29   85 1    
    57   30   31 1    
    58   30   32 1    
    59   30   86 1    
    60   31   87 1    
    61   31   88 1    
    62   31   89 1    
    63   32   33 2    
    64   32   34 am   BACKBONE|DICT|INTERRES
    65   34   35 1    
    66   34   90 1    
    67   35   36 1    
    68   35   37 1    
    69   35   91 1    
    70   36   92 1    
    71   36   93 1    
    72   36   94 1    
    73   37   38 2    
    74   37   39 am   BACKBONE|DICT|INTERRES
    75   39   40 1    
    76   39   95 1    
    77   40   41 1    
    78   40   42 1    
    79   40   96 1    
    80   41   97 1    
    81   41   98 1    
    82   41   99 1    
    83   42   43 2    
    84   42   44 am   BACKBONE|DICT|INTERRES
    85   44   45 1    
    86   44  100 1    
    87   45   46 1    
    88   45   47 1    
    89   45  101 1    
    90   46  102 1    
    91   46  103 1    
    92   46  104 1    
    93   47   48 2    
    94   47   49 am   BACKBONE|DICT|INTERRES
    95   49   50 1    
    96   49  105 1    
    97   50   51 1    
    98   50   52 1    
    99   50  106 1    
   100   51  107 1    
   101   51  108 1    
   102   51  109 1    
   103   52   53 2    
   104   52   54 am   BACKBONE|DICT|INTERRES
   105   54   55 1    
   106   54  110 1    
   107   55   56 1    
   108   55   59 1    
   109   55  111 1    
   110   56   57 am   BACKBONE|DICT|INTERRES
   111   56   58 2    
   112   57  112 1    
   113   57  113 1    
   114   59   60 1    
   115   59  114 1    
   116   59  115 1    
   117   60   61 1    
   118   61  116 1    
   119   61  117 1    
@<TRIPOS>SUBSTRUCTURE
     1 UNK         1 GROUP             0       ****    0 ROOT    
