@<TRIPOS>MOLECULE
3R8
117   119    1
SMALL
USER_CHARGES


@<TRIPOS>ATOM
      1 CA         16.6131  -22.6034  -48.3473 C.3       0 UNK        -0.2013 
      2 C          17.1414  -23.7186  -47.4561 C.2       0 UNK         0.4866 
      3 O          17.2555  -23.5166  -46.2474 O.2       0 UNK        -0.5176 
      4 N          17.4586  -24.8743  -48.0604 N.am      1 UNK        -0.4884 
      5 CA         17.9930  -26.1103  -47.4631 C.3       1 UNK         0.0853 
      6 C6         16.8973  -27.0374  -46.8446 C.3       10 UNK        -0.0849 
      7 S7         16.1365  -26.4518  -45.2903 S.3       10 UNK        -0.2776 
      8 C8         15.0017  -27.8189  -44.8950 C.3       10 UNK         0.0316 
      9 C9         15.6722  -28.9054  -44.0644 C.ar      10 UNK        -0.0863 
     10 C10        16.0321  -30.1267  -44.6432 C.ar      10 UNK        -0.1009 
     11 C11        16.5942  -31.1435  -43.8634 C.ar      10 UNK        -0.0712 
     12 C12        16.7922  -30.9320  -42.4951 C.ar      10 UNK        -0.0894 
     13 C13        16.4458  -29.7122  -41.9051 C.ar      10 UNK        -0.0745 
     14 C14        15.8875  -28.7035  -42.6970 C.ar      10 UNK        -0.0972 
     15 C15        16.6177  -29.4993  -40.4048 C.3       10 UNK         0.0209 
     16 S16        18.3227  -29.7754  -39.8203 S.3       10 UNK        -0.2568 
     17 C17        19.2306  -28.3857  -40.5809 C.3       10 UNK        -0.0983 
     18 CA         20.4703  -28.8627  -41.3919 C.3       3 UNK         0.0876 
     19 N          20.7976  -27.9480  -42.4848 N.am      3 UNK        -0.4424 
     20 C          20.1687  -27.9502  -43.6618 C.2       2 UNK         0.4918 
     21 O          19.2868  -28.7584  -43.9587 O.2       2 UNK        -0.4875 
     22 CA         20.5743  -26.8781  -44.6828 C.3       2 UNK         0.0481 
     23 CB         21.9112  -27.2217  -45.3663 C.3       2 UNK        -0.1831 
     24 N          19.4923  -26.8229  -45.6578 N.am      2 UNK        -0.4498 
     25 C          19.2655  -25.9061  -46.6009 C.2       1 UNK         0.5027 
     26 O          20.0317  -24.9675  -46.8359 O.2       1 UNK        -0.4969 
     27 C          21.7222  -29.1012  -40.5270 C.2       3 UNK         0.5005 
     28 O          22.8295  -28.7147  -40.9173 O.2       3 UNK        -0.5279 
     29 N          21.5246  -29.7309  -39.3606 N.am      4 UNK        -0.4463 
     30 CA         22.5513  -30.1509  -38.4003 C.3       4 UNK         0.0283 
     31 CB         21.8761  -30.8597  -37.2162 C.3       4 UNK        -0.1875 
     32 C          23.4701  -29.0249  -37.8957 C.2       4 UNK         0.4949 
     33 O          24.6179  -29.3031  -37.5527 O.2       4 UNK        -0.5039 
     34 N          22.9884  -27.7740  -37.9211 N.am      5 UNK        -0.4663 
     35 CA         23.7749  -26.5646  -37.6504 C.3       5 UNK         0.0242 
     36 CB         22.8341  -25.3494  -37.6243 C.3       5 UNK        -0.1982 
     37 C          24.9242  -26.3338  -38.6535 C.2       5 UNK         0.5017 
     38 O          25.9196  -25.7073  -38.2896 O.2       5 UNK        -0.5012 
     39 N          24.7765  -26.8595  -39.8775 N.am      6 UNK        -0.4439 
     40 CA         25.7967  -26.8837  -40.9277 C.3       6 UNK         0.0297 
     41 CB         25.1572  -26.3832  -42.2361 C.3       6 UNK        -0.2006 
     42 C          26.3863  -28.2964  -41.1171 C.2       6 UNK         0.4892 
     43 O          27.1558  -28.4957  -42.0578 O.2       6 UNK        -0.5089 
     44 N          26.0022  -29.2500  -40.2503 N.am      7 UNK        -0.4243 
     45 CA         26.2948  -30.6888  -40.3048 C.3       7 UNK         0.0196 
     46 CB         27.7921  -30.9521  -40.0383 C.3       7 UNK        -0.2007 
     47 C          25.7841  -31.3593  -41.5979 C.2       7 UNK         0.5020 
     48 O          26.4352  -32.2683  -42.1165 O.2       7 UNK        -0.5147 
     49 N          24.6393  -30.8875  -42.1060 N.am      8 UNK        -0.4734 
     50 CA         24.0537  -31.2953  -43.3819 C.3       8 UNK         0.0238 
     51 CB         23.8921  -30.0313  -44.2415 C.3       8 UNK        -0.1912 
     52 C          22.6883  -31.9648  -43.1770 C.2       8 UNK         0.5038 
     53 O          22.0873  -31.8345  -42.1093 O.2       8 UNK        -0.5046 
     54 N          22.2039  -32.6273  -44.2354 N.am      9 UNK        -0.4200 
     55 CA         20.8505  -33.1988  -44.3470 C.3       9 UNK         0.0839 
     56 C          20.5483  -34.3929  -43.3888 C.2       9 UNK         0.5513 
     57 N          21.5549  -35.0588  -42.8356 N.am      9 UNK        -0.7519 
     58 O          19.3937  -34.7448  -43.1632 O.2       9 UNK        -0.4960 
     59 C59        19.7578  -32.0876  -44.3332 C.3       10 UNK        -0.0876 
     60 S60        18.4304  -32.3747  -45.5523 S.3       10 UNK        -0.2414 
     61 C61        16.9549  -32.4831  -44.4920 C.3       10 UNK         0.0169 
     62 H62        16.5519  -22.9067  -49.3924 H         1 UNK         0.0903 
     63 H63        15.6164  -22.3053  -48.0231 H         1 UNK         0.0903 
     64 H64        17.2659  -21.7330  -48.2852 H         1 UNK         0.0903 
     65 H65        17.3549  -24.9180  -49.0649 H         1 UNK         0.3096 
     66 H66        18.3766  -26.6595  -48.3249 H         1 UNK         0.1121 
     67 H67        16.0967  -27.1717  -47.5736 H         1 UNK         0.0849 
     68 H68        17.2958  -28.0400  -46.6776 H         1 UNK         0.0849 
     69 H69        14.1562  -27.4163  -44.3351 H         1 UNK         0.0865 
     70 H70        14.5809  -28.2318  -45.8131 H         1 UNK         0.0865 
     71 H71        15.8673  -30.2939  -45.6988 H         1 UNK         0.1346 
     72 H72        17.2133  -31.7185  -41.8840 H         1 UNK         0.1412 
     73 H73        15.6028  -27.7615  -42.2483 H         1 UNK         0.1426 
     74 H74        15.9554  -30.1887  -39.8797 H         1 UNK         0.0716 
     75 H75        16.3053  -28.4953  -40.1134 H         1 UNK         0.0716 
     76 H76        18.5383  -27.8545  -41.2359 H         1 UNK         0.0695 
     77 H77        19.5070  -27.6644  -39.8095 H         1 UNK         0.0695 
     78 H78        20.2434  -29.8337  -41.8393 H         1 UNK         0.0983 
     79 H79        21.5719  -27.3230  -42.3086 H         1 UNK         0.3095 
     80 H80        20.6459  -25.9126  -44.1787 H         1 UNK         0.0454 
     81 H81        22.7310  -27.2045  -44.6486 H         1 UNK         0.0851 
     82 H82        22.1633  -26.5028  -46.1454 H         1 UNK         0.0851 
     83 H83        21.8868  -28.2119  -45.8227 H         1 UNK         0.0851 
     84 H84        18.8017  -27.5497  -45.4983 H         1 UNK         0.2976 
     85 H85        20.5716  -29.9947  -39.1415 H         1 UNK         0.3116 
     86 H86        23.1856  -30.8761  -38.9140 H         1 UNK         0.0646 
     87 H87        22.6168  -31.2096  -36.4955 H         1 UNK         0.0847 
     88 H88        21.1926  -30.1962  -36.6848 H         1 UNK         0.0847 
     89 H89        21.3112  -31.7323  -37.5444 H         1 UNK         0.0847 
     90 H90        22.0307  -27.6403  -38.2113 H         1 UNK         0.3040 
     91 H91        24.2262  -26.6744  -36.6617 H         1 UNK         0.1015 
     92 H92        23.3844  -24.4347  -37.3985 H         1 UNK         0.0786 
     93 H93        22.0647  -25.4585  -36.8597 H         1 UNK         0.0786 
     94 H94        22.3374  -25.2019  -38.5843 H         1 UNK         0.0786 
     95 H95        23.9311  -27.3862  -40.0861 H         1 UNK         0.3172 
     96 H96        26.6238  -26.2184  -40.6727 H         1 UNK         0.0595 
     97 H97        24.3642  -27.0501  -42.5763 H         1 UNK         0.0839 
     98 H98        25.8957  -26.3216  -43.0364 H         1 UNK         0.0839 
     99 H99        24.7308  -25.3875  -42.1145 H         1 UNK         0.0839 
    100 H100       25.4088  -28.9687  -39.4793 H         1 UNK         0.2998 
    101 H101       25.7322  -31.1446  -39.4888 H         1 UNK         0.0822 
    102 H102       27.9913  -32.0202  -39.9436 H         1 UNK         0.0787 
    103 H103       28.1181  -30.4801  -39.1114 H         1 UNK         0.0787 
    104 H104       28.4197  -30.5749  -40.8463 H         1 UNK         0.0787 
    105 H105       24.1217  -30.1794  -41.5942 H         1 UNK         0.3055 
    106 H106       24.7073  -31.9995  -43.9018 H         1 UNK         0.1106 
    107 H107       23.2195  -29.3195  -43.7634 H         1 UNK         0.0828 
    108 H108       24.8492  -29.5325  -44.3971 H         1 UNK         0.0828 
    109 H109       23.4836  -30.2633  -45.2257 H         1 UNK         0.0828 
    110 H110       22.7750  -32.7072  -45.0645 H         1 UNK         0.2931 
    111 H111       20.8502  -33.6495  -45.3401 H         1 UNK         0.0412 
    112 H112       21.3563  -35.8354  -42.2244 H         1 UNK         0.3472 
    113 H113       22.5081  -34.7853  -43.0126 H         1 UNK         0.3472 
    114 H114       19.3515  -31.9433  -43.3310 H         1 UNK         0.0970 
    115 H115       20.1963  -31.1260  -44.6015 H         1 UNK         0.0970 
    116 H116       16.1159  -32.8312  -45.0958 H         1 UNK         0.0612 
    117 H117       17.1155  -33.2437  -43.7266 H         1 UNK         0.0612 
@<TRIPOS>BOND
     1    1    2 1    
     2    1   62 1    
     3    1   63 1    
     4    1   64 1    
     5    2    3 2    
     6    2    4 am   BACKBONE|DICT|INTERRES
     7    4    5 1    
     8    4   65 1    
     9    5    6 1    
    10    5   25 1    
    11    5   66 1    
    12    6    7 1    
    13    6   67 1    
    14    6   68 1    
    15    7    8 1    
    16    8    9 1    
    17    8   69 1    
    18    8   70 1    
    19    9   10 ar   
    20    9   14 ar   
    21   10   11 ar   
    22   10   71 1    
    23   11   12 ar   
    24   11   61 1    
    25   12   13 ar   
    26   12   72 1    
    27   13   14 ar   
    28   13   15 1    
    29   14   73 1    
    30   15   16 1    
    31   15   74 1    
    32   15   75 1    
    33   16   17 1    
    34   17   18 1    
    35   17   76 1    
    36   17   77 1    
    37   18   19 1    
    38   18   27 1    
    39   18   78 1    
    40   19   20 am   BACKBONE|DICT|INTERRES
    41   19   79 1    
    42   20   21 2    
    43   20   22 1    
    44   22   23 1    
    45   22   24 1    
    46   22   80 1    
    47   23   81 1    
    48   23   82 1    
    49   23   83 1    
    50   24   25 am   BACKBONE|DICT|INTERRES
    51   24   84 1    
    52   25   26 2    
    53   27   28 2    
    54   27   29 am   BACKBONE|DICT|INTERRES
    55   29   30 1    
    56   29   85 1    
    57   30   31 1    
    58   30   32 1    
    59   30   86 1    
    60   31   87 1    
    61   31   88 1    
    62   31   89 1    
    63   32   33 2    
    64   32   34 am   BACKBONE|DICT|INTERRES
    65   34   35 1    
    66   34   90 1    
    67   35   36 1    
    68   35   37 1    
    69   35   91 1    
    70   36   92 1    
    71   36   93 1    
    72   36   94 1    
    73   37   38 2    
    74   37   39 am   BACKBONE|DICT|INTERRES
    75   39   40 1    
    76   39   95 1    
    77   40   41 1    
    78   40   42 1    
    79   40   96 1    
    80   41   97 1    
    81   41   98 1    
    82   41   99 1    
    83   42   43 2    
    84   42   44 am   BACKBONE|DICT|INTERRES
    85   44   45 1    
    86   44  100 1    
    87   45   46 1    
    88   45   47 1    
    89   45  101 1    
    90   46  102 1    
    91   46  103 1    
    92   46  104 1    
    93   47   48 2    
    94   47   49 am   BACKBONE|DICT|INTERRES
    95   49   50 1    
    96   49  105 1    
    97   50   51 1    
    98   50   52 1    
    99   50  106 1    
   100   51  107 1    
   101   51  108 1    
   102   51  109 1    
   103   52   53 2    
   104   52   54 am   BACKBONE|DICT|INTERRES
   105   54   55 1    
   106   54  110 1    
   107   55   56 1    
   108   55   59 1    
   109   55  111 1    
   110   56   57 am   BACKBONE|DICT|INTERRES
   111   56   58 2    
   112   57  112 1    
   113   57  113 1    
   114   59   60 1    
   115   59  114 1    
   116   59  115 1    
   117   60   61 1    
   118   61  116 1    
   119   61  117 1    
@<TRIPOS>SUBSTRUCTURE
     1 UNK         1 GROUP             0       ****    0 ROOT    
