@<TRIPOS>MOLECULE
3R8
117   119    1
SMALL
USER_CHARGES


@<TRIPOS>ATOM
      1 CA         18.8414  -28.9762  -40.5260 C.3       0 UNK        -0.2013 
      2 C          18.3736  -28.2861  -41.7968 C.2       0 UNK         0.4866 
      3 O          19.2043  -27.8959  -42.6160 O.2       0 UNK        -0.5176 
      4 N          17.0525  -28.1130  -41.9562 N.am      1 UNK        -0.4884 
      5 CA         16.3954  -27.3872  -43.0549 C.3       1 UNK         0.0853 
      6 C6         16.5412  -28.0928  -44.4349 C.3       10 UNK        -0.0849 
      7 S7         15.7686  -29.7443  -44.4551 S.3       10 UNK        -0.2776 
      8 C8         16.2645  -30.3479  -46.1022 C.3       10 UNK         0.0316 
      9 C9         17.7552  -30.6489  -46.1699 C.ar      10 UNK        -0.0863 
     10 C10        18.2603  -31.8138  -45.5867 C.ar      10 UNK        -0.1009 
     11 C11        19.6307  -32.0882  -45.6187 C.ar      10 UNK        -0.0712 
     12 C12        20.4980  -31.1907  -46.2485 C.ar      10 UNK        -0.0894 
     13 C13        20.0034  -30.0300  -46.8516 C.ar      10 UNK        -0.0745 
     14 C14        18.6295  -29.7688  -46.8148 C.ar      10 UNK        -0.0972 
     15 C15        20.9508  -29.0738  -47.5646 C.3       10 UNK         0.0209 
     16 S16        20.8844  -27.3843  -46.8896 S.3       10 UNK        -0.2568 
     17 C17        21.6358  -27.6180  -45.2451 C.3       10 UNK        -0.0983 
     18 CA         21.6820  -26.2831  -44.4588 C.3       3 UNK         0.0876 
     19 N          20.3403  -25.7934  -44.1565 N.am      3 UNK        -0.4424 
     20 C          19.9013  -24.5444  -44.3608 C.2       2 UNK         0.4918 
     21 O          20.6299  -23.6288  -44.7458 O.2       2 UNK        -0.4875 
     22 CA         18.4053  -24.2666  -44.1105 C.3       2 UNK         0.0481 
     23 CB         17.8026  -23.3593  -45.1983 C.3       2 UNK        -0.1831 
     24 N          17.6488  -25.5186  -44.0588 N.am      2 UNK        -0.4498 
     25 C          16.8680  -25.9151  -43.0468 C.2       1 UNK         0.5027 
     26 O          16.5523  -25.1920  -42.0994 O.2       1 UNK        -0.4969 
     27 C          22.4531  -26.3991  -43.1357 C.2       3 UNK         0.5005 
     28 O          22.7266  -27.5049  -42.6638 O.2       3 UNK        -0.5279 
     29 N          22.8086  -25.2424  -42.5578 N.am      4 UNK        -0.4463 
     30 CA         23.5665  -25.1166  -41.3048 C.3       4 UNK         0.0283 
     31 CB         23.6506  -23.6330  -40.9120 C.3       4 UNK        -0.1875 
     32 C          24.9746  -25.7440  -41.3441 C.2       4 UNK         0.4949 
     33 O          25.5232  -26.0572  -40.2885 O.2       4 UNK        -0.5039 
     34 N          25.5249  -25.9390  -42.5510 N.am      5 UNK        -0.4663 
     35 CA         26.7565  -26.6935  -42.7931 C.3       5 UNK         0.0242 
     36 CB         27.2506  -26.4048  -44.2200 C.3       5 UNK        -0.1982 
     37 C          26.5884  -28.2106  -42.5783 C.2       5 UNK         0.5017 
     38 O          27.5758  -28.8781  -42.2682 O.2       5 UNK        -0.5012 
     39 N          25.3607  -28.7252  -42.7454 N.am      6 UNK        -0.4439 
     40 CA         24.9963  -30.1138  -42.4685 C.3       6 UNK         0.0297 
     41 CB         23.9426  -30.5996  -43.4808 C.3       6 UNK        -0.2006 
     42 C          24.4869  -30.2392  -41.0270 C.2       6 UNK         0.4892 
     43 O          25.0270  -31.0462  -40.2701 O.2       6 UNK        -0.5089 
     44 N          23.4726  -29.4294  -40.6783 N.am      7 UNK        -0.4243 
     45 CA         22.8105  -29.2582  -39.3728 C.3       7 UNK         0.0196 
     46 CB         23.7883  -28.6816  -38.3324 C.3       7 UNK        -0.2007 
     47 C          22.0921  -30.4979  -38.8027 C.2       7 UNK         0.5020 
     48 O          20.9931  -30.3623  -38.2654 O.2       7 UNK        -0.5147 
     49 N          22.7051  -31.6803  -38.9255 N.am      8 UNK        -0.4734 
     50 CA         22.2308  -32.9684  -38.4062 C.3       8 UNK         0.0238 
     51 CB         23.3652  -33.9983  -38.5374 C.3       8 UNK        -0.1912 
     52 C          20.9455  -33.4971  -39.0697 C.2       8 UNK         0.5038 
     53 O          20.3365  -34.4255  -38.5363 O.2       8 UNK        -0.5046 
     54 N          20.5602  -32.9095  -40.2088 N.am      9 UNK        -0.4200 
     55 CA         19.3378  -33.2208  -40.9640 C.3       9 UNK         0.0839 
     56 C          18.0086  -32.8606  -40.2359 C.2       9 UNK         0.5513 
     57 N          18.0251  -32.0835  -39.1588 N.am      9 UNK        -0.7519 
     58 O          16.9429  -33.3019  -40.6571 O.2       9 UNK        -0.4960 
     59 C59        19.3685  -32.5932  -42.3814 C.3       10 UNK        -0.0876 
     60 S60        20.8679  -33.0305  -43.3281 S.3       10 UNK        -0.2414 
     61 C61        20.1761  -33.3563  -44.9783 C.3       10 UNK         0.0169 
     62 H62        19.5373  -29.7789  -40.7630 H         1 UNK         0.0903 
     63 H63        19.3584  -28.2641  -39.8837 H         1 UNK         0.0903 
     64 H64        18.0095  -29.3981  -39.9636 H         1 UNK         0.0903 
     65 H65        16.4267  -28.4435  -41.2350 H         1 UNK         0.3096 
     66 H66        15.3315  -27.3536  -42.8137 H         1 UNK         0.1121 
     67 H67        17.5922  -28.2000  -44.7065 H         1 UNK         0.0849 
     68 H68        16.0689  -27.5013  -45.2217 H         1 UNK         0.0849 
     69 H69        15.7025  -31.2550  -46.3296 H         1 UNK         0.0865 
     70 H70        15.9793  -29.6171  -46.8607 H         1 UNK         0.0865 
     71 H71        17.5827  -32.5004  -45.0980 H         1 UNK         0.1346 
     72 H72        21.5585  -31.4017  -46.2701 H         1 UNK         0.1412 
     73 H73        18.2457  -28.8703  -47.2787 H         1 UNK         0.1426 
     74 H74        20.6825  -29.0389  -48.6212 H         1 UNK         0.0716 
     75 H75        21.9801  -29.4334  -47.5207 H         1 UNK         0.0716 
     76 H76        22.6410  -28.0203  -45.3847 H         1 UNK         0.0695 
     77 H77        21.0693  -28.3740  -44.6967 H         1 UNK         0.0695 
     78 H78        22.2199  -25.5604  -45.0768 H         1 UNK         0.0983 
     79 H79        19.7347  -26.4789  -43.7081 H         1 UNK         0.3095 
     80 H80        18.3457  -23.7444  -43.1537 H         1 UNK         0.0454 
     81 H81        18.3085  -22.3935  -45.2312 H         1 UNK         0.0851 
     82 H82        16.7474  -23.1622  -45.0088 H         1 UNK         0.0851 
     83 H83        17.8878  -23.8074  -46.1889 H         1 UNK         0.0851 
     84 H84        17.8645  -26.1852  -44.7869 H         1 UNK         0.2976 
     85 H85        22.5275  -24.3803  -43.0058 H         1 UNK         0.3116 
     86 H86        23.0051  -25.6439  -40.5305 H         1 UNK         0.0646 
     87 H87        24.1812  -23.5089  -39.9668 H         1 UNK         0.0847 
     88 H88        24.1815  -23.0457  -41.6622 H         1 UNK         0.0847 
     89 H89        22.6593  -23.1983  -40.7825 H         1 UNK         0.0847 
     90 H90        25.0199  -25.6150  -43.3626 H         1 UNK         0.3040 
     91 H91        27.5158  -26.3458  -42.0886 H         1 UNK         0.1015 
     92 H92        28.1846  -26.9311  -44.4226 H         1 UNK         0.0786 
     93 H93        27.4423  -25.3416  -44.3666 H         1 UNK         0.0786 
     94 H94        26.5275  -26.7242  -44.9716 H         1 UNK         0.0786 
     95 H95        24.5881  -28.0921  -42.9245 H         1 UNK         0.3172 
     96 H96        25.8745  -30.7542  -42.5755 H         1 UNK         0.0595 
     97 H97        24.3137  -30.5265  -44.5030 H         1 UNK         0.0839 
     98 H98        23.0134  -30.0318  -43.4245 H         1 UNK         0.0839 
     99 H99        23.6914  -31.6460  -43.3036 H         1 UNK         0.0839 
    100 H100       23.1147  -28.8137  -41.4074 H         1 UNK         0.2998 
    101 H101       22.0362  -28.5081  -39.5422 H         1 UNK         0.0822 
    102 H102       23.2835  -28.4928  -37.3839 H         1 UNK         0.0787 
    103 H103       24.6162  -29.3619  -38.1300 H         1 UNK         0.0787 
    104 H104       24.2084  -27.7341  -38.6675 H         1 UNK         0.0787 
    105 H105       23.6186  -31.6716  -39.3781 H         1 UNK         0.3055 
    106 H106       22.0057  -32.8354  -37.3458 H         1 UNK         0.1106 
    107 H107       24.2554  -33.6797  -37.9948 H         1 UNK         0.0828 
    108 H108       23.0681  -34.9653  -38.1289 H         1 UNK         0.0828 
    109 H109       23.6461  -34.1560  -39.5796 H         1 UNK         0.0828 
    110 H110       21.1377  -32.1704  -40.5787 H         1 UNK         0.2931 
    111 H111       19.3223  -34.3050  -41.0913 H         1 UNK         0.0412 
    112 H112       17.1583  -31.8713  -38.6908 H         1 UNK         0.3472 
    113 H113       18.8959  -31.7185  -38.8016 H         1 UNK         0.3472 
    114 H114       18.4897  -32.9202  -42.9385 H         1 UNK         0.0970 
    115 H115       19.3037  -31.5056  -42.3336 H         1 UNK         0.0970 
    116 H116       20.9597  -33.7764  -45.6106 H         1 UNK         0.0612 
    117 H117       19.4005  -34.1204  -44.9060 H         1 UNK         0.0612 
@<TRIPOS>BOND
     1    1    2 1    
     2    1   62 1    
     3    1   63 1    
     4    1   64 1    
     5    2    3 2    
     6    2    4 am   BACKBONE|DICT|INTERRES
     7    4    5 1    
     8    4   65 1    
     9    5    6 1    
    10    5   25 1    
    11    5   66 1    
    12    6    7 1    
    13    6   67 1    
    14    6   68 1    
    15    7    8 1    
    16    8    9 1    
    17    8   69 1    
    18    8   70 1    
    19    9   10 ar   
    20    9   14 ar   
    21   10   11 ar   
    22   10   71 1    
    23   11   12 ar   
    24   11   61 1    
    25   12   13 ar   
    26   12   72 1    
    27   13   14 ar   
    28   13   15 1    
    29   14   73 1    
    30   15   16 1    
    31   15   74 1    
    32   15   75 1    
    33   16   17 1    
    34   17   18 1    
    35   17   76 1    
    36   17   77 1    
    37   18   19 1    
    38   18   27 1    
    39   18   78 1    
    40   19   20 am   BACKBONE|DICT|INTERRES
    41   19   79 1    
    42   20   21 2    
    43   20   22 1    
    44   22   23 1    
    45   22   24 1    
    46   22   80 1    
    47   23   81 1    
    48   23   82 1    
    49   23   83 1    
    50   24   25 am   BACKBONE|DICT|INTERRES
    51   24   84 1    
    52   25   26 2    
    53   27   28 2    
    54   27   29 am   BACKBONE|DICT|INTERRES
    55   29   30 1    
    56   29   85 1    
    57   30   31 1    
    58   30   32 1    
    59   30   86 1    
    60   31   87 1    
    61   31   88 1    
    62   31   89 1    
    63   32   33 2    
    64   32   34 am   BACKBONE|DICT|INTERRES
    65   34   35 1    
    66   34   90 1    
    67   35   36 1    
    68   35   37 1    
    69   35   91 1    
    70   36   92 1    
    71   36   93 1    
    72   36   94 1    
    73   37   38 2    
    74   37   39 am   BACKBONE|DICT|INTERRES
    75   39   40 1    
    76   39   95 1    
    77   40   41 1    
    78   40   42 1    
    79   40   96 1    
    80   41   97 1    
    81   41   98 1    
    82   41   99 1    
    83   42   43 2    
    84   42   44 am   BACKBONE|DICT|INTERRES
    85   44   45 1    
    86   44  100 1    
    87   45   46 1    
    88   45   47 1    
    89   45  101 1    
    90   46  102 1    
    91   46  103 1    
    92   46  104 1    
    93   47   48 2    
    94   47   49 am   BACKBONE|DICT|INTERRES
    95   49   50 1    
    96   49  105 1    
    97   50   51 1    
    98   50   52 1    
    99   50  106 1    
   100   51  107 1    
   101   51  108 1    
   102   51  109 1    
   103   52   53 2    
   104   52   54 am   BACKBONE|DICT|INTERRES
   105   54   55 1    
   106   54  110 1    
   107   55   56 1    
   108   55   59 1    
   109   55  111 1    
   110   56   57 am   BACKBONE|DICT|INTERRES
   111   56   58 2    
   112   57  112 1    
   113   57  113 1    
   114   59   60 1    
   115   59  114 1    
   116   59  115 1    
   117   60   61 1    
   118   61  116 1    
   119   61  117 1    
@<TRIPOS>SUBSTRUCTURE
     1 UNK         1 GROUP             0       ****    0 ROOT    
