@<TRIPOS>MOLECULE
3R8
117   119    1
SMALL
USER_CHARGES


@<TRIPOS>ATOM
      1 CA         16.6259  -22.7735  -46.9636 C.3       0 UNK        -0.2013 
      2 C          17.0517  -23.5434  -45.7224 C.2       0 UNK         0.4866 
      3 O          17.1809  -22.9483  -44.6526 O.2       0 UNK        -0.5176 
      4 N          17.2745  -24.8582  -45.8649 N.am      1 UNK        -0.4884 
      5 CA         17.6706  -25.7997  -44.8045 C.3       1 UNK         0.0853 
      6 C6         16.5760  -26.0181  -43.7202 C.3       10 UNK        -0.0849 
      7 S7         15.0719  -26.7756  -44.4293 S.3       10 UNK        -0.2776 
      8 C8         14.8886  -28.3087  -43.4448 C.3       10 UNK         0.0316 
      9 C9         16.0908  -29.2526  -43.4931 C.ar      10 UNK        -0.0863 
     10 C10        16.4620  -29.9551  -42.3418 C.ar      10 UNK        -0.1009 
     11 C11        17.5705  -30.8105  -42.3373 C.ar      10 UNK        -0.0712 
     12 C12        18.3116  -30.9592  -43.5174 C.ar      10 UNK        -0.0894 
     13 C13        17.9278  -30.2988  -44.6869 C.ar      10 UNK        -0.0745 
     14 C14        16.8154  -29.4544  -44.6712 C.ar      10 UNK        -0.0972 
     15 C15        18.6926  -30.5126  -45.9815 C.3       10 UNK         0.0209 
     16 S16        19.8221  -29.1317  -46.3217 S.3       10 UNK        -0.2568 
     17 C17        21.3621  -29.6453  -45.4712 C.3       10 UNK        -0.0983 
     18 CA         21.9500  -28.6099  -44.4679 C.3       3 UNK         0.0876 
     19 N          21.6262  -27.2337  -44.8415 N.am      3 UNK        -0.4424 
     20 C          22.1200  -26.1119  -44.3074 C.2       2 UNK         0.4918 
     21 O          23.0329  -26.0904  -43.4840 O.2       2 UNK        -0.4875 
     22 CA         21.4103  -24.8033  -44.7091 C.3       2 UNK         0.0481 
     23 CB         22.1398  -24.1346  -45.8834 C.3       2 UNK        -0.1831 
     24 N          19.9928  -25.0004  -45.0549 N.am      2 UNK        -0.4498 
     25 C          19.0630  -25.4829  -44.2129 C.2       1 UNK         0.5027 
     26 O          19.3059  -25.7378  -43.0332 O.2       1 UNK        -0.4969 
     27 C          21.6222  -28.9523  -42.9962 C.2       3 UNK         0.5005 
     28 O          22.2820  -29.8343  -42.4444 O.2       3 UNK        -0.5279 
     29 N          20.6705  -28.2442  -42.3654 N.am      4 UNK        -0.4463 
     30 CA         20.3866  -28.3606  -40.9319 C.3       4 UNK         0.0283 
     31 CB         18.9849  -27.8162  -40.6138 C.3       4 UNK        -0.1875 
     32 C          21.4415  -27.6327  -40.0888 C.2       4 UNK         0.4949 
     33 O          21.8751  -28.1696  -39.0708 O.2       4 UNK        -0.5039 
     34 N          21.8566  -26.4391  -40.5393 N.am      5 UNK        -0.4663 
     35 CA         22.9048  -25.6320  -39.9060 C.3       5 UNK         0.0242 
     36 CB         22.8993  -24.2143  -40.5007 C.3       5 UNK        -0.1982 
     37 C          24.2942  -26.2789  -40.0309 C.2       5 UNK         0.5017 
     38 O          25.0622  -26.2596  -39.0690 O.2       5 UNK        -0.5012 
     39 N          24.5694  -26.8761  -41.1988 N.am      6 UNK        -0.4439 
     40 CA         25.7621  -27.6830  -41.4715 C.3       6 UNK         0.0297 
     41 CB         25.9055  -27.8636  -42.9913 C.3       6 UNK        -0.2006 
     42 C          25.7507  -29.0580  -40.7735 C.2       6 UNK         0.4892 
     43 O          26.8080  -29.6829  -40.6839 O.2       6 UNK        -0.5089 
     44 N          24.5705  -29.5017  -40.3117 N.am      7 UNK        -0.4243 
     45 CA         24.2788  -30.7910  -39.6752 C.3       7 UNK         0.0196 
     46 CB         24.9719  -30.8966  -38.3003 C.3       7 UNK        -0.2007 
     47 C          24.5752  -31.9848  -40.6026 C.2       7 UNK         0.5020 
     48 O          25.1945  -32.9632  -40.1809 O.2       7 UNK        -0.5147 
     49 N          24.1335  -31.8736  -41.8623 N.am      8 UNK        -0.4734 
     50 CA         24.2487  -32.9270  -42.8737 C.3       8 UNK         0.0238 
     51 CB         24.1461  -32.3019  -44.2737 C.3       8 UNK        -0.1912 
     52 C          23.1859  -34.0218  -42.6832 C.2       8 UNK         0.5038 
     53 O          23.4632  -35.1899  -42.9581 O.2       8 UNK        -0.5046 
     54 N          21.9992  -33.6236  -42.2092 N.am      9 UNK        -0.4200 
     55 CA         20.9177  -34.5125  -41.7664 C.3       9 UNK         0.0839 
     56 C          21.2443  -35.2246  -40.4240 C.2       9 UNK         0.5513 
     57 N          20.6695  -36.3975  -40.1941 N.am      9 UNK        -0.7519 
     58 O          21.9811  -34.7175  -39.5806 O.2       9 UNK        -0.4960 
     59 C59        19.5516  -33.7735  -41.7163 C.3       10 UNK        -0.0876 
     60 S60        19.6166  -32.1548  -40.8657 S.3       10 UNK        -0.2414 
     61 C61        17.8995  -31.5601  -41.0421 C.3       10 UNK         0.0169 
     62 H62        15.6522  -22.3117  -46.8017 H         1 UNK         0.0903 
     63 H63        17.3452  -21.9844  -47.1811 H         1 UNK         0.0903 
     64 H64        16.5533  -23.4174  -47.8400 H         1 UNK         0.0903 
     65 H65        17.1365  -25.2766  -46.7750 H         1 UNK         0.3096 
     66 H66        17.8136  -26.7592  -45.3038 H         1 UNK         0.1121 
     67 H67        16.3077  -25.0755  -43.2412 H         1 UNK         0.0849 
     68 H68        16.9415  -26.6635  -42.9199 H         1 UNK         0.0849 
     69 H69        14.6733  -28.0240  -42.4136 H         1 UNK         0.0865 
     70 H70        14.0110  -28.8489  -43.8022 H         1 UNK         0.0865 
     71 H71        15.8874  -29.8293  -41.4340 H         1 UNK         0.1346 
     72 H72        19.1828  -31.5943  -43.5456 H         1 UNK         0.1412 
     73 H73        16.5205  -28.9476  -45.5798 H         1 UNK         0.1426 
     74 H74        17.9835  -30.5909  -46.8070 H         1 UNK         0.0716 
     75 H75        19.2391  -31.4568  -45.9674 H         1 UNK         0.0716 
     76 H76        22.0970  -29.8214  -46.2582 H         1 UNK         0.0695 
     77 H77        21.2170  -30.6199  -45.0019 H         1 UNK         0.0695 
     78 H78        23.0364  -28.6893  -44.5363 H         1 UNK         0.0983 
     79 H79        20.8859  -27.1517  -45.5238 H         1 UNK         0.3095 
     80 H80        21.4531  -24.1301  -43.8505 H         1 UNK         0.0454 
     81 H81        21.6992  -23.1674  -46.1257 H         1 UNK         0.0851 
     82 H82        22.1136  -24.7517  -46.7823 H         1 UNK         0.0851 
     83 H83        23.1886  -23.9582  -45.6401 H         1 UNK         0.0851 
     84 H84        19.7178  -24.7968  -46.0054 H         1 UNK         0.2976 
     85 H85        20.1809  -27.5064  -42.8597 H         1 UNK         0.3116 
     86 H86        20.4071  -29.4164  -40.6614 H         1 UNK         0.0646 
     87 H87        18.2405  -28.2012  -41.3063 H         1 UNK         0.0847 
     88 H88        18.9446  -26.7277  -40.6595 H         1 UNK         0.0847 
     89 H89        18.6786  -28.1071  -39.6085 H         1 UNK         0.0847 
     90 H90        21.4502  -26.0772  -41.3909 H         1 UNK         0.3040 
     91 H91        22.6730  -25.5555  -38.8411 H         1 UNK         0.1015 
     92 H92        23.6463  -23.5864  -40.0133 H         1 UNK         0.0786 
     93 H93        21.9319  -23.7307  -40.3640 H         1 UNK         0.0786 
     94 H94        23.1247  -24.2174  -41.5675 H         1 UNK         0.0786 
     95 H95        23.9104  -26.7538  -41.9649 H         1 UNK         0.3172 
     96 H96        26.6338  -27.1350  -41.1080 H         1 UNK         0.0595 
     97 H97        25.0833  -28.4471  -43.4047 H         1 UNK         0.0839 
     98 H98        26.8301  -28.3880  -43.2361 H         1 UNK         0.0839 
     99 H99        25.9307  -26.9036  -43.5076 H         1 UNK         0.0839 
    100 H100       23.7658  -28.9067  -40.4533 H         1 UNK         0.2998 
    101 H101       23.2014  -30.8049  -39.5014 H         1 UNK         0.0822 
    102 H102       24.7169  -30.0492  -37.6638 H         1 UNK         0.0787 
    103 H103       24.6607  -31.8011  -37.7761 H         1 UNK         0.0787 
    104 H104       26.0577  -30.9324  -38.3939 H         1 UNK         0.0787 
    105 H105       23.5881  -31.0485  -42.1116 H         1 UNK         0.3055 
    106 H106       25.2301  -33.3979  -42.7804 H         1 UNK         0.1106 
    107 H107       23.1806  -31.8224  -44.4300 H         1 UNK         0.0828 
    108 H108       24.2634  -33.0605  -45.0488 H         1 UNK         0.0828 
    109 H109       24.9224  -31.5531  -44.4318 H         1 UNK         0.0828 
    110 H110       21.8783  -32.6478  -41.9779 H         1 UNK         0.2931 
    111 H111       20.8269  -35.2966  -42.5212 H         1 UNK         0.0412 
    112 H112       20.8570  -36.8721  -39.3243 H         1 UNK         0.3472 
    113 H113       20.0594  -36.8237  -40.8747 H         1 UNK         0.3472 
    114 H114       19.1928  -33.6273  -42.7342 H         1 UNK         0.0970 
    115 H115       18.7917  -34.3935  -41.2365 H         1 UNK         0.0970 
    116 H116       17.2134  -32.4009  -40.9339 H         1 UNK         0.0612 
    117 H117       17.7067  -30.8980  -40.1965 H         1 UNK         0.0612 
@<TRIPOS>BOND
     1    1    2 1    
     2    1   62 1    
     3    1   63 1    
     4    1   64 1    
     5    2    3 2    
     6    2    4 am   BACKBONE|DICT|INTERRES
     7    4    5 1    
     8    4   65 1    
     9    5    6 1    
    10    5   25 1    
    11    5   66 1    
    12    6    7 1    
    13    6   67 1    
    14    6   68 1    
    15    7    8 1    
    16    8    9 1    
    17    8   69 1    
    18    8   70 1    
    19    9   10 ar   
    20    9   14 ar   
    21   10   11 ar   
    22   10   71 1    
    23   11   12 ar   
    24   11   61 1    
    25   12   13 ar   
    26   12   72 1    
    27   13   14 ar   
    28   13   15 1    
    29   14   73 1    
    30   15   16 1    
    31   15   74 1    
    32   15   75 1    
    33   16   17 1    
    34   17   18 1    
    35   17   76 1    
    36   17   77 1    
    37   18   19 1    
    38   18   27 1    
    39   18   78 1    
    40   19   20 am   BACKBONE|DICT|INTERRES
    41   19   79 1    
    42   20   21 2    
    43   20   22 1    
    44   22   23 1    
    45   22   24 1    
    46   22   80 1    
    47   23   81 1    
    48   23   82 1    
    49   23   83 1    
    50   24   25 am   BACKBONE|DICT|INTERRES
    51   24   84 1    
    52   25   26 2    
    53   27   28 2    
    54   27   29 am   BACKBONE|DICT|INTERRES
    55   29   30 1    
    56   29   85 1    
    57   30   31 1    
    58   30   32 1    
    59   30   86 1    
    60   31   87 1    
    61   31   88 1    
    62   31   89 1    
    63   32   33 2    
    64   32   34 am   BACKBONE|DICT|INTERRES
    65   34   35 1    
    66   34   90 1    
    67   35   36 1    
    68   35   37 1    
    69   35   91 1    
    70   36   92 1    
    71   36   93 1    
    72   36   94 1    
    73   37   38 2    
    74   37   39 am   BACKBONE|DICT|INTERRES
    75   39   40 1    
    76   39   95 1    
    77   40   41 1    
    78   40   42 1    
    79   40   96 1    
    80   41   97 1    
    81   41   98 1    
    82   41   99 1    
    83   42   43 2    
    84   42   44 am   BACKBONE|DICT|INTERRES
    85   44   45 1    
    86   44  100 1    
    87   45   46 1    
    88   45   47 1    
    89   45  101 1    
    90   46  102 1    
    91   46  103 1    
    92   46  104 1    
    93   47   48 2    
    94   47   49 am   BACKBONE|DICT|INTERRES
    95   49   50 1    
    96   49  105 1    
    97   50   51 1    
    98   50   52 1    
    99   50  106 1    
   100   51  107 1    
   101   51  108 1    
   102   51  109 1    
   103   52   53 2    
   104   52   54 am   BACKBONE|DICT|INTERRES
   105   54   55 1    
   106   54  110 1    
   107   55   56 1    
   108   55   59 1    
   109   55  111 1    
   110   56   57 am   BACKBONE|DICT|INTERRES
   111   56   58 2    
   112   57  112 1    
   113   57  113 1    
   114   59   60 1    
   115   59  114 1    
   116   59  115 1    
   117   60   61 1    
   118   61  116 1    
   119   61  117 1    
@<TRIPOS>SUBSTRUCTURE
     1 UNK         1 GROUP             0       ****    0 ROOT    
