@<TRIPOS>MOLECULE
3R8
117   119    1
SMALL
USER_CHARGES


@<TRIPOS>ATOM
      1 CA         14.4566  -24.0147  -45.5307 C.3       0 UNK        -0.2013 
      2 C          14.8041  -25.3855  -44.9699 C.2       0 UNK         0.4866 
      3 O          14.0943  -25.8832  -44.0965 O.2       0 UNK        -0.5176 
      4 N          15.9002  -25.9861  -45.4561 N.am      1 UNK        -0.4884 
      5 CA         16.4101  -27.3253  -45.1054 C.3       1 UNK         0.0853 
      6 C6         15.4251  -28.4753  -45.4579 C.3       10 UNK        -0.0849 
      7 S7         15.2521  -28.6314  -47.2696 S.3       10 UNK        -0.2776 
      8 C8         16.0611  -30.2320  -47.6177 C.3       10 UNK         0.0316 
      9 C9         17.4169  -30.3954  -46.9365 C.ar      10 UNK        -0.0863 
     10 C10        17.6145  -31.4369  -46.0240 C.ar      10 UNK        -0.1009 
     11 C11        18.8493  -31.6142  -45.3936 C.ar      10 UNK        -0.0712 
     12 C12        19.8980  -30.7388  -45.6973 C.ar      10 UNK        -0.0894 
     13 C13        19.7048  -29.6684  -46.5742 C.ar      10 UNK        -0.0745 
     14 C14        18.4684  -29.5145  -47.2093 C.ar      10 UNK        -0.0972 
     15 C15        20.8289  -28.6745  -46.8280 C.3       10 UNK         0.0209 
     16 S16        20.7627  -27.2737  -45.6623 S.3       10 UNK        -0.2568 
     17 C17        21.5679  -27.9818  -44.1842 C.3       10 UNK        -0.0983 
     18 CA         21.3180  -27.1462  -42.9028 C.3       3 UNK         0.0876 
     19 N          19.8925  -27.0400  -42.5883 N.am      3 UNK        -0.4424 
     20 C          19.3189  -26.0831  -41.8495 C.2       2 UNK         0.4918 
     21 O          19.9472  -25.1487  -41.3465 O.2       2 UNK        -0.4875 
     22 CA         17.7900  -26.1773  -41.6755 C.3       2 UNK         0.0481 
     23 CB         17.2031  -24.9696  -40.9225 C.3       2 UNK        -0.1831 
     24 N          17.1220  -26.3005  -42.9728 N.am      2 UNK        -0.4498 
     25 C          16.9808  -27.4341  -43.6736 C.2       1 UNK         0.5027 
     26 O          17.3663  -28.5257  -43.2526 O.2       1 UNK        -0.4969 
     27 C          22.0762  -27.7047  -41.6815 C.2       3 UNK         0.5005 
     28 O          22.5258  -28.8518  -41.7000 O.2       3 UNK        -0.5279 
     29 N          22.1618  -26.8951  -40.6176 N.am      4 UNK        -0.4463 
     30 CA         22.8067  -27.2388  -39.3489 C.3       4 UNK         0.0283 
     31 CB         22.4573  -26.1768  -38.2953 C.3       4 UNK        -0.1875 
     32 C          24.3312  -27.4007  -39.4706 C.2       4 UNK         0.4949 
     33 O          24.9145  -28.2019  -38.7410 O.2       4 UNK        -0.5039 
     34 N          24.9462  -26.6525  -40.3952 N.am      5 UNK        -0.4663 
     35 CA         26.3577  -26.7771  -40.7487 C.3       5 UNK         0.0242 
     36 CB         26.8172  -25.4960  -41.4634 C.3       5 UNK        -0.1982 
     37 C          26.5701  -28.0049  -41.6465 C.2       5 UNK         0.5017 
     38 O          25.8596  -28.1517  -42.6440 O.2       5 UNK        -0.5012 
     39 N          27.5505  -28.8428  -41.2843 N.am      6 UNK        -0.4439 
     40 CA         28.0171  -30.0615  -41.9610 C.3       6 UNK         0.0297 
     41 CB         28.5736  -29.7520  -43.3654 C.3       6 UNK        -0.2006 
     42 C          26.9953  -31.2132  -42.0081 C.2       6 UNK         0.4892 
     43 O          27.3166  -32.3134  -41.5578 O.2       6 UNK        -0.5089 
     44 N          25.8037  -30.9576  -42.5617 N.am      7 UNK        -0.4243 
     45 CA         24.7369  -31.9467  -42.7355 C.3       7 UNK         0.0196 
     46 CB         23.7681  -31.4639  -43.8268 C.3       7 UNK        -0.2007 
     47 C          23.9886  -32.2641  -41.4288 C.2       7 UNK         0.5020 
     48 O          23.5125  -33.3887  -41.2734 O.2       7 UNK        -0.5147 
     49 N          23.9140  -31.2807  -40.5183 N.am      8 UNK        -0.4734 
     50 CA         23.2398  -31.3219  -39.2121 C.3       8 UNK         0.0238 
     51 CB         23.9236  -32.3355  -38.2694 C.3       8 UNK        -0.1912 
     52 C          21.7136  -31.5259  -39.3151 C.2       8 UNK         0.5038 
     53 O          21.1188  -32.1574  -38.4390 O.2       8 UNK        -0.5046 
     54 N          21.1107  -30.9903  -40.3817 N.am      9 UNK        -0.4200 
     55 CA         19.6704  -31.0580  -40.6610 C.3       9 UNK         0.0839 
     56 C          18.8934  -29.9300  -39.9332 C.2       9 UNK         0.5513 
     57 N          17.6237  -30.1560  -39.6260 N.am      9 UNK        -0.7519 
     58 O          19.4128  -28.8476  -39.6710 O.2       9 UNK        -0.4960 
     59 C59        19.3880  -31.0391  -42.1843 C.3       10 UNK        -0.0876 
     60 S60        20.1869  -32.4385  -43.0428 S.3       10 UNK        -0.2414 
     61 C61        19.0229  -32.7700  -44.4088 C.3       10 UNK         0.0169 
     62 H62        13.4686  -24.0381  -45.9897 H         1 UNK         0.0903 
     63 H63        14.4432  -23.2740  -44.7316 H         1 UNK         0.0903 
     64 H64        15.1721  -23.6873  -46.2849 H         1 UNK         0.0903 
     65 H65        16.4355  -25.5084  -46.1689 H         1 UNK         0.3096 
     66 H66        17.2958  -27.4598  -45.7277 H         1 UNK         0.1121 
     67 H67        15.7558  -29.4300  -45.0469 H         1 UNK         0.0849 
     68 H68        14.4413  -28.3018  -45.0210 H         1 UNK         0.0849 
     69 H69        15.3816  -31.0319  -47.3190 H         1 UNK         0.0865 
     70 H70        16.1913  -30.3340  -48.6959 H         1 UNK         0.0865 
     71 H71        16.8028  -32.1167  -45.8032 H         1 UNK         0.1346 
     72 H72        20.8646  -30.8772  -45.2350 H         1 UNK         0.1412 
     73 H73        18.3156  -28.6965  -47.9003 H         1 UNK         0.1426 
     74 H74        21.8007  -29.1663  -46.7604 H         1 UNK         0.0716 
     75 H75        20.7546  -28.2873  -47.8453 H         1 UNK         0.0716 
     76 H76        22.6381  -28.0530  -44.3884 H         1 UNK         0.0695 
     77 H77        21.2171  -29.0013  -44.0381 H         1 UNK         0.0695 
     78 H78        21.7068  -26.1425  -43.0890 H         1 UNK         0.0983 
     79 H79        19.2941  -27.7730  -42.9495 H         1 UNK         0.3095 
     80 H80        17.5852  -27.0698  -41.0807 H         1 UNK         0.0454 
     81 H81        16.1261  -25.0715  -40.7879 H         1 UNK         0.0851 
     82 H82        17.3888  -24.0334  -41.4504 H         1 UNK         0.0851 
     83 H83        17.6444  -24.8775  -39.9292 H         1 UNK         0.0851 
     84 H84        16.8104  -25.4436  -43.4065 H         1 UNK         0.2976 
     85 H85        21.6733  -26.0066  -40.6651 H         1 UNK         0.3116 
     86 H86        22.3925  -28.1923  -39.0164 H         1 UNK         0.0646 
     87 H87        21.3796  -26.1088  -38.1446 H         1 UNK         0.0847 
     88 H88        22.9031  -26.4233  -37.3306 H         1 UNK         0.0847 
     89 H89        22.8206  -25.1885  -38.5798 H         1 UNK         0.0847 
     90 H90        24.3809  -26.0545  -40.9795 H         1 UNK         0.3040 
     91 H91        26.9418  -26.8879  -39.8320 H         1 UNK         0.1015 
     92 H92        26.2632  -25.3264  -42.3879 H         1 UNK         0.0786 
     93 H93        27.8750  -25.5536  -41.7241 H         1 UNK         0.0786 
     94 H94        26.6879  -24.6190  -40.8287 H         1 UNK         0.0786 
     95 H95        28.0399  -28.6333  -40.4244 H         1 UNK         0.3172 
     96 H96        28.8550  -30.4190  -41.3600 H         1 UNK         0.0595 
     97 H97        27.8045  -29.3759  -44.0407 H         1 UNK         0.0839 
     98 H98        28.9931  -30.6489  -43.8231 H         1 UNK         0.0839 
     99 H99        29.3704  -29.0097  -43.3208 H         1 UNK         0.0839 
    100 H100       25.6176  -30.0013  -42.8558 H         1 UNK         0.2998 
    101 H101       25.1918  -32.8771  -43.0830 H         1 UNK         0.0822 
    102 H102       23.0037  -32.2155  -44.0251 H         1 UNK         0.0787 
    103 H103       23.2574  -30.5458  -43.5390 H         1 UNK         0.0787 
    104 H104       24.2880  -31.2777  -44.7666 H         1 UNK         0.0787 
    105 H105       24.2825  -30.3779  -40.7877 H         1 UNK         0.3055 
    106 H106       23.3726  -30.3363  -38.7684 H         1 UNK         0.1106 
    107 H107       24.9970  -32.1567  -38.2073 H         1 UNK         0.0828 
    108 H108       23.5250  -32.2585  -37.2571 H         1 UNK         0.0828 
    109 H109       23.7721  -33.3636  -38.5993 H         1 UNK         0.0828 
    110 H110       21.6635  -30.4115  -41.0079 H         1 UNK         0.2931 
    111 H111       19.2978  -32.0092  -40.2748 H         1 UNK         0.0412 
    112 H112       17.1823  -31.0362  -39.8418 H         1 UNK         0.3472 
    113 H113       17.0973  -29.4330  -39.1616 H         1 UNK         0.3472 
    114 H114       18.3132  -31.0797  -42.3723 H         1 UNK         0.0970 
    115 H115       19.7363  -30.1077  -42.6302 H         1 UNK         0.0970 
    116 H116       19.3776  -33.6415  -44.9600 H         1 UNK         0.0612 
    117 H117       18.0601  -33.0471  -43.9764 H         1 UNK         0.0612 
@<TRIPOS>BOND
     1    1    2 1    
     2    1   62 1    
     3    1   63 1    
     4    1   64 1    
     5    2    3 2    
     6    2    4 am   BACKBONE|DICT|INTERRES
     7    4    5 1    
     8    4   65 1    
     9    5    6 1    
    10    5   25 1    
    11    5   66 1    
    12    6    7 1    
    13    6   67 1    
    14    6   68 1    
    15    7    8 1    
    16    8    9 1    
    17    8   69 1    
    18    8   70 1    
    19    9   10 ar   
    20    9   14 ar   
    21   10   11 ar   
    22   10   71 1    
    23   11   12 ar   
    24   11   61 1    
    25   12   13 ar   
    26   12   72 1    
    27   13   14 ar   
    28   13   15 1    
    29   14   73 1    
    30   15   16 1    
    31   15   74 1    
    32   15   75 1    
    33   16   17 1    
    34   17   18 1    
    35   17   76 1    
    36   17   77 1    
    37   18   19 1    
    38   18   27 1    
    39   18   78 1    
    40   19   20 am   BACKBONE|DICT|INTERRES
    41   19   79 1    
    42   20   21 2    
    43   20   22 1    
    44   22   23 1    
    45   22   24 1    
    46   22   80 1    
    47   23   81 1    
    48   23   82 1    
    49   23   83 1    
    50   24   25 am   BACKBONE|DICT|INTERRES
    51   24   84 1    
    52   25   26 2    
    53   27   28 2    
    54   27   29 am   BACKBONE|DICT|INTERRES
    55   29   30 1    
    56   29   85 1    
    57   30   31 1    
    58   30   32 1    
    59   30   86 1    
    60   31   87 1    
    61   31   88 1    
    62   31   89 1    
    63   32   33 2    
    64   32   34 am   BACKBONE|DICT|INTERRES
    65   34   35 1    
    66   34   90 1    
    67   35   36 1    
    68   35   37 1    
    69   35   91 1    
    70   36   92 1    
    71   36   93 1    
    72   36   94 1    
    73   37   38 2    
    74   37   39 am   BACKBONE|DICT|INTERRES
    75   39   40 1    
    76   39   95 1    
    77   40   41 1    
    78   40   42 1    
    79   40   96 1    
    80   41   97 1    
    81   41   98 1    
    82   41   99 1    
    83   42   43 2    
    84   42   44 am   BACKBONE|DICT|INTERRES
    85   44   45 1    
    86   44  100 1    
    87   45   46 1    
    88   45   47 1    
    89   45  101 1    
    90   46  102 1    
    91   46  103 1    
    92   46  104 1    
    93   47   48 2    
    94   47   49 am   BACKBONE|DICT|INTERRES
    95   49   50 1    
    96   49  105 1    
    97   50   51 1    
    98   50   52 1    
    99   50  106 1    
   100   51  107 1    
   101   51  108 1    
   102   51  109 1    
   103   52   53 2    
   104   52   54 am   BACKBONE|DICT|INTERRES
   105   54   55 1    
   106   54  110 1    
   107   55   56 1    
   108   55   59 1    
   109   55  111 1    
   110   56   57 am   BACKBONE|DICT|INTERRES
   111   56   58 2    
   112   57  112 1    
   113   57  113 1    
   114   59   60 1    
   115   59  114 1    
   116   59  115 1    
   117   60   61 1    
   118   61  116 1    
   119   61  117 1    
@<TRIPOS>SUBSTRUCTURE
     1 UNK         1 GROUP             0       ****    0 ROOT    
