@<TRIPOS>MOLECULE
3R8
117   119    1
SMALL
USER_CHARGES


@<TRIPOS>ATOM
      1 CA         20.7036  -27.7291  -42.0815 C.3       0 UNK        -0.2013 
      2 C          19.5207  -26.7886  -41.9505 C.2       0 UNK         0.4866 
      3 O          19.6296  -25.7653  -41.2757 O.2       0 UNK        -0.5176 
      4 N          18.3941  -27.1201  -42.5958 N.am      1 UNK        -0.4884 
      5 CA         17.1608  -26.3183  -42.5897 C.3       1 UNK         0.0853 
      6 C6         15.9612  -27.0871  -43.1935 C.3       10 UNK        -0.0849 
      7 S7         15.6158  -28.6381  -42.2954 S.3       10 UNK        -0.2776 
      8 C8         15.8530  -29.8973  -43.5909 C.3       10 UNK         0.0316 
      9 C9         17.3163  -30.0854  -43.9714 C.ar      10 UNK        -0.0863 
     10 C10        18.1862  -30.7536  -43.1034 C.ar      10 UNK        -0.1009 
     11 C11        19.5142  -30.9883  -43.4718 C.ar      10 UNK        -0.0712 
     12 C12        19.9744  -30.5439  -44.7145 C.ar      10 UNK        -0.0894 
     13 C13        19.1155  -29.8755  -45.5912 C.ar      10 UNK        -0.0745 
     14 C14        17.7887  -29.6448  -45.2126 C.ar      10 UNK        -0.0972 
     15 C15        19.6050  -29.4542  -46.9699 C.3       10 UNK         0.0209 
     16 S16        19.8124  -27.6540  -47.1139 S.3       10 UNK        -0.2568 
     17 C17        21.3295  -27.3717  -46.1411 C.3       10 UNK        -0.0983 
     18 CA         21.7073  -25.8677  -46.0516 C.3       3 UNK         0.0876 
     19 N          20.6540  -25.0912  -45.3990 N.am      3 UNK        -0.4424 
     20 C          19.7782  -24.2881  -46.0154 C.2       2 UNK         0.4918 
     21 O          19.8488  -23.9762  -47.2053 O.2       2 UNK        -0.4875 
     22 CA         18.5815  -23.8300  -45.1654 C.3       2 UNK         0.0481 
     23 CB         17.4394  -23.2207  -46.0050 C.3       2 UNK        -0.1831 
     24 N          18.1062  -24.9833  -44.4025 N.am      2 UNK        -0.4498 
     25 C          17.3512  -24.9612  -43.2990 C.2       1 UNK         0.5027 
     26 O          16.8488  -23.9418  -42.8237 O.2       1 UNK        -0.4969 
     27 C          23.0121  -25.6862  -45.2593 C.2       3 UNK         0.5005 
     28 O          22.9670  -25.3680  -44.0676 O.2       3 UNK        -0.5279 
     29 N          24.1514  -25.9235  -45.9259 N.am      4 UNK        -0.4463 
     30 CA         25.4958  -25.8429  -45.3402 C.3       4 UNK         0.0283 
     31 CB         26.5434  -25.8640  -46.4650 C.3       4 UNK        -0.1875 
     32 C          25.7927  -26.9507  -44.3125 C.2       4 UNK         0.4949 
     33 O          26.6352  -26.7519  -43.4360 O.2       4 UNK        -0.5039 
     34 N          25.0915  -28.0880  -44.4178 N.am      5 UNK        -0.4663 
     35 CA         25.1350  -29.2075  -43.4743 C.3       5 UNK         0.0242 
     36 CB         24.6043  -30.4706  -44.1801 C.3       5 UNK        -0.1982 
     37 C          24.3433  -28.8753  -42.1953 C.2       5 UNK         0.5017 
     38 O          23.2857  -29.4599  -41.9618 O.2       5 UNK        -0.5012 
     39 N          24.8492  -27.9050  -41.4224 N.am      6 UNK        -0.4439 
     40 CA         24.2521  -27.3416  -40.2086 C.3       6 UNK         0.0297 
     41 CB         24.9835  -26.0318  -39.8626 C.3       6 UNK        -0.2006 
     42 C          24.2351  -28.3345  -39.0295 C.2       6 UNK         0.4892 
     43 O          25.0108  -28.1948  -38.0820 O.2       6 UNK        -0.5089 
     44 N          23.3439  -29.3211  -39.1229 N.am      7 UNK        -0.4243 
     45 CA         23.0627  -30.3664  -38.1473 C.3       7 UNK         0.0196 
     46 CB         24.1153  -31.4868  -38.2741 C.3       7 UNK        -0.2007 
     47 C          21.6419  -30.8849  -38.4157 C.2       7 UNK         0.5020 
     48 O          20.9714  -30.3941  -39.3267 O.2       7 UNK        -0.5147 
     49 N          21.2042  -31.8845  -37.6394 N.am      8 UNK        -0.4734 
     50 CA         19.9397  -32.5964  -37.8719 C.3       8 UNK         0.0238 
     51 CB         19.5754  -33.4115  -36.6200 C.3       8 UNK        -0.1912 
     52 C          19.9805  -33.5064  -39.1165 C.2       8 UNK         0.5038 
     53 O          18.9337  -33.7333  -39.7235 O.2       8 UNK        -0.5046 
     54 N          21.1863  -33.9901  -39.4524 N.am      9 UNK        -0.4200 
     55 CA         21.5379  -34.8829  -40.5676 C.3       9 UNK         0.0839 
     56 C          20.6799  -36.1822  -40.6753 C.2       9 UNK         0.5513 
     57 N          20.5345  -36.7675  -41.8568 N.am      9 UNK        -0.7519 
     58 O          20.2068  -36.7137  -39.6724 O.2       9 UNK        -0.4960 
     59 C59        21.8296  -34.1141  -41.8930 C.3       10 UNK        -0.0876 
     60 S60        20.3778  -33.5238  -42.8326 S.3       10 UNK        -0.2414 
     61 C61        20.4532  -31.7321  -42.5367 C.3       10 UNK         0.0169 
     62 H62        21.6024  -27.1705  -42.3412 H         1 UNK         0.0903 
     63 H63        20.8804  -28.2448  -41.1381 H         1 UNK         0.0903 
     64 H64        20.5456  -28.4798  -42.8521 H         1 UNK         0.0903 
     65 H65        18.3402  -28.0007  -43.0917 H         1 UNK         0.3096 
     66 H66        16.9251  -26.0950  -41.5464 H         1 UNK         0.1121 
     67 H67        15.0581  -26.4749  -43.1492 H         1 UNK         0.0849 
     68 H68        16.1292  -27.2986  -44.2510 H         1 UNK         0.0849 
     69 H69        15.4582  -30.8475  -43.2280 H         1 UNK         0.0865 
     70 H70        15.2514  -29.6388  -44.4639 H         1 UNK         0.0865 
     71 H71        17.8253  -31.1078  -42.1469 H         1 UNK         0.1346 
     72 H72        20.9985  -30.7359  -45.0040 H         1 UNK         0.1412 
     73 H73        17.1202  -29.1426  -45.8991 H         1 UNK         0.1426 
     74 H74        18.8821  -29.7822  -47.7181 H         1 UNK         0.0716 
     75 H75        20.5450  -29.9482  -47.2208 H         1 UNK         0.0716 
     76 H76        21.1855  -27.7918  -45.1442 H         1 UNK         0.0695 
     77 H77        22.1337  -27.9453  -46.6054 H         1 UNK         0.0695 
     78 H78        21.8796  -25.4828  -47.0594 H         1 UNK         0.0983 
     79 H79        20.6152  -25.1911  -44.3941 H         1 UNK         0.3095 
     80 H80        18.9503  -23.0743  -44.4692 H         1 UNK         0.0454 
     81 H81        17.7891  -22.3585  -46.5739 H         1 UNK         0.0851 
     82 H82        17.0377  -23.9424  -46.7171 H         1 UNK         0.0851 
     83 H83        16.6178  -22.8767  -45.3772 H         1 UNK         0.0851 
     84 H84        18.4627  -25.8777  -44.7130 H         1 UNK         0.2976 
     85 H85        24.1018  -26.1778  -46.9030 H         1 UNK         0.3116 
     86 H86        25.5775  -24.8871  -44.8180 H         1 UNK         0.0646 
     87 H87        27.5524  -25.7754  -46.0594 H         1 UNK         0.0847 
     88 H88        26.4022  -25.0334  -47.1567 H         1 UNK         0.0847 
     89 H89        26.5046  -26.7912  -47.0382 H         1 UNK         0.0847 
     90 H90        24.4102  -28.1528  -45.1588 H         1 UNK         0.3040 
     91 H91        26.1718  -29.3931  -43.1845 H         1 UNK         0.1015 
     92 H92        25.2111  -30.7242  -45.0495 H         1 UNK         0.0786 
     93 H93        23.5735  -30.3460  -44.5144 H         1 UNK         0.0786 
     94 H94        24.6262  -31.3304  -43.5089 H         1 UNK         0.0786 
     95 H95        25.7009  -27.4624  -41.7517 H         1 UNK         0.3172 
     96 H96        23.2146  -27.0859  -40.4321 H         1 UNK         0.0595 
     97 H97        24.9015  -25.3066  -40.6728 H         1 UNK         0.0839 
     98 H98        26.0436  -26.1990  -39.6677 H         1 UNK         0.0839 
     99 H99        24.5564  -25.5696  -38.9715 H         1 UNK         0.0839 
    100 H100       22.7700  -29.3756  -39.9611 H         1 UNK         0.2998 
    101 H101       23.0885  -29.9390  -37.1429 H         1 UNK         0.0822 
    102 H102       25.1245  -31.1007  -38.1289 H         1 UNK         0.0787 
    103 H103       23.9648  -32.2658  -37.5264 H         1 UNK         0.0787 
    104 H104       24.0800  -31.9593  -39.2568 H         1 UNK         0.0787 
    105 H105       21.7898  -32.2187  -36.8868 H         1 UNK         0.3055 
    106 H106       19.1534  -31.8560  -38.0383 H         1 UNK         0.1106 
    107 H107       20.3290  -34.1669  -36.3940 H         1 UNK         0.0828 
    108 H108       19.4675  -32.7700  -35.7453 H         1 UNK         0.0828 
    109 H109       18.6260  -33.9312  -36.7573 H         1 UNK         0.0828 
    110 H110       21.9545  -33.7462  -38.8468 H         1 UNK         0.2931 
    111 H111       22.5077  -35.2733  -40.2565 H         1 UNK         0.0412 
    112 H112       20.0050  -37.6230  -41.9203 H         1 UNK         0.3472 
    113 H113       20.8994  -36.3380  -42.6925 H         1 UNK         0.3472 
    114 H114       22.4093  -34.7523  -42.5615 H         1 UNK         0.0970 
    115 H115       22.4881  -33.2700  -41.6824 H         1 UNK         0.0970 
    116 H116       20.1867  -31.5305  -41.4999 H         1 UNK         0.0612 
    117 H117       21.4741  -31.3734  -42.6746 H         1 UNK         0.0612 
@<TRIPOS>BOND
     1    1    2 1    
     2    1   62 1    
     3    1   63 1    
     4    1   64 1    
     5    2    3 2    
     6    2    4 am   BACKBONE|DICT|INTERRES
     7    4    5 1    
     8    4   65 1    
     9    5    6 1    
    10    5   25 1    
    11    5   66 1    
    12    6    7 1    
    13    6   67 1    
    14    6   68 1    
    15    7    8 1    
    16    8    9 1    
    17    8   69 1    
    18    8   70 1    
    19    9   10 ar   
    20    9   14 ar   
    21   10   11 ar   
    22   10   71 1    
    23   11   12 ar   
    24   11   61 1    
    25   12   13 ar   
    26   12   72 1    
    27   13   14 ar   
    28   13   15 1    
    29   14   73 1    
    30   15   16 1    
    31   15   74 1    
    32   15   75 1    
    33   16   17 1    
    34   17   18 1    
    35   17   76 1    
    36   17   77 1    
    37   18   19 1    
    38   18   27 1    
    39   18   78 1    
    40   19   20 am   BACKBONE|DICT|INTERRES
    41   19   79 1    
    42   20   21 2    
    43   20   22 1    
    44   22   23 1    
    45   22   24 1    
    46   22   80 1    
    47   23   81 1    
    48   23   82 1    
    49   23   83 1    
    50   24   25 am   BACKBONE|DICT|INTERRES
    51   24   84 1    
    52   25   26 2    
    53   27   28 2    
    54   27   29 am   BACKBONE|DICT|INTERRES
    55   29   30 1    
    56   29   85 1    
    57   30   31 1    
    58   30   32 1    
    59   30   86 1    
    60   31   87 1    
    61   31   88 1    
    62   31   89 1    
    63   32   33 2    
    64   32   34 am   BACKBONE|DICT|INTERRES
    65   34   35 1    
    66   34   90 1    
    67   35   36 1    
    68   35   37 1    
    69   35   91 1    
    70   36   92 1    
    71   36   93 1    
    72   36   94 1    
    73   37   38 2    
    74   37   39 am   BACKBONE|DICT|INTERRES
    75   39   40 1    
    76   39   95 1    
    77   40   41 1    
    78   40   42 1    
    79   40   96 1    
    80   41   97 1    
    81   41   98 1    
    82   41   99 1    
    83   42   43 2    
    84   42   44 am   BACKBONE|DICT|INTERRES
    85   44   45 1    
    86   44  100 1    
    87   45   46 1    
    88   45   47 1    
    89   45  101 1    
    90   46  102 1    
    91   46  103 1    
    92   46  104 1    
    93   47   48 2    
    94   47   49 am   BACKBONE|DICT|INTERRES
    95   49   50 1    
    96   49  105 1    
    97   50   51 1    
    98   50   52 1    
    99   50  106 1    
   100   51  107 1    
   101   51  108 1    
   102   51  109 1    
   103   52   53 2    
   104   52   54 am   BACKBONE|DICT|INTERRES
   105   54   55 1    
   106   54  110 1    
   107   55   56 1    
   108   55   59 1    
   109   55  111 1    
   110   56   57 am   BACKBONE|DICT|INTERRES
   111   56   58 2    
   112   57  112 1    
   113   57  113 1    
   114   59   60 1    
   115   59  114 1    
   116   59  115 1    
   117   60   61 1    
   118   61  116 1    
   119   61  117 1    
@<TRIPOS>SUBSTRUCTURE
     1 UNK         1 GROUP             0       ****    0 ROOT    
