@<TRIPOS>MOLECULE
3R8
117   119    1
SMALL
USER_CHARGES


@<TRIPOS>ATOM
      1 CA         15.8950  -22.8791  -42.1697 C.3       0 UNK        -0.2013 
      2 C          16.4448  -24.2091  -42.6622 C.2       0 UNK         0.4866 
      3 O          15.9248  -24.7691  -43.6286 O.2       0 UNK        -0.5176 
      4 N          17.4959  -24.7242  -42.0104 N.am      1 UNK        -0.4884 
      5 CA         18.1735  -25.9741  -42.3648 C.3       1 UNK         0.0853 
      6 C6         18.8612  -26.6058  -41.1254 C.3       10 UNK        -0.0849 
      7 S7         19.3563  -28.3443  -41.3774 S.3       10 UNK        -0.2776 
      8 C8         17.7588  -29.2247  -41.2732 C.3       10 UNK         0.0316 
      9 C9         17.5460  -30.1530  -42.4646 C.ar      10 UNK        -0.0863 
     10 C10        17.1660  -31.4857  -42.2698 C.ar      10 UNK        -0.1009 
     11 C11        16.9953  -32.3421  -43.3642 C.ar      10 UNK        -0.0712 
     12 C12        17.2081  -31.8591  -44.6585 C.ar      10 UNK        -0.0894 
     13 C13        17.5988  -30.5349  -44.8639 C.ar      10 UNK        -0.0745 
     14 C14        17.7360  -29.6825  -43.7677 C.ar      10 UNK        -0.0972 
     15 C15        17.9000  -30.0303  -46.2655 C.3       10 UNK         0.0209 
     16 S16        19.5082  -30.6325  -46.8823 S.3       10 UNK        -0.2568 
     17 C17        20.7285  -29.9701  -45.6915 C.3       10 UNK        -0.0983 
     18 CA         21.2650  -28.5778  -46.1086 C.3       3 UNK         0.0876 
     19 N          20.2484  -27.5387  -45.9247 N.am      3 UNK        -0.4424 
     20 C          20.2645  -26.3257  -46.4901 C.2       2 UNK         0.4918 
     21 O          21.1022  -25.9691  -47.3185 O.2       2 UNK        -0.4875 
     22 CA         19.1755  -25.3295  -46.0448 C.3       2 UNK         0.0481 
     23 CB         18.0973  -25.2025  -47.1327 C.3       2 UNK        -0.1831 
     24 N          18.5225  -25.6369  -44.7642 N.am      2 UNK        -0.4498 
     25 C          19.1174  -25.7404  -43.5661 C.2       1 UNK         0.5027 
     26 O          20.3341  -25.6409  -43.3984 O.2       1 UNK        -0.4969 
     27 C          22.5945  -28.2438  -45.3890 C.2       3 UNK         0.5005 
     28 O          23.6063  -28.8720  -45.7064 O.2       3 UNK        -0.5279 
     29 N          22.5895  -27.2565  -44.4752 N.am      4 UNK        -0.4463 
     30 CA         23.7276  -26.7637  -43.6946 C.3       4 UNK         0.0283 
     31 CB         24.7853  -26.0985  -44.6058 C.3       4 UNK        -0.1875 
     32 C          24.2735  -27.8570  -42.7595 C.2       4 UNK         0.4949 
     33 O          23.5088  -28.3489  -41.9311 O.2       4 UNK        -0.5039 
     34 N          25.5700  -28.1890  -42.8698 N.am      5 UNK        -0.4663 
     35 CA         26.2796  -29.2406  -42.1219 C.3       5 UNK         0.0242 
     36 CB         25.7968  -30.6326  -42.5846 C.3       5 UNK        -0.1982 
     37 C          26.2128  -29.0650  -40.5892 C.2       5 UNK         0.5017 
     38 O          26.0915  -30.0509  -39.8616 O.2       5 UNK        -0.5012 
     39 N          26.2767  -27.8019  -40.1378 N.am      6 UNK        -0.4439 
     40 CA         26.0820  -27.3445  -38.7542 C.3       6 UNK         0.0297 
     41 CB         27.1940  -27.8757  -37.8233 C.3       6 UNK        -0.2006 
     42 C          24.6580  -27.6321  -38.2300 C.2       6 UNK         0.4892 
     43 O          24.4936  -28.0069  -37.0678 O.2       6 UNK        -0.5089 
     44 N          23.6659  -27.4324  -39.1112 N.am      7 UNK        -0.4243 
     45 CA         22.2323  -27.6843  -38.9411 C.3       7 UNK         0.0196 
     46 CB         21.6275  -26.8092  -37.8220 C.3       7 UNK        -0.2007 
     47 C          21.9398  -29.1856  -38.7777 C.2       7 UNK         0.5020 
     48 O          21.4041  -29.6062  -37.7499 O.2       7 UNK        -0.5147 
     49 N          22.3089  -29.9664  -39.7989 N.am      8 UNK        -0.4734 
     50 CA         22.0684  -31.4049  -39.8803 C.3       8 UNK         0.0238 
     51 CB         23.3711  -32.1588  -39.5655 C.3       8 UNK        -0.1912 
     52 C          21.5472  -31.7705  -41.2757 C.2       8 UNK         0.5038 
     53 O          21.8506  -31.0818  -42.2514 O.2       8 UNK        -0.5046 
     54 N          20.7858  -32.8684  -41.3354 N.am      9 UNK        -0.4200 
     55 CA         20.2207  -33.4430  -42.5618 C.3       9 UNK         0.0839 
     56 C          21.3169  -33.9774  -43.5237 C.2       9 UNK         0.5513 
     57 N          21.2144  -33.6853  -44.8132 N.am      9 UNK        -0.7519 
     58 O          22.2350  -34.6834  -43.1108 O.2       9 UNK        -0.4960 
     59 C59        19.1757  -34.5327  -42.1980 C.3       10 UNK        -0.0876 
     60 S60        18.0114  -34.9100  -43.5509 S.3       10 UNK        -0.2414 
     61 C61        16.6194  -33.8015  -43.1580 C.3       10 UNK         0.0169 
     62 H62        14.8493  -22.9890  -41.8835 H         1 UNK         0.0903 
     63 H63        16.4451  -22.5040  -41.3070 H         1 UNK         0.0903 
     64 H64        15.9549  -22.1328  -42.9614 H         1 UNK         0.0903 
     65 H65        17.9034  -24.2064  -41.2439 H         1 UNK         0.3096 
     66 H66        17.4052  -26.6759  -42.6952 H         1 UNK         0.1121 
     67 H67        19.7406  -26.0299  -40.8309 H         1 UNK         0.0849 
     68 H68        18.1892  -26.5755  -40.2660 H         1 UNK         0.0849 
     69 H69        17.7391  -29.7859  -40.3377 H         1 UNK         0.0865 
     70 H70        16.9282  -28.5200  -41.2239 H         1 UNK         0.0865 
     71 H71        17.0178  -31.8623  -41.2670 H         1 UNK         0.1346 
     72 H72        17.1026  -32.5250  -45.5044 H         1 UNK         0.1412 
     73 H73        18.0309  -28.6573  -43.9264 H         1 UNK         0.1426 
     74 H74        17.8749  -28.9410  -46.3045 H         1 UNK         0.0716 
     75 H75        17.1174  -30.3711  -46.9448 H         1 UNK         0.0716 
     76 H76        21.5430  -30.6967  -45.6600 H         1 UNK         0.0695 
     77 H77        20.3219  -29.9525  -44.6796 H         1 UNK         0.0695 
     78 H78        21.5095  -28.6167  -47.1727 H         1 UNK         0.0983 
     79 H79        19.5254  -27.7387  -45.2537 H         1 UNK         0.3095 
     80 H80        19.6604  -24.3579  -45.9321 H         1 UNK         0.0454 
     81 H81        18.5391  -24.9352  -48.0938 H         1 UNK         0.0851 
     82 H82        17.3727  -24.4261  -46.8863 H         1 UNK         0.0851 
     83 H83        17.5537  -26.1377  -47.2732 H         1 UNK         0.0851 
     84 H84        17.5080  -25.6425  -44.7707 H         1 UNK         0.2976 
     85 H85        21.7030  -26.8175  -44.2448 H         1 UNK         0.3116 
     86 H86        23.3261  -25.9862  -43.0430 H         1 UNK         0.0646 
     87 H87        24.3349  -25.3119  -45.2115 H         1 UNK         0.0847 
     88 H88        25.2532  -26.8077  -45.2893 H         1 UNK         0.0847 
     89 H89        25.5754  -25.6299  -44.0178 H         1 UNK         0.0847 
     90 H90        26.1136  -27.7146  -43.5777 H         1 UNK         0.3040 
     91 H91        27.3352  -29.1551  -42.3851 H         1 UNK         0.1015 
     92 H92        26.3690  -31.4301  -42.1090 H         1 UNK         0.0786 
     93 H93        25.9103  -30.7518  -43.6621 H         1 UNK         0.0786 
     94 H94        24.7454  -30.7943  -42.3437 H         1 UNK         0.0786 
     95 H95        26.3918  -27.0725  -40.8283 H         1 UNK         0.3172 
     96 H96        26.1757  -26.2578  -38.7806 H         1 UNK         0.0595 
     97 H97        27.1279  -27.4158  -36.8366 H         1 UNK         0.0839 
     98 H98        28.1846  -27.6512  -38.2182 H         1 UNK         0.0839 
     99 H99        27.1253  -28.9544  -37.6805 H         1 UNK         0.0839 
    100 H100       23.9355  -27.2238  -40.0634 H         1 UNK         0.2998 
    101 H101       21.7625  -27.3798  -39.8772 H         1 UNK         0.0822 
    102 H102       21.8290  -25.7519  -37.9931 H         1 UNK         0.0787 
    103 H103       20.5444  -26.9311  -37.7821 H         1 UNK         0.0787 
    104 H104       22.0186  -27.0718  -36.8388 H         1 UNK         0.0787 
    105 H105       22.6904  -29.5372  -40.6421 H         1 UNK         0.3055 
    106 H106       21.3065  -31.6933  -39.1524 H         1 UNK         0.1106 
    107 H107       23.7546  -31.8933  -38.5802 H         1 UNK         0.0828 
    108 H108       23.2145  -33.2380  -39.5751 H         1 UNK         0.0828 
    109 H109       24.1498  -31.9363  -40.2949 H         1 UNK         0.0828 
    110 H110       20.6301  -33.3969  -40.4904 H         1 UNK         0.2931 
    111 H111       19.7069  -32.6231  -43.0658 H         1 UNK         0.0412 
    112 H112       20.4534  -33.1184  -45.1543 H         1 UNK         0.3472 
    113 H113       21.9085  -34.0355  -45.4542 H         1 UNK         0.3472 
    114 H114       19.6701  -35.4575  -41.8940 H         1 UNK         0.0970 
    115 H115       18.5885  -34.2193  -41.3334 H         1 UNK         0.0970 
    116 H116       16.2828  -33.9819  -42.1359 H         1 UNK         0.0612 
    117 H117       15.7780  -34.0495  -43.8065 H         1 UNK         0.0612 
@<TRIPOS>BOND
     1    1    2 1    
     2    1   62 1    
     3    1   63 1    
     4    1   64 1    
     5    2    3 2    
     6    2    4 am   BACKBONE|DICT|INTERRES
     7    4    5 1    
     8    4   65 1    
     9    5    6 1    
    10    5   25 1    
    11    5   66 1    
    12    6    7 1    
    13    6   67 1    
    14    6   68 1    
    15    7    8 1    
    16    8    9 1    
    17    8   69 1    
    18    8   70 1    
    19    9   10 ar   
    20    9   14 ar   
    21   10   11 ar   
    22   10   71 1    
    23   11   12 ar   
    24   11   61 1    
    25   12   13 ar   
    26   12   72 1    
    27   13   14 ar   
    28   13   15 1    
    29   14   73 1    
    30   15   16 1    
    31   15   74 1    
    32   15   75 1    
    33   16   17 1    
    34   17   18 1    
    35   17   76 1    
    36   17   77 1    
    37   18   19 1    
    38   18   27 1    
    39   18   78 1    
    40   19   20 am   BACKBONE|DICT|INTERRES
    41   19   79 1    
    42   20   21 2    
    43   20   22 1    
    44   22   23 1    
    45   22   24 1    
    46   22   80 1    
    47   23   81 1    
    48   23   82 1    
    49   23   83 1    
    50   24   25 am   BACKBONE|DICT|INTERRES
    51   24   84 1    
    52   25   26 2    
    53   27   28 2    
    54   27   29 am   BACKBONE|DICT|INTERRES
    55   29   30 1    
    56   29   85 1    
    57   30   31 1    
    58   30   32 1    
    59   30   86 1    
    60   31   87 1    
    61   31   88 1    
    62   31   89 1    
    63   32   33 2    
    64   32   34 am   BACKBONE|DICT|INTERRES
    65   34   35 1    
    66   34   90 1    
    67   35   36 1    
    68   35   37 1    
    69   35   91 1    
    70   36   92 1    
    71   36   93 1    
    72   36   94 1    
    73   37   38 2    
    74   37   39 am   BACKBONE|DICT|INTERRES
    75   39   40 1    
    76   39   95 1    
    77   40   41 1    
    78   40   42 1    
    79   40   96 1    
    80   41   97 1    
    81   41   98 1    
    82   41   99 1    
    83   42   43 2    
    84   42   44 am   BACKBONE|DICT|INTERRES
    85   44   45 1    
    86   44  100 1    
    87   45   46 1    
    88   45   47 1    
    89   45  101 1    
    90   46  102 1    
    91   46  103 1    
    92   46  104 1    
    93   47   48 2    
    94   47   49 am   BACKBONE|DICT|INTERRES
    95   49   50 1    
    96   49  105 1    
    97   50   51 1    
    98   50   52 1    
    99   50  106 1    
   100   51  107 1    
   101   51  108 1    
   102   51  109 1    
   103   52   53 2    
   104   52   54 am   BACKBONE|DICT|INTERRES
   105   54   55 1    
   106   54  110 1    
   107   55   56 1    
   108   55   59 1    
   109   55  111 1    
   110   56   57 am   BACKBONE|DICT|INTERRES
   111   56   58 2    
   112   57  112 1    
   113   57  113 1    
   114   59   60 1    
   115   59  114 1    
   116   59  115 1    
   117   60   61 1    
   118   61  116 1    
   119   61  117 1    
@<TRIPOS>SUBSTRUCTURE
     1 UNK         1 GROUP             0       ****    0 ROOT    
