@<TRIPOS>MOLECULE
3R8
117   119    1
SMALL
USER_CHARGES


@<TRIPOS>ATOM
      1 CA         15.6713  -24.4469  -43.6254 C.3       0 UNK        -0.2013 
      2 C          16.6541  -24.6318  -44.7711 C.2       0 UNK         0.4866 
      3 O          17.2334  -23.6504  -45.2369 O.2       0 UNK        -0.5176 
      4 N          16.8266  -25.8734  -45.2456 N.am      1 UNK        -0.4884 
      5 CA         17.6425  -26.2112  -46.4206 C.3       1 UNK         0.0853 
      6 C6         17.3451  -27.6235  -46.9981 C.3       10 UNK        -0.0849 
      7 S7         15.5598  -28.0299  -47.0290 S.3       10 UNK        -0.2776 
      8 C8         15.4983  -29.7451  -46.3999 C.3       10 UNK         0.0316 
      9 C9         16.3016  -29.9633  -45.1213 C.ar      10 UNK        -0.0863 
     10 C10        17.3788  -30.8542  -45.1238 C.ar      10 UNK        -0.1009 
     11 C11        18.1304  -31.0666  -43.9657 C.ar      10 UNK        -0.0712 
     12 C12        17.8132  -30.3680  -42.7981 C.ar      10 UNK        -0.0894 
     13 C13        16.7311  -29.4838  -42.7784 C.ar      10 UNK        -0.0745 
     14 C14        15.9724  -29.2919  -43.9395 C.ar      10 UNK        -0.0972 
     15 C15        16.3699  -28.7415  -41.5027 C.3       10 UNK         0.0209 
     16 S16        16.8840  -27.0045  -41.6145 S.3       10 UNK        -0.2568 
     17 C17        18.2372  -26.8810  -40.3970 C.3       10 UNK        -0.0983 
     18 CA         19.6478  -27.2727  -40.9212 C.3       3 UNK         0.0876 
     19 N          19.8843  -26.8394  -42.3019 N.am      3 UNK        -0.4424 
     20 C          20.9820  -27.0902  -43.0318 C.2       2 UNK         0.4918 
     21 O          21.9729  -27.6821  -42.5978 O.2       2 UNK        -0.4875 
     22 CA         20.9556  -26.6156  -44.4958 C.3       2 UNK         0.0481 
     23 CB         21.9289  -27.4123  -45.3887 C.3       2 UNK        -0.1831 
     24 N          19.5920  -26.6753  -45.0272 N.am      2 UNK        -0.4498 
     25 C          19.1444  -26.0446  -46.1211 C.2       1 UNK         0.5027 
     26 O          19.8449  -25.3471  -46.8563 O.2       1 UNK        -0.4969 
     27 C          20.7270  -26.6926  -39.9876 C.2       3 UNK         0.5005 
     28 O          20.9097  -25.4723  -39.9820 O.2       3 UNK        -0.5279 
     29 N          21.4473  -27.5553  -39.2569 N.am      4 UNK        -0.4463 
     30 CA         22.5740  -27.2529  -38.3594 C.3       4 UNK         0.0283 
     31 CB         22.1808  -26.2746  -37.2351 C.3       4 UNK        -0.1875 
     32 C          23.8513  -26.7881  -39.0857 C.2       4 UNK         0.4949 
     33 O          24.9399  -27.2033  -38.6906 O.2       4 UNK        -0.5039 
     34 N          23.7098  -25.9932  -40.1549 N.am      5 UNK        -0.4663 
     35 CA         24.7836  -25.5219  -41.0362 C.3       5 UNK         0.0242 
     36 CB         24.1931  -24.5815  -42.0992 C.3       5 UNK        -0.1982 
     37 C          25.5702  -26.6649  -41.7010 C.2       5 UNK         0.5017 
     38 O          26.7968  -26.5884  -41.7751 O.2       5 UNK        -0.5012 
     39 N          24.8541  -27.7148  -42.1230 N.am      6 UNK        -0.4439 
     40 CA         25.4116  -28.9848  -42.5920 C.3       6 UNK         0.0297 
     41 CB         24.8633  -29.2870  -43.9989 C.3       6 UNK        -0.2006 
     42 C          25.0876  -30.1177  -41.6012 C.2       6 UNK         0.4892 
     43 O          25.0086  -31.2739  -42.0157 O.2       6 UNK        -0.5089 
     44 N          24.8790  -29.7789  -40.3184 N.am      7 UNK        -0.4243 
     45 CA         24.3923  -30.6511  -39.2446 C.3       7 UNK         0.0196 
     46 CB         25.4539  -31.7116  -38.8690 C.3       7 UNK        -0.2007 
     47 C          23.0064  -31.2248  -39.6003 C.2       7 UNK         0.5020 
     48 O          22.0482  -30.4556  -39.7047 O.2       7 UNK        -0.5147 
     49 N          22.9356  -32.5449  -39.8054 N.am      8 UNK        -0.4734 
     50 CA         21.7526  -33.2769  -40.2651 C.3       8 UNK         0.0238 
     51 CB         21.5959  -34.5460  -39.4067 C.3       8 UNK        -0.1912 
     52 C          21.8260  -33.6133  -41.7696 C.2       8 UNK         0.5038 
     53 O          21.1035  -34.5053  -42.2176 O.2       8 UNK        -0.5046 
     54 N          22.6840  -32.9040  -42.5164 N.am      9 UNK        -0.4200 
     55 CA         22.9890  -33.0836  -43.9450 C.3       9 UNK         0.0839 
     56 C          23.8218  -34.3688  -44.2335 C.2       9 UNK         0.5513 
     57 N          24.1672  -34.6210  -45.4896 N.am      9 UNK        -0.7519 
     58 O          24.1889  -35.1302  -43.3401 O.2       9 UNK        -0.4960 
     59 C59        21.7518  -32.9429  -44.8808 C.3       10 UNK        -0.0876 
     60 S60        20.7999  -31.4019  -44.6325 S.3       10 UNK        -0.2414 
     61 C61        19.2519  -32.0894  -43.9720 C.3       10 UNK         0.0169 
     62 H62        15.0997  -25.3539  -43.4297 H         1 UNK         0.0903 
     63 H63        16.2024  -24.1715  -42.7147 H         1 UNK         0.0903 
     64 H64        14.9651  -23.6513  -43.8611 H         1 UNK         0.0903 
     65 H65        16.3112  -26.6419  -44.8405 H         1 UNK         0.3096 
     66 H66        17.3905  -25.4868  -47.1990 H         1 UNK         0.1121 
     67 H67        17.8859  -28.3898  -46.4433 H         1 UNK         0.0849 
     68 H68        17.7236  -27.6904  -48.0197 H         1 UNK         0.0849 
     69 H69        14.4576  -30.0148  -46.2151 H         1 UNK         0.0865 
     70 H70        15.8458  -30.4124  -47.1903 H         1 UNK         0.0865 
     71 H71        17.6335  -31.3922  -46.0270 H         1 UNK         0.1346 
     72 H72        18.3969  -30.5280  -41.9019 H         1 UNK         0.1412 
     73 H73        15.1318  -28.6113  -43.9259 H         1 UNK         0.1426 
     74 H74        16.8171  -29.2207  -40.6306 H         1 UNK         0.0716 
     75 H75        15.2900  -28.7813  -41.3528 H         1 UNK         0.0716 
     76 H76        17.9846  -27.4704  -39.5139 H         1 UNK         0.0695 
     77 H77        18.2271  -25.8405  -40.0645 H         1 UNK         0.0695 
     78 H78        19.7246  -28.3622  -40.9168 H         1 UNK         0.0983 
     79 H79        19.1415  -26.2909  -42.7078 H         1 UNK         0.3095 
     80 H80        21.2721  -25.5709  -44.4875 H         1 UNK         0.0454 
     81 H81        21.9102  -27.0679  -46.4221 H         1 UNK         0.0851 
     82 H82        21.6945  -28.4772  -45.3854 H         1 UNK         0.0851 
     83 H83        22.9545  -27.2982  -45.0384 H         1 UNK         0.0851 
     84 H84        18.9410  -27.2471  -44.5057 H         1 UNK         0.2976 
     85 H85        21.2995  -28.5501  -39.4075 H         1 UNK         0.3116 
     86 H86        22.8163  -28.2020  -37.8806 H         1 UNK         0.0646 
     87 H87        21.9731  -25.2731  -37.6123 H         1 UNK         0.0847 
     88 H88        22.9876  -26.1802  -36.5072 H         1 UNK         0.0847 
     89 H89        21.2987  -26.6212  -36.6970 H         1 UNK         0.0847 
     90 H90        22.7646  -25.6862  -40.3696 H         1 UNK         0.3040 
     91 H91        25.4859  -24.9536  -40.4225 H         1 UNK         0.1015 
     92 H92        23.4624  -25.0906  -42.7287 H         1 UNK         0.0786 
     93 H93        24.9744  -24.1934  -42.7543 H         1 UNK         0.0786 
     94 H94        23.7004  -23.7240  -41.6404 H         1 UNK         0.0786 
     95 H95        23.8385  -27.6738  -42.0581 H         1 UNK         0.3172 
     96 H96        26.4995  -28.9272  -42.6580 H         1 UNK         0.0595 
     97 H97        23.7837  -29.4435  -43.9835 H         1 UNK         0.0839 
     98 H98        25.3170  -30.1885  -44.4126 H         1 UNK         0.0839 
     99 H99        25.0796  -28.4739  -44.6913 H         1 UNK         0.0839 
    100 H100       24.9863  -28.8039  -40.0633 H         1 UNK         0.2998 
    101 H101       24.2460  -30.0186  -38.3689 H         1 UNK         0.0822 
    102 H102       26.3812  -31.2338  -38.5524 H         1 UNK         0.0787 
    103 H103       25.1159  -32.3289  -38.0354 H         1 UNK         0.0787 
    104 H104       25.6987  -32.3759  -39.6983 H         1 UNK         0.0787 
    105 H105       23.7898  -33.0801  -39.7298 H         1 UNK         0.3055 
    106 H106       20.8592  -32.6635  -40.1273 H         1 UNK         0.1106 
    107 H107       20.6816  -35.0838  -39.6613 H         1 UNK         0.0828 
    108 H108       22.4298  -35.2344  -39.5491 H         1 UNK         0.0828 
    109 H109       21.5381  -34.3025  -38.3457 H         1 UNK         0.0828 
    110 H110       23.2921  -32.2390  -42.0504 H         1 UNK         0.2931 
    111 H111       23.6608  -32.2578  -44.1804 H         1 UNK         0.0412 
    112 H112       24.7156  -35.4439  -45.6875 H         1 UNK         0.3472 
    113 H113       23.9102  -34.0010  -46.2413 H         1 UNK         0.3472 
    114 H114       21.0992  -33.8107  -44.7756 H         1 UNK         0.0970 
    115 H115       22.0666  -32.9440  -45.9250 H         1 UNK         0.0970 
    116 H116       19.4226  -32.4640  -42.9629 H         1 UNK         0.0612 
    117 H117       18.9461  -32.9482  -44.5714 H         1 UNK         0.0612 
@<TRIPOS>BOND
     1    1    2 1    
     2    1   62 1    
     3    1   63 1    
     4    1   64 1    
     5    2    3 2    
     6    2    4 am   BACKBONE|DICT|INTERRES
     7    4    5 1    
     8    4   65 1    
     9    5    6 1    
    10    5   25 1    
    11    5   66 1    
    12    6    7 1    
    13    6   67 1    
    14    6   68 1    
    15    7    8 1    
    16    8    9 1    
    17    8   69 1    
    18    8   70 1    
    19    9   10 ar   
    20    9   14 ar   
    21   10   11 ar   
    22   10   71 1    
    23   11   12 ar   
    24   11   61 1    
    25   12   13 ar   
    26   12   72 1    
    27   13   14 ar   
    28   13   15 1    
    29   14   73 1    
    30   15   16 1    
    31   15   74 1    
    32   15   75 1    
    33   16   17 1    
    34   17   18 1    
    35   17   76 1    
    36   17   77 1    
    37   18   19 1    
    38   18   27 1    
    39   18   78 1    
    40   19   20 am   BACKBONE|DICT|INTERRES
    41   19   79 1    
    42   20   21 2    
    43   20   22 1    
    44   22   23 1    
    45   22   24 1    
    46   22   80 1    
    47   23   81 1    
    48   23   82 1    
    49   23   83 1    
    50   24   25 am   BACKBONE|DICT|INTERRES
    51   24   84 1    
    52   25   26 2    
    53   27   28 2    
    54   27   29 am   BACKBONE|DICT|INTERRES
    55   29   30 1    
    56   29   85 1    
    57   30   31 1    
    58   30   32 1    
    59   30   86 1    
    60   31   87 1    
    61   31   88 1    
    62   31   89 1    
    63   32   33 2    
    64   32   34 am   BACKBONE|DICT|INTERRES
    65   34   35 1    
    66   34   90 1    
    67   35   36 1    
    68   35   37 1    
    69   35   91 1    
    70   36   92 1    
    71   36   93 1    
    72   36   94 1    
    73   37   38 2    
    74   37   39 am   BACKBONE|DICT|INTERRES
    75   39   40 1    
    76   39   95 1    
    77   40   41 1    
    78   40   42 1    
    79   40   96 1    
    80   41   97 1    
    81   41   98 1    
    82   41   99 1    
    83   42   43 2    
    84   42   44 am   BACKBONE|DICT|INTERRES
    85   44   45 1    
    86   44  100 1    
    87   45   46 1    
    88   45   47 1    
    89   45  101 1    
    90   46  102 1    
    91   46  103 1    
    92   46  104 1    
    93   47   48 2    
    94   47   49 am   BACKBONE|DICT|INTERRES
    95   49   50 1    
    96   49  105 1    
    97   50   51 1    
    98   50   52 1    
    99   50  106 1    
   100   51  107 1    
   101   51  108 1    
   102   51  109 1    
   103   52   53 2    
   104   52   54 am   BACKBONE|DICT|INTERRES
   105   54   55 1    
   106   54  110 1    
   107   55   56 1    
   108   55   59 1    
   109   55  111 1    
   110   56   57 am   BACKBONE|DICT|INTERRES
   111   56   58 2    
   112   57  112 1    
   113   57  113 1    
   114   59   60 1    
   115   59  114 1    
   116   59  115 1    
   117   60   61 1    
   118   61  116 1    
   119   61  117 1    
@<TRIPOS>SUBSTRUCTURE
     1 UNK         1 GROUP             0       ****    0 ROOT    
