@<TRIPOS>MOLECULE
3R8
117   119    1
SMALL
USER_CHARGES


@<TRIPOS>ATOM
      1 CA         17.1169  -21.9173  -43.4284 C.3       0 UNK        -0.2013 
      2 C          17.0062  -23.1396  -44.3277 C.2       0 UNK         0.4866 
      3 O          16.2585  -23.1165  -45.3057 O.2       0 UNK        -0.5176 
      4 N          17.7474  -24.2037  -44.0063 N.am      1 UNK        -0.4884 
      5 CA         17.8341  -25.4511  -44.7634 C.3       1 UNK         0.0853 
      6 C6         16.5741  -26.3456  -44.6021 C.3       10 UNK        -0.0849 
      7 S7         16.3143  -27.4218  -46.0526 S.3       10 UNK        -0.2776 
      8 C8         15.2453  -28.7156  -45.3547 C.3       10 UNK         0.0316 
      9 C9         16.0379  -29.8044  -44.6438 C.ar      10 UNK        -0.0863 
     10 C10        16.6155  -30.8415  -45.3844 C.ar      10 UNK        -0.1009 
     11 C11        17.2589  -31.9040  -44.7415 C.ar      10 UNK        -0.0712 
     12 C12        17.3255  -31.9178  -43.3461 C.ar      10 UNK        -0.0894 
     13 C13        16.7736  -30.8760  -42.5939 C.ar      10 UNK        -0.0745 
     14 C14        16.1344  -29.8182  -43.2482 C.ar      10 UNK        -0.0972 
     15 C15        16.8033  -30.9438  -41.0738 C.3       10 UNK         0.0209 
     16 S16        18.4982  -30.9197  -40.4108 S.3       10 UNK        -0.2568 
     17 C17        18.8197  -29.1402  -40.1844 C.3       10 UNK        -0.0983 
     18 CA         20.1218  -28.7108  -40.9013 C.3       3 UNK         0.0876 
     19 N          19.9281  -28.5534  -42.3445 N.am      3 UNK        -0.4424 
     20 C          20.9215  -28.5070  -43.2401 C.2       2 UNK         0.4918 
     21 O          22.1089  -28.6571  -42.9481 O.2       2 UNK        -0.4875 
     22 CA         20.5367  -28.2187  -44.7030 C.3       2 UNK         0.0481 
     23 CB         20.3084  -29.5351  -45.4528 C.3       2 UNK        -0.1831 
     24 N          19.3518  -27.3736  -44.8898 N.am      2 UNK        -0.4498 
     25 C          19.1362  -26.1654  -44.3557 C.2       1 UNK         0.5027 
     26 O          19.9039  -25.6289  -43.5532 O.2       1 UNK        -0.4969 
     27 C          20.7489  -27.4711  -40.2268 C.2       3 UNK         0.5005 
     28 O          21.3617  -27.6301  -39.1706 O.2       3 UNK        -0.5279 
     29 N          20.6428  -26.2747  -40.8302 N.am      4 UNK        -0.4463 
     30 CA         21.2184  -25.0324  -40.2923 C.3       4 UNK         0.0283 
     31 CB         20.6498  -23.8162  -41.0412 C.3       4 UNK        -0.1875 
     32 C          22.7579  -25.0102  -40.3163 C.2       4 UNK         0.4949 
     33 O          23.3617  -24.2704  -39.5398 O.2       4 UNK        -0.5039 
     34 N          23.3661  -25.8414  -41.1747 N.am      5 UNK        -0.4663 
     35 CA         24.8097  -26.0902  -41.2132 C.3       5 UNK         0.0242 
     36 CB         25.1646  -26.7146  -42.5738 C.3       5 UNK        -0.1982 
     37 C          25.3020  -26.9937  -40.0639 C.2       5 UNK         0.5017 
     38 O          26.5121  -27.0765  -39.8538 O.2       5 UNK        -0.5012 
     39 N          24.3667  -27.6627  -39.3694 N.am      6 UNK        -0.4439 
     40 CA         24.5542  -28.6708  -38.3215 C.3       6 UNK         0.0297 
     41 CB         24.9570  -27.9761  -37.0038 C.3       6 UNK        -0.2006 
     42 C          25.5205  -29.8154  -38.7136 C.2       6 UNK         0.4892 
     43 O          26.5328  -30.0011  -38.0381 O.2       6 UNK        -0.5089 
     44 N          25.2605  -30.5885  -39.7774 N.am      7 UNK        -0.4243 
     45 CA         24.1521  -30.5506  -40.7296 C.3       7 UNK         0.0196 
     46 CB         22.9737  -31.3907  -40.2073 C.3       7 UNK        -0.2007 
     47 C          24.6796  -31.1116  -42.0531 C.2       7 UNK         0.5020 
     48 O          25.5207  -32.0140  -42.0338 O.2       7 UNK        -0.5147 
     49 N          24.1822  -30.5789  -43.1753 N.am      8 UNK        -0.4734 
     50 CA         24.5384  -31.0442  -44.5200 C.3       8 UNK         0.0238 
     51 CB         24.3103  -29.9138  -45.5367 C.3       8 UNK        -0.1912 
     52 C          23.7856  -32.3272  -44.9172 C.2       8 UNK         0.5038 
     53 O          24.3125  -33.1114  -45.7071 O.2       8 UNK        -0.5046 
     54 N          22.5916  -32.5281  -44.3455 N.am      9 UNK        -0.4200 
     55 CA         21.8397  -33.7878  -44.3943 C.3       9 UNK         0.0839 
     56 C          22.3262  -34.7294  -43.2635 C.2       9 UNK         0.5513 
     57 N          22.5674  -35.9965  -43.5669 N.am      9 UNK        -0.7519 
     58 O          22.4437  -34.3288  -42.1083 O.2       9 UNK        -0.4960 
     59 C59        20.3126  -33.5426  -44.2871 C.3       10 UNK        -0.0876 
     60 S60        19.6220  -32.8854  -45.8412 S.3       10 UNK        -0.2414 
     61 C61        17.8327  -33.0594  -45.5520 C.3       10 UNK         0.0169 
     62 H62        17.4168  -21.0467  -44.0142 H         1 UNK         0.0903 
     63 H63        16.1514  -21.7030  -42.9667 H         1 UNK         0.0903 
     64 H64        17.8508  -22.0604  -42.6327 H         1 UNK         0.0903 
     65 H65        18.4060  -24.1606  -43.2376 H         1 UNK         0.3096 
     66 H66        17.9498  -25.1751  -45.8143 H         1 UNK         0.1121 
     67 H67        15.6781  -25.7301  -44.5088 H         1 UNK         0.0849 
     68 H68        16.6209  -26.9363  -43.6857 H         1 UNK         0.0849 
     69 H69        14.5113  -28.2668  -44.6833 H         1 UNK         0.0865 
     70 H70        14.6695  -29.1641  -46.1658 H         1 UNK         0.0865 
     71 H71        16.5396  -30.8344  -46.4634 H         1 UNK         0.1346 
     72 H72        17.7952  -32.7489  -42.8386 H         1 UNK         0.1412 
     73 H73        15.6749  -29.0282  -42.6698 H         1 UNK         0.1426 
     74 H74        16.3265  -31.8740  -40.7618 H         1 UNK         0.0716 
     75 H75        16.2153  -30.1414  -40.6256 H         1 UNK         0.0716 
     76 H76        18.8881  -28.9781  -39.1065 H         1 UNK         0.0695 
     77 H77        17.9719  -28.5437  -40.5256 H         1 UNK         0.0695 
     78 H78        20.8565  -29.5047  -40.7599 H         1 UNK         0.0983 
     79 H79        18.9777  -28.4593  -42.6692 H         1 UNK         0.3095 
     80 H80        21.3817  -27.7018  -45.1614 H         1 UNK         0.0454 
     81 H81        20.2121  -29.3745  -46.5265 H         1 UNK         0.0851 
     82 H82        19.4015  -30.0292  -45.1058 H         1 UNK         0.0851 
     83 H83        21.1292  -30.2349  -45.3034 H         1 UNK         0.0851 
     84 H84        18.6371  -27.7381  -45.5077 H         1 UNK         0.2976 
     85 H85        20.1987  -26.2076  -41.7420 H         1 UNK         0.3116 
     86 H86        20.9105  -24.9531  -39.2474 H         1 UNK         0.0646 
     87 H87        20.9878  -23.7835  -42.0773 H         1 UNK         0.0847 
     88 H88        20.9734  -22.8871  -40.5702 H         1 UNK         0.0847 
     89 H89        19.5601  -23.8172  -41.0369 H         1 UNK         0.0847 
     90 H90        22.7909  -26.4014  -41.7896 H         1 UNK         0.3040 
     91 H91        25.3324  -25.1351  -41.1238 H         1 UNK         0.1015 
     92 H92        24.8688  -26.0657  -43.3983 H         1 UNK         0.0786 
     93 H93        24.6782  -27.6797  -42.7161 H         1 UNK         0.0786 
     94 H94        26.2398  -26.8773  -42.6614 H         1 UNK         0.0786 
     95 H95        23.3958  -27.4817  -39.5990 H         1 UNK         0.3172 
     96 H96        23.5793  -29.1310  -38.1585 H         1 UNK         0.0595 
     97 H97        25.9243  -27.4794  -37.0881 H         1 UNK         0.0839 
     98 H98        25.0287  -28.6955  -36.1871 H         1 UNK         0.0839 
     99 H99        24.2210  -27.2274  -36.7108 H         1 UNK         0.0839 
    100 H100       25.9456  -31.2910  -40.0277 H         1 UNK         0.2998 
    101 H101       23.8142  -29.5341  -40.9161 H         1 UNK         0.0822 
    102 H102       22.5331  -30.9562  -39.3106 H         1 UNK         0.0787 
    103 H103       22.1828  -31.4664  -40.9545 H         1 UNK         0.0787 
    104 H104       23.2836  -32.4090  -39.9685 H         1 UNK         0.0787 
    105 H105       23.4877  -29.8358  -43.1103 H         1 UNK         0.3055 
    106 H106       25.6038  -31.2875  -44.5343 H         1 UNK         0.1106 
    107 H107       24.5399  -30.2464  -46.5499 H         1 UNK         0.0828 
    108 H108       23.2820  -29.5587  -45.5344 H         1 UNK         0.0828 
    109 H109       24.9538  -29.0601  -45.3241 H         1 UNK         0.0828 
    110 H110       22.2740  -31.8517  -43.6693 H         1 UNK         0.2931 
    111 H111       22.0351  -34.2790  -45.3503 H         1 UNK         0.0412 
    112 H112       22.4640  -36.3352  -44.5110 H         1 UNK         0.3472 
    113 H113       22.8689  -36.6260  -42.8392 H         1 UNK         0.3472 
    114 H114       19.7900  -34.4750  -44.0634 H         1 UNK         0.0970 
    115 H115       20.0875  -32.8586  -43.4673 H         1 UNK         0.0970 
    116 H116       17.6251  -34.0083  -45.0554 H         1 UNK         0.0612 
    117 H117       17.3337  -33.1139  -46.5207 H         1 UNK         0.0612 
@<TRIPOS>BOND
     1    1    2 1    
     2    1   62 1    
     3    1   63 1    
     4    1   64 1    
     5    2    3 2    
     6    2    4 am   BACKBONE|DICT|INTERRES
     7    4    5 1    
     8    4   65 1    
     9    5    6 1    
    10    5   25 1    
    11    5   66 1    
    12    6    7 1    
    13    6   67 1    
    14    6   68 1    
    15    7    8 1    
    16    8    9 1    
    17    8   69 1    
    18    8   70 1    
    19    9   10 ar   
    20    9   14 ar   
    21   10   11 ar   
    22   10   71 1    
    23   11   12 ar   
    24   11   61 1    
    25   12   13 ar   
    26   12   72 1    
    27   13   14 ar   
    28   13   15 1    
    29   14   73 1    
    30   15   16 1    
    31   15   74 1    
    32   15   75 1    
    33   16   17 1    
    34   17   18 1    
    35   17   76 1    
    36   17   77 1    
    37   18   19 1    
    38   18   27 1    
    39   18   78 1    
    40   19   20 am   BACKBONE|DICT|INTERRES
    41   19   79 1    
    42   20   21 2    
    43   20   22 1    
    44   22   23 1    
    45   22   24 1    
    46   22   80 1    
    47   23   81 1    
    48   23   82 1    
    49   23   83 1    
    50   24   25 am   BACKBONE|DICT|INTERRES
    51   24   84 1    
    52   25   26 2    
    53   27   28 2    
    54   27   29 am   BACKBONE|DICT|INTERRES
    55   29   30 1    
    56   29   85 1    
    57   30   31 1    
    58   30   32 1    
    59   30   86 1    
    60   31   87 1    
    61   31   88 1    
    62   31   89 1    
    63   32   33 2    
    64   32   34 am   BACKBONE|DICT|INTERRES
    65   34   35 1    
    66   34   90 1    
    67   35   36 1    
    68   35   37 1    
    69   35   91 1    
    70   36   92 1    
    71   36   93 1    
    72   36   94 1    
    73   37   38 2    
    74   37   39 am   BACKBONE|DICT|INTERRES
    75   39   40 1    
    76   39   95 1    
    77   40   41 1    
    78   40   42 1    
    79   40   96 1    
    80   41   97 1    
    81   41   98 1    
    82   41   99 1    
    83   42   43 2    
    84   42   44 am   BACKBONE|DICT|INTERRES
    85   44   45 1    
    86   44  100 1    
    87   45   46 1    
    88   45   47 1    
    89   45  101 1    
    90   46  102 1    
    91   46  103 1    
    92   46  104 1    
    93   47   48 2    
    94   47   49 am   BACKBONE|DICT|INTERRES
    95   49   50 1    
    96   49  105 1    
    97   50   51 1    
    98   50   52 1    
    99   50  106 1    
   100   51  107 1    
   101   51  108 1    
   102   51  109 1    
   103   52   53 2    
   104   52   54 am   BACKBONE|DICT|INTERRES
   105   54   55 1    
   106   54  110 1    
   107   55   56 1    
   108   55   59 1    
   109   55  111 1    
   110   56   57 am   BACKBONE|DICT|INTERRES
   111   56   58 2    
   112   57  112 1    
   113   57  113 1    
   114   59   60 1    
   115   59  114 1    
   116   59  115 1    
   117   60   61 1    
   118   61  116 1    
   119   61  117 1    
@<TRIPOS>SUBSTRUCTURE
     1 UNK         1 GROUP             0       ****    0 ROOT    
