@<TRIPOS>MOLECULE
3R8
117   119    1
SMALL
USER_CHARGES


@<TRIPOS>ATOM
      1 CA         14.2819  -26.3506  -40.4448 C.3       0 UNK        -0.2013 
      2 C          14.9824  -26.0167  -41.7531 C.2       0 UNK         0.4866 
      3 O          15.3503  -24.8633  -41.9747 O.2       0 UNK        -0.5176 
      4 N          15.1746  -27.0182  -42.6209 N.am      1 UNK        -0.4884 
      5 CA         15.8375  -26.8869  -43.9263 C.3       1 UNK         0.0853 
      6 C6         15.3499  -27.9658  -44.9284 C.3       10 UNK        -0.0849 
      7 S7         15.5482  -29.6863  -44.3403 S.3       10 UNK        -0.2776 
      8 C8         16.6124  -30.4218  -45.6279 C.3       10 UNK         0.0316 
      9 C9         18.0981  -30.1753  -45.3905 C.ar      10 UNK        -0.0863 
     10 C10        18.7142  -30.6876  -44.2454 C.ar      10 UNK        -0.1009 
     11 C11        20.0884  -30.5322  -44.0470 C.ar      10 UNK        -0.0712 
     12 C12        20.8519  -29.8542  -45.0017 C.ar      10 UNK        -0.0894 
     13 C13        20.2500  -29.3315  -46.1490 C.ar      10 UNK        -0.0745 
     14 C14        18.8715  -29.4923  -46.3365 C.ar      10 UNK        -0.0972 
     15 C15        21.0939  -28.6407  -47.2119 C.3       10 UNK         0.0209 
     16 S16        21.0804  -26.8273  -47.0459 S.3       10 UNK        -0.2568 
     17 C17        22.4768  -26.4912  -45.9155 C.3       10 UNK        -0.0983 
     18 CA         22.0193  -25.7131  -44.6540 C.3       3 UNK         0.0876 
     19 N          21.1783  -26.5572  -43.8024 N.am      3 UNK        -0.4424 
     20 C          20.2382  -26.1248  -42.9578 C.2       2 UNK         0.4918 
     21 O          20.0409  -24.9408  -42.6791 O.2       2 UNK        -0.4875 
     22 CA         19.3660  -27.2222  -42.3255 C.3       2 UNK         0.0481 
     23 CB         19.5536  -27.2538  -40.8000 C.3       2 UNK        -0.1831 
     24 N          17.9381  -27.1070  -42.6432 N.am      2 UNK        -0.4498 
     25 C          17.3788  -26.8477  -43.8392 C.2       1 UNK         0.5027 
     26 O          18.0105  -26.5943  -44.8649 O.2       1 UNK        -0.4969 
     27 C          23.2094  -25.0645  -43.9083 C.2       3 UNK         0.5005 
     28 O          24.0292  -24.4086  -44.5529 O.2       3 UNK        -0.5279 
     29 N          23.3154  -25.2615  -42.5844 N.am      4 UNK        -0.4463 
     30 CA         24.3181  -24.7357  -41.6408 C.3       4 UNK         0.0283 
     31 CB         24.3905  -23.1965  -41.6658 C.3       4 UNK        -0.1875 
     32 C          25.7125  -25.3673  -41.7905 C.2       4 UNK         0.4949 
     33 O          26.3615  -25.6376  -40.7803 O.2       4 UNK        -0.5039 
     34 N          26.1211  -25.6597  -43.0319 N.am      5 UNK        -0.4663 
     35 CA         27.2503  -26.5348  -43.3666 C.3       5 UNK         0.0242 
     36 CB         27.5564  -26.4056  -44.8672 C.3       5 UNK        -0.1982 
     37 C          26.9826  -28.0072  -42.9929 C.2       5 UNK         0.5017 
     38 O          27.9312  -28.7711  -42.8120 O.2       5 UNK        -0.5012 
     39 N          25.6995  -28.3612  -42.8631 N.am      6 UNK        -0.4439 
     40 CA         25.1867  -29.6029  -42.3070 C.3       6 UNK         0.0297 
     41 CB         24.8855  -30.5967  -43.4407 C.3       6 UNK        -0.2006 
     42 C          23.9183  -29.2544  -41.5195 C.2       6 UNK         0.4892 
     43 O          23.2365  -28.2806  -41.8570 O.2       6 UNK        -0.5089 
     44 N          23.6133  -30.0682  -40.5071 N.am      7 UNK        -0.4243 
     45 CA         22.4321  -29.9701  -39.6558 C.3       7 UNK         0.0196 
     46 CB         22.6894  -28.9735  -38.5115 C.3       7 UNK        -0.2007 
     47 C          22.1115  -31.3713  -39.1220 C.2       7 UNK         0.5020 
     48 O          22.9966  -32.2310  -39.1110 O.2       7 UNK        -0.5147 
     49 N          20.8577  -31.5678  -38.6867 N.am      8 UNK        -0.4734 
     50 CA         20.2959  -32.8232  -38.1588 C.3       8 UNK         0.0238 
     51 CB         20.9400  -33.1841  -36.8022 C.3       8 UNK        -0.1912 
     52 C          20.3475  -33.9827  -39.1771 C.2       8 UNK         0.5038 
     53 O          20.6807  -35.1133  -38.8165 O.2       8 UNK        -0.5046 
     54 N          20.0249  -33.6654  -40.4376 N.am      9 UNK        -0.4200 
     55 CA         20.0609  -34.5882  -41.5851 C.3       9 UNK         0.0839 
     56 C          18.9273  -35.6553  -41.6042 C.2       9 UNK         0.5513 
     57 N          17.8943  -35.5489  -40.7768 N.am      9 UNK        -0.7519 
     58 O          18.9902  -36.6010  -42.3853 O.2       9 UNK        -0.4960 
     59 C59        20.1180  -33.8234  -42.9351 C.3       10 UNK        -0.0876 
     60 S60        21.5397  -32.6823  -43.0478 S.3       10 UNK        -0.2414 
     61 C61        20.7486  -31.0652  -42.7879 C.3       10 UNK         0.0169 
     62 H62        14.9293  -26.1138  -39.6009 H         1 UNK         0.0903 
     63 H63        13.3686  -25.7640  -40.3485 H         1 UNK         0.0903 
     64 H64        14.0149  -27.4055  -40.3821 H         1 UNK         0.0903 
     65 H65        14.8546  -27.9512  -42.3968 H         1 UNK         0.3096 
     66 H66        15.5512  -25.9189  -44.3449 H         1 UNK         0.1121 
     67 H67        15.8426  -27.8412  -45.8948 H         1 UNK         0.0849 
     68 H68        14.2887  -27.8115  -45.1291 H         1 UNK         0.0849 
     69 H69        16.4433  -31.4995  -45.6368 H         1 UNK         0.0865 
     70 H70        16.3037  -30.0653  -46.6118 H         1 UNK         0.0865 
     71 H71        18.1175  -31.2097  -43.5103 H         1 UNK         0.1346 
     72 H72        21.9171  -29.7441  -44.8553 H         1 UNK         0.1412 
     73 H73        18.4062  -29.0970  -47.2291 H         1 UNK         0.1426 
     74 H74        20.7034  -28.8963  -48.1980 H         1 UNK         0.0716 
     75 H75        22.1201  -29.0111  -47.1958 H         1 UNK         0.0716 
     76 H76        23.2051  -25.9166  -46.4908 H         1 UNK         0.0695 
     77 H77        22.9779  -27.4196  -45.6365 H         1 UNK         0.0695 
     78 H78        21.4082  -24.8721  -44.9902 H         1 UNK         0.0983 
     79 H79        21.2502  -27.5502  -43.9668 H         1 UNK         0.3095 
     80 H80        19.6914  -28.1861  -42.7142 H         1 UNK         0.0454 
     81 H81        20.6099  -27.3328  -40.5383 H         1 UNK         0.0851 
     82 H82        19.0451  -28.1076  -40.3525 H         1 UNK         0.0851 
     83 H83        19.1699  -26.3476  -40.3295 H         1 UNK         0.0851 
     84 H84        17.2997  -27.2780  -41.8812 H         1 UNK         0.2976 
     85 H85        22.6423  -25.8958  -42.1738 H         1 UNK         0.3116 
     86 H86        23.9559  -25.0251  -40.6529 H         1 UNK         0.0646 
     87 H87        24.7913  -22.8182  -42.6064 H         1 UNK         0.0847 
     88 H88        23.4075  -22.7505  -41.5154 H         1 UNK         0.0847 
     89 H89        25.0390  -22.8276  -40.8702 H         1 UNK         0.0847 
     90 H90        25.5378  -25.3313  -43.7973 H         1 UNK         0.3040 
     91 H91        28.1235  -26.2038  -42.8001 H         1 UNK         0.1015 
     92 H92        28.4071  -27.0288  -45.1471 H         1 UNK         0.0786 
     93 H93        27.8068  -25.3786  -45.1338 H         1 UNK         0.0786 
     94 H94        26.7088  -26.7147  -45.4805 H         1 UNK         0.0786 
     95 H95        24.9922  -27.6453  -42.9701 H         1 UNK         0.3172 
     96 H96        25.9198  -30.0334  -41.6213 H         1 UNK         0.0595 
     97 H97        24.1548  -30.1974  -44.1441 H         1 UNK         0.0839 
     98 H98        24.4843  -31.5313  -43.0467 H         1 UNK         0.0839 
     99 H99        25.7879  -30.8422  -44.0007 H         1 UNK         0.0839 
    100 H100       24.1776  -30.8903  -40.3261 H         1 UNK         0.2998 
    101 H101       21.5840  -29.6255  -40.2494 H         1 UNK         0.0822 
    102 H102       21.8182  -28.8858  -37.8613 H         1 UNK         0.0787 
    103 H103       23.5314  -29.2837  -37.8913 H         1 UNK         0.0787 
    104 H104       22.9068  -27.9766  -38.8957 H         1 UNK         0.0787 
    105 H105       20.2144  -30.7883  -38.7219 H         1 UNK         0.3055 
    106 H106       19.2364  -32.6368  -37.9741 H         1 UNK         0.1106 
    107 H107       20.8680  -32.3573  -36.0958 H         1 UNK         0.0828 
    108 H108       20.4406  -34.0406  -36.3477 H         1 UNK         0.0828 
    109 H109       21.9938  -33.4435  -36.9085 H         1 UNK         0.0828 
    110 H110       19.7630  -32.7143  -40.6406 H         1 UNK         0.2931 
    111 H111       20.9913  -35.1536  -41.5008 H         1 UNK         0.0412 
    112 H112       17.8324  -34.7801  -40.1294 H         1 UNK         0.3472 
    113 H113       17.1700  -36.2499  -40.7988 H         1 UNK         0.3472 
    114 H114       20.2085  -34.5281  -43.7641 H         1 UNK         0.0970 
    115 H115       19.1874  -33.2829  -43.1087 H         1 UNK         0.0970 
    116 H116       20.0330  -31.1208  -41.9670 H         1 UNK         0.0612 
    117 H117       21.5122  -30.3573  -42.4765 H         1 UNK         0.0612 
@<TRIPOS>BOND
     1    1    2 1    
     2    1   62 1    
     3    1   63 1    
     4    1   64 1    
     5    2    3 2    
     6    2    4 am   BACKBONE|DICT|INTERRES
     7    4    5 1    
     8    4   65 1    
     9    5    6 1    
    10    5   25 1    
    11    5   66 1    
    12    6    7 1    
    13    6   67 1    
    14    6   68 1    
    15    7    8 1    
    16    8    9 1    
    17    8   69 1    
    18    8   70 1    
    19    9   10 ar   
    20    9   14 ar   
    21   10   11 ar   
    22   10   71 1    
    23   11   12 ar   
    24   11   61 1    
    25   12   13 ar   
    26   12   72 1    
    27   13   14 ar   
    28   13   15 1    
    29   14   73 1    
    30   15   16 1    
    31   15   74 1    
    32   15   75 1    
    33   16   17 1    
    34   17   18 1    
    35   17   76 1    
    36   17   77 1    
    37   18   19 1    
    38   18   27 1    
    39   18   78 1    
    40   19   20 am   BACKBONE|DICT|INTERRES
    41   19   79 1    
    42   20   21 2    
    43   20   22 1    
    44   22   23 1    
    45   22   24 1    
    46   22   80 1    
    47   23   81 1    
    48   23   82 1    
    49   23   83 1    
    50   24   25 am   BACKBONE|DICT|INTERRES
    51   24   84 1    
    52   25   26 2    
    53   27   28 2    
    54   27   29 am   BACKBONE|DICT|INTERRES
    55   29   30 1    
    56   29   85 1    
    57   30   31 1    
    58   30   32 1    
    59   30   86 1    
    60   31   87 1    
    61   31   88 1    
    62   31   89 1    
    63   32   33 2    
    64   32   34 am   BACKBONE|DICT|INTERRES
    65   34   35 1    
    66   34   90 1    
    67   35   36 1    
    68   35   37 1    
    69   35   91 1    
    70   36   92 1    
    71   36   93 1    
    72   36   94 1    
    73   37   38 2    
    74   37   39 am   BACKBONE|DICT|INTERRES
    75   39   40 1    
    76   39   95 1    
    77   40   41 1    
    78   40   42 1    
    79   40   96 1    
    80   41   97 1    
    81   41   98 1    
    82   41   99 1    
    83   42   43 2    
    84   42   44 am   BACKBONE|DICT|INTERRES
    85   44   45 1    
    86   44  100 1    
    87   45   46 1    
    88   45   47 1    
    89   45  101 1    
    90   46  102 1    
    91   46  103 1    
    92   46  104 1    
    93   47   48 2    
    94   47   49 am   BACKBONE|DICT|INTERRES
    95   49   50 1    
    96   49  105 1    
    97   50   51 1    
    98   50   52 1    
    99   50  106 1    
   100   51  107 1    
   101   51  108 1    
   102   51  109 1    
   103   52   53 2    
   104   52   54 am   BACKBONE|DICT|INTERRES
   105   54   55 1    
   106   54  110 1    
   107   55   56 1    
   108   55   59 1    
   109   55  111 1    
   110   56   57 am   BACKBONE|DICT|INTERRES
   111   56   58 2    
   112   57  112 1    
   113   57  113 1    
   114   59   60 1    
   115   59  114 1    
   116   59  115 1    
   117   60   61 1    
   118   61  116 1    
   119   61  117 1    
@<TRIPOS>SUBSTRUCTURE
     1 UNK         1 GROUP             0       ****    0 ROOT    
