@<TRIPOS>MOLECULE
3R8
117   119    1
SMALL
USER_CHARGES


@<TRIPOS>ATOM
      1 CA         18.1525  -21.6854  -45.4434 C.3       0 UNK        -0.2013 
      2 C          18.6047  -23.0195  -46.0186 C.2       0 UNK         0.4866 
      3 O          19.5239  -23.0525  -46.8378 O.2       0 UNK        -0.5176 
      4 N          17.9613  -24.1179  -45.6030 N.am      1 UNK        -0.4884 
      5 CA         18.3148  -25.4874  -45.9927 C.3       1 UNK         0.0853 
      6 C6         17.1103  -26.4494  -45.8118 C.3       10 UNK        -0.0849 
      7 S7         17.1285  -27.8042  -47.0329 S.3       10 UNK        -0.2776 
      8 C8         15.7384  -28.8275  -46.4555 C.3       10 UNK         0.0316 
      9 C9         16.1625  -29.7959  -45.3606 C.ar      10 UNK        -0.0863 
     10 C10        16.7347  -31.0252  -45.7012 C.ar      10 UNK        -0.1009 
     11 C11        17.1026  -31.9387  -44.7092 C.ar      10 UNK        -0.0712 
     12 C12        16.8931  -31.6156  -43.3653 C.ar      10 UNK        -0.0894 
     13 C13        16.3320  -30.3850  -43.0105 C.ar      10 UNK        -0.0745 
     14 C14        15.9631  -29.4812  -44.0130 C.ar      10 UNK        -0.0972 
     15 C15        16.1126  -30.0367  -41.5437 C.3       10 UNK         0.0209 
     16 S16        17.6751  -29.8678  -40.6194 S.3       10 UNK        -0.2568 
     17 C17        18.4539  -28.4408  -41.4458 C.3       10 UNK        -0.0983 
     18 CA         19.9959  -28.5951  -41.5183 C.3       3 UNK         0.0876 
     19 N          20.5411  -28.0013  -42.7319 N.am      3 UNK        -0.4424 
     20 C          20.6868  -28.6276  -43.9008 C.2       2 UNK         0.4918 
     21 O          20.3552  -29.7944  -44.0977 O.2       2 UNK        -0.4875 
     22 CA         21.2542  -27.7896  -45.0588 C.3       2 UNK         0.0481 
     23 CB         21.9888  -28.6598  -46.0942 C.3       2 UNK        -0.1831 
     24 N          20.1734  -27.0605  -45.7204 N.am      2 UNK        -0.4498 
     25 C          19.5555  -25.9837  -45.2182 C.2       1 UNK         0.5027 
     26 O          19.9070  -25.4193  -44.1775 O.2       1 UNK        -0.4969 
     27 C          20.6977  -27.9566  -40.3092 C.2       3 UNK         0.5005 
     28 O          21.3217  -26.8991  -40.4478 O.2       3 UNK        -0.5279 
     29 N          20.5713  -28.6039  -39.1414 N.am      4 UNK        -0.4463 
     30 CA         21.1506  -28.2097  -37.8522 C.3       4 UNK         0.0283 
     31 CB         20.3992  -26.9859  -37.2792 C.3       4 UNK        -0.1875 
     32 C          22.6776  -28.0253  -37.9528 C.2       4 UNK         0.4949 
     33 O          23.3801  -29.0034  -38.2065 O.2       4 UNK        -0.5039 
     34 N          23.1617  -26.7872  -37.7897 N.am      5 UNK        -0.4663 
     35 CA         24.5740  -26.4183  -37.9089 C.3       5 UNK         0.0242 
     36 CB         24.7641  -24.9824  -37.3945 C.3       5 UNK        -0.1982 
     37 C          25.1406  -26.5571  -39.3340 C.2       5 UNK         0.5017 
     38 O          26.3495  -26.7486  -39.4756 O.2       5 UNK        -0.5012 
     39 N          24.2839  -26.4801  -40.3639 N.am      6 UNK        -0.4439 
     40 CA         24.6647  -26.6297  -41.7702 C.3       6 UNK         0.0297 
     41 CB         23.7088  -25.8103  -42.6549 C.3       6 UNK        -0.2006 
     42 C          24.7295  -28.1170  -42.1599 C.2       6 UNK         0.4892 
     43 O          23.9134  -28.5917  -42.9506 O.2       6 UNK        -0.5089 
     44 N          25.6974  -28.8249  -41.5602 N.am      7 UNK        -0.4243 
     45 CA         26.0673  -30.2312  -41.7775 C.3       7 UNK         0.0196 
     46 CB         26.5589  -30.4415  -43.2259 C.3       7 UNK        -0.2007 
     47 C          24.9962  -31.2704  -41.3874 C.2       7 UNK         0.5020 
     48 O          25.1760  -32.4490  -41.6960 O.2       7 UNK        -0.5147 
     49 N          23.9097  -30.8419  -40.7264 N.am      8 UNK        -0.4734 
     50 CA         22.7819  -31.6515  -40.2368 C.3       8 UNK         0.0238 
     51 CB         23.2279  -32.4953  -39.0242 C.3       8 UNK        -0.1912 
     52 C          22.0820  -32.5067  -41.3172 C.2       8 UNK         0.5038 
     53 O          21.4989  -33.5405  -40.9866 O.2       8 UNK        -0.5046 
     54 N          22.1620  -32.0724  -42.5829 N.am      9 UNK        -0.4200 
     55 CA         21.7285  -32.8168  -43.7776 C.3       9 UNK         0.0839 
     56 C          22.5924  -34.0814  -44.0907 C.2       9 UNK         0.5513 
     57 N          23.7929  -34.2219  -43.5397 N.am      9 UNK        -0.7519 
     58 O          22.1893  -34.9460  -44.8642 O.2       9 UNK        -0.4960 
     59 C59        20.1938  -33.0863  -43.7849 C.3       10 UNK        -0.0876 
     60 S60        19.4848  -33.1388  -45.4663 S.3       10 UNK        -0.2414 
     61 C61        17.7092  -33.2790  -45.0971 C.3       10 UNK         0.0169 
     62 H62        17.3216  -21.8010  -44.7477 H         1 UNK         0.0903 
     63 H63        18.9754  -21.2085  -44.9119 H         1 UNK         0.0903 
     64 H64        17.8330  -21.0199  -46.2449 H         1 UNK         0.0903 
     65 H65        17.2427  -24.0327  -44.8983 H         1 UNK         0.3096 
     66 H66        18.5826  -25.4571  -47.0520 H         1 UNK         0.1121 
     67 H67        16.1720  -25.9116  -45.9596 H         1 UNK         0.0849 
     68 H68        17.0655  -26.8554  -44.7991 H         1 UNK         0.0849 
     69 H69        14.9208  -28.1902  -46.1147 H         1 UNK         0.0865 
     70 H70        15.3444  -29.3903  -47.3032 H         1 UNK         0.0865 
     71 H71        16.8950  -31.2729  -46.7418 H         1 UNK         0.1346 
     72 H72        17.1755  -32.3166  -42.5918 H         1 UNK         0.1412 
     73 H73        15.5187  -28.5326  -43.7445 H         1 UNK         0.1426 
     74 H74        15.5124  -30.8201  -41.0789 H         1 UNK         0.0716 
     75 H75        15.5406  -29.1130  -41.4428 H         1 UNK         0.0716 
     76 H76        18.1533  -27.5196  -40.9424 H         1 UNK         0.0695 
     77 H77        18.0445  -28.3631  -42.4531 H         1 UNK         0.0695 
     78 H78        20.2642  -29.6543  -41.5237 H         1 UNK         0.0983 
     79 H79        20.8348  -27.0370  -42.6352 H         1 UNK         0.3095 
     80 H80        21.9732  -27.0752  -44.6559 H         1 UNK         0.0454 
     81 H81        21.3223  -29.3829  -46.5664 H         1 UNK         0.0851 
     82 H82        22.7954  -29.2212  -45.6204 H         1 UNK         0.0851 
     83 H83        22.4359  -28.0506  -46.8796 H         1 UNK         0.0851 
     84 H84        19.7751  -27.4998  -46.5391 H         1 UNK         0.2976 
     85 H85        20.0159  -29.4489  -39.1263 H         1 UNK         0.3116 
     86 H86        20.9905  -29.0448  -37.1685 H         1 UNK         0.0646 
     87 H87        20.4668  -26.1132  -37.9298 H         1 UNK         0.0847 
     88 H88        20.7885  -26.7052  -36.2995 H         1 UNK         0.0847 
     89 H89        19.3407  -27.2090  -37.1456 H         1 UNK         0.0847 
     90 H90        22.5081  -26.0377  -37.6137 H         1 UNK         0.3040 
     91 H91        25.1498  -27.0908  -37.2688 H         1 UNK         0.1015 
     92 H92        24.1955  -24.2629  -37.9853 H         1 UNK         0.0786 
     93 H93        25.8132  -24.6862  -37.4422 H         1 UNK         0.0786 
     94 H94        24.4506  -24.8876  -36.3547 H         1 UNK         0.0786 
     95 H95        23.2882  -26.4088  -40.1723 H         1 UNK         0.3172 
     96 H96        25.6644  -26.2154  -41.9186 H         1 UNK         0.0595 
     97 H97        23.9739  -25.9067  -43.7085 H         1 UNK         0.0839 
     98 H98        23.7533  -24.7499  -42.4069 H         1 UNK         0.0839 
     99 H99        22.6751  -26.1315  -42.5465 H         1 UNK         0.0839 
    100 H100       26.2609  -28.3265  -40.8786 H         1 UNK         0.2998 
    101 H101       26.9123  -30.4200  -41.1138 H         1 UNK         0.0822 
    102 H102       26.9788  -31.4395  -43.3589 H         1 UNK         0.0787 
    103 H103       25.7490  -30.3331  -43.9481 H         1 UNK         0.0787 
    104 H104       27.3401  -29.7280  -43.4879 H         1 UNK         0.0787 
    105 H105       23.8671  -29.8576  -40.4975 H         1 UNK         0.3055 
    106 H106       22.0305  -30.9462  -39.8829 H         1 UNK         0.1106 
    107 H107       22.3791  -32.9971  -38.5579 H         1 UNK         0.0828 
    108 H108       23.9451  -33.2651  -39.3109 H         1 UNK         0.0828 
    109 H109       23.6911  -31.8725  -38.2587 H         1 UNK         0.0828 
    110 H110       22.6636  -31.2139  -42.7622 H         1 UNK         0.2931 
    111 H111       21.9416  -32.1293  -44.5971 H         1 UNK         0.0412 
    112 H112       24.3383  -35.0397  -43.7603 H         1 UNK         0.3472 
    113 H113       24.1652  -33.5318  -42.8928 H         1 UNK         0.3472 
    114 H114       19.9536  -34.0094  -43.2546 H         1 UNK         0.0970 
    115 H115       19.6804  -32.2880  -43.2475 H         1 UNK         0.0970 
    116 H116       17.1988  -33.6643  -45.9810 H         1 UNK         0.0612 
    117 H117       17.5542  -34.0188  -44.3102 H         1 UNK         0.0612 
@<TRIPOS>BOND
     1    1    2 1    
     2    1   62 1    
     3    1   63 1    
     4    1   64 1    
     5    2    3 2    
     6    2    4 am   BACKBONE|DICT|INTERRES
     7    4    5 1    
     8    4   65 1    
     9    5    6 1    
    10    5   25 1    
    11    5   66 1    
    12    6    7 1    
    13    6   67 1    
    14    6   68 1    
    15    7    8 1    
    16    8    9 1    
    17    8   69 1    
    18    8   70 1    
    19    9   10 ar   
    20    9   14 ar   
    21   10   11 ar   
    22   10   71 1    
    23   11   12 ar   
    24   11   61 1    
    25   12   13 ar   
    26   12   72 1    
    27   13   14 ar   
    28   13   15 1    
    29   14   73 1    
    30   15   16 1    
    31   15   74 1    
    32   15   75 1    
    33   16   17 1    
    34   17   18 1    
    35   17   76 1    
    36   17   77 1    
    37   18   19 1    
    38   18   27 1    
    39   18   78 1    
    40   19   20 am   BACKBONE|DICT|INTERRES
    41   19   79 1    
    42   20   21 2    
    43   20   22 1    
    44   22   23 1    
    45   22   24 1    
    46   22   80 1    
    47   23   81 1    
    48   23   82 1    
    49   23   83 1    
    50   24   25 am   BACKBONE|DICT|INTERRES
    51   24   84 1    
    52   25   26 2    
    53   27   28 2    
    54   27   29 am   BACKBONE|DICT|INTERRES
    55   29   30 1    
    56   29   85 1    
    57   30   31 1    
    58   30   32 1    
    59   30   86 1    
    60   31   87 1    
    61   31   88 1    
    62   31   89 1    
    63   32   33 2    
    64   32   34 am   BACKBONE|DICT|INTERRES
    65   34   35 1    
    66   34   90 1    
    67   35   36 1    
    68   35   37 1    
    69   35   91 1    
    70   36   92 1    
    71   36   93 1    
    72   36   94 1    
    73   37   38 2    
    74   37   39 am   BACKBONE|DICT|INTERRES
    75   39   40 1    
    76   39   95 1    
    77   40   41 1    
    78   40   42 1    
    79   40   96 1    
    80   41   97 1    
    81   41   98 1    
    82   41   99 1    
    83   42   43 2    
    84   42   44 am   BACKBONE|DICT|INTERRES
    85   44   45 1    
    86   44  100 1    
    87   45   46 1    
    88   45   47 1    
    89   45  101 1    
    90   46  102 1    
    91   46  103 1    
    92   46  104 1    
    93   47   48 2    
    94   47   49 am   BACKBONE|DICT|INTERRES
    95   49   50 1    
    96   49  105 1    
    97   50   51 1    
    98   50   52 1    
    99   50  106 1    
   100   51  107 1    
   101   51  108 1    
   102   51  109 1    
   103   52   53 2    
   104   52   54 am   BACKBONE|DICT|INTERRES
   105   54   55 1    
   106   54  110 1    
   107   55   56 1    
   108   55   59 1    
   109   55  111 1    
   110   56   57 am   BACKBONE|DICT|INTERRES
   111   56   58 2    
   112   57  112 1    
   113   57  113 1    
   114   59   60 1    
   115   59  114 1    
   116   59  115 1    
   117   60   61 1    
   118   61  116 1    
   119   61  117 1    
@<TRIPOS>SUBSTRUCTURE
     1 UNK         1 GROUP             0       ****    0 ROOT    
