@<TRIPOS>MOLECULE
3R8
117   119    1
SMALL
USER_CHARGES


@<TRIPOS>ATOM
      1 CA         21.5296  -24.7488  -41.2415 C.3       0 UNK        -0.2013 
      2 C          20.4990  -25.3074  -42.2097 C.2       0 UNK         0.4866 
      3 O          20.7961  -26.2675  -42.9238 O.2       0 UNK        -0.5176 
      4 N          19.2972  -24.7098  -42.2349 N.am      1 UNK        -0.4884 
      5 CA         18.1703  -25.0557  -43.1185 C.3       1 UNK         0.0853 
      6 C6         17.6494  -26.4982  -42.8624 C.3       10 UNK        -0.0849 
      7 S7         15.9475  -26.7875  -43.4535 S.3       10 UNK        -0.2776 
      8 C8         15.7650  -28.5810  -43.1618 C.3       10 UNK         0.0316 
      9 C9         16.8201  -29.4517  -43.8451 C.ar      10 UNK        -0.0863 
     10 C10        17.3597  -30.5397  -43.1512 C.ar      10 UNK        -0.1009 
     11 C11        18.3018  -31.3787  -43.7534 C.ar      10 UNK        -0.0712 
     12 C12        18.7101  -31.1170  -45.0651 C.ar      10 UNK        -0.0894 
     13 C13        18.1768  -30.0397  -45.7798 C.ar      10 UNK        -0.0745 
     14 C14        17.2272  -29.2146  -45.1650 C.ar      10 UNK        -0.0972 
     15 C15        18.5755  -29.8266  -47.2382 C.3       10 UNK         0.0209 
     16 S16        19.1499  -28.1378  -47.6108 S.3       10 UNK        -0.2568 
     17 C17        20.7406  -28.0760  -46.7219 C.3       10 UNK        -0.0983 
     18 CA         21.4929  -26.7370  -46.9453 C.3       3 UNK         0.0876 
     19 N          20.6588  -25.5990  -46.5552 N.am      3 UNK        -0.4424 
     20 C          20.8969  -24.3004  -46.7640 C.2       2 UNK         0.4918 
     21 O          21.8703  -23.8764  -47.3865 O.2       2 UNK        -0.4875 
     22 CA         19.9046  -23.2976  -46.1370 C.3       2 UNK         0.0481 
     23 CB         18.8143  -22.8948  -47.1485 C.3       2 UNK        -0.1831 
     24 N          19.3233  -23.7311  -44.8518 N.am      2 UNK        -0.4498 
     25 C          18.4930  -24.7598  -44.6048 C.2       1 UNK         0.5027 
     26 O          18.0463  -25.4828  -45.4947 O.2       1 UNK        -0.4969 
     27 C          22.8457  -26.7669  -46.2008 C.2       3 UNK         0.5005 
     28 O          23.7837  -27.3966  -46.6920 O.2       3 UNK        -0.5279 
     29 N          22.9051  -26.1198  -45.0236 N.am      4 UNK        -0.4463 
     30 CA         23.9860  -26.1557  -44.0285 C.3       4 UNK         0.0283 
     31 CB         25.3045  -25.5871  -44.5943 C.3       4 UNK        -0.1875 
     32 C          24.1395  -27.5595  -43.4116 C.2       4 UNK         0.4949 
     33 O          25.2521  -27.9784  -43.0876 O.2       4 UNK        -0.5039 
     34 N          23.0066  -28.2627  -43.2835 N.am      5 UNK        -0.4663 
     35 CA         22.9295  -29.6605  -42.8651 C.3       5 UNK         0.0242 
     36 CB         22.0125  -30.4154  -43.8397 C.3       5 UNK        -0.1982 
     37 C          22.4016  -29.8153  -41.4358 C.2       5 UNK         0.5017 
     38 O          22.7667  -30.7917  -40.7811 O.2       5 UNK        -0.5012 
     39 N          21.5689  -28.8673  -40.9725 N.am      6 UNK        -0.4439 
     40 CA         20.7785  -28.9392  -39.7312 C.3       6 UNK         0.0297 
     41 CB         19.8902  -27.6926  -39.6187 C.3       6 UNK        -0.2006 
     42 C          21.5620  -29.1506  -38.4218 C.2       6 UNK         0.4892 
     43 O          20.9492  -29.4833  -37.4066 O.2       6 UNK        -0.5089 
     44 N          22.8891  -28.9791  -38.4616 N.am      7 UNK        -0.4243 
     45 CA         23.8135  -29.3215  -37.3817 C.3       7 UNK         0.0196 
     46 CB         25.2088  -28.7777  -37.7300 C.3       7 UNK        -0.2007 
     47 C          23.8851  -30.8329  -37.0817 C.2       7 UNK         0.5020 
     48 O          24.2746  -31.1904  -35.9691 O.2       7 UNK        -0.5147 
     49 N          23.5224  -31.6915  -38.0484 N.am      8 UNK        -0.4734 
     50 CA         23.5288  -33.1485  -37.8812 C.3       8 UNK         0.0238 
     51 CB         24.9491  -33.7041  -38.1030 C.3       8 UNK        -0.1912 
     52 C          22.5196  -33.8774  -38.7801 C.2       8 UNK         0.5038 
     53 O          21.9019  -34.8359  -38.3146 O.2       8 UNK        -0.5046 
     54 N          22.3903  -33.4501  -40.0449 N.am      9 UNK        -0.4200 
     55 CA         21.6022  -34.1048  -41.1080 C.3       9 UNK         0.0839 
     56 C          22.0376  -35.5689  -41.4369 C.2       9 UNK         0.5513 
     57 N          23.2738  -35.9638  -41.1549 N.am      9 UNK        -0.7519 
     58 O          21.2665  -36.3505  -41.9883 O.2       9 UNK        -0.4960 
     59 C59        20.0667  -33.9332  -40.9077 C.3       10 UNK        -0.0876 
     60 S60        19.5103  -32.2595  -41.3778 S.3       10 UNK        -0.2414 
     61 C61        18.8204  -32.6148  -43.0266 C.3       10 UNK         0.0169 
     62 H62        21.0571  -24.2425  -40.3999 H         1 UNK         0.0903 
     63 H63        22.1761  -24.0360  -41.7523 H         1 UNK         0.0903 
     64 H64        22.1536  -25.5495  -40.8453 H         1 UNK         0.0903 
     65 H65        19.1267  -23.9318  -41.6110 H         1 UNK         0.3096 
     66 H66        17.3670  -24.3656  -42.8547 H         1 UNK         0.1121 
     67 H67        18.3270  -27.2328  -43.3011 H         1 UNK         0.0849 
     68 H68        17.6373  -26.6964  -41.7912 H         1 UNK         0.0849 
     69 H69        15.7729  -28.7499  -42.0837 H         1 UNK         0.0865 
     70 H70        14.7800  -28.8924  -43.5122 H         1 UNK         0.0865 
     71 H71        17.0333  -30.7504  -42.1418 H         1 UNK         0.1346 
     72 H72        19.4244  -31.7737  -45.5426 H         1 UNK         0.1412 
     73 H73        16.8035  -28.3872  -45.7181 H         1 UNK         0.1426 
     74 H74        19.3508  -30.5329  -47.5393 H         1 UNK         0.0716 
     75 H75        17.7089  -30.0414  -47.8650 H         1 UNK         0.0716 
     76 H76        21.3499  -28.9196  -47.0528 H         1 UNK         0.0695 
     77 H77        20.5420  -28.2323  -45.6593 H         1 UNK         0.0695 
     78 H78        21.7143  -26.6337  -48.0096 H         1 UNK         0.0983 
     79 H79        19.7737  -25.8342  -46.1132 H         1 UNK         0.3095 
     80 H80        20.4802  -22.4001  -45.9055 H         1 UNK         0.0454 
     81 H81        18.1404  -22.1476  -46.7297 H         1 UNK         0.0851 
     82 H82        18.2143  -23.7474  -47.4675 H         1 UNK         0.0851 
     83 H83        19.2594  -22.4626  -48.0457 H         1 UNK         0.0851 
     84 H84        19.6560  -23.2212  -44.0450 H         1 UNK         0.2976 
     85 H85        22.0451  -25.6943  -44.7000 H         1 UNK         0.3116 
     86 H86        23.6728  -25.5010  -43.2151 H         1 UNK         0.0646 
     87 H87        25.1539  -24.6048  -45.0415 H         1 UNK         0.0847 
     88 H88        26.0488  -25.4733  -43.8053 H         1 UNK         0.0847 
     89 H89        25.7380  -26.2391  -45.3530 H         1 UNK         0.0847 
     90 H90        22.1368  -27.7986  -43.5220 H         1 UNK         0.3040 
     91 H91        23.9190  -30.1225  -42.9015 H         1 UNK         0.1015 
     92 H92        21.0029  -30.0034  -43.8362 H         1 UNK         0.0786 
     93 H93        21.9345  -31.4695  -43.5699 H         1 UNK         0.0786 
     94 H94        22.3915  -30.3678  -44.8609 H         1 UNK         0.0786 
     95 H95        21.3551  -28.0947  -41.5893 H         1 UNK         0.3172 
     96 H96        20.1206  -29.8031  -39.8341 H         1 UNK         0.0595 
     97 H97        19.2060  -27.7751  -38.7730 H         1 UNK         0.0839 
     98 H98        19.2813  -27.5637  -40.5106 H         1 UNK         0.0839 
     99 H99        20.4796  -26.7887  -39.4688 H         1 UNK         0.0839 
    100 H100       23.3001  -28.7183  -39.3459 H         1 UNK         0.2998 
    101 H101       23.4664  -28.8246  -36.4732 H         1 UNK         0.0822 
    102 H102       25.1912  -27.6965  -37.8690 H         1 UNK         0.0787 
    103 H103       25.9204  -28.9881  -36.9301 H         1 UNK         0.0787 
    104 H104       25.6013  -29.2290  -38.6424 H         1 UNK         0.0787 
    105 H105       23.1897  -31.3222  -38.9350 H         1 UNK         0.3055 
    106 H106       23.2325  -33.3787  -36.8544 H         1 UNK         0.1106 
    107 H107       25.6500  -33.3111  -37.3662 H         1 UNK         0.0828 
    108 H108       24.9646  -34.7912  -38.0110 H         1 UNK         0.0828 
    109 H109       25.3303  -33.4522  -39.0936 H         1 UNK         0.0828 
    110 H110       22.8678  -32.6035  -40.3367 H         1 UNK         0.2931 
    111 H111       21.8677  -33.5670  -42.0191 H         1 UNK         0.0412 
    112 H112       23.5541  -36.9055  -41.3805 H         1 UNK         0.3472 
    113 H113       23.9280  -35.3311  -40.7237 H         1 UNK         0.3472 
    114 H114       19.4955  -34.6537  -41.4951 H         1 UNK         0.0970 
    115 H115       19.7851  -34.1235  -39.8714 H         1 UNK         0.0970 
    116 H116       19.5886  -33.1120  -43.6204 H         1 UNK         0.0612 
    117 H117       17.9990  -33.3246  -42.9230 H         1 UNK         0.0612 
@<TRIPOS>BOND
     1    1    2 1    
     2    1   62 1    
     3    1   63 1    
     4    1   64 1    
     5    2    3 2    
     6    2    4 am   BACKBONE|DICT|INTERRES
     7    4    5 1    
     8    4   65 1    
     9    5    6 1    
    10    5   25 1    
    11    5   66 1    
    12    6    7 1    
    13    6   67 1    
    14    6   68 1    
    15    7    8 1    
    16    8    9 1    
    17    8   69 1    
    18    8   70 1    
    19    9   10 ar   
    20    9   14 ar   
    21   10   11 ar   
    22   10   71 1    
    23   11   12 ar   
    24   11   61 1    
    25   12   13 ar   
    26   12   72 1    
    27   13   14 ar   
    28   13   15 1    
    29   14   73 1    
    30   15   16 1    
    31   15   74 1    
    32   15   75 1    
    33   16   17 1    
    34   17   18 1    
    35   17   76 1    
    36   17   77 1    
    37   18   19 1    
    38   18   27 1    
    39   18   78 1    
    40   19   20 am   BACKBONE|DICT|INTERRES
    41   19   79 1    
    42   20   21 2    
    43   20   22 1    
    44   22   23 1    
    45   22   24 1    
    46   22   80 1    
    47   23   81 1    
    48   23   82 1    
    49   23   83 1    
    50   24   25 am   BACKBONE|DICT|INTERRES
    51   24   84 1    
    52   25   26 2    
    53   27   28 2    
    54   27   29 am   BACKBONE|DICT|INTERRES
    55   29   30 1    
    56   29   85 1    
    57   30   31 1    
    58   30   32 1    
    59   30   86 1    
    60   31   87 1    
    61   31   88 1    
    62   31   89 1    
    63   32   33 2    
    64   32   34 am   BACKBONE|DICT|INTERRES
    65   34   35 1    
    66   34   90 1    
    67   35   36 1    
    68   35   37 1    
    69   35   91 1    
    70   36   92 1    
    71   36   93 1    
    72   36   94 1    
    73   37   38 2    
    74   37   39 am   BACKBONE|DICT|INTERRES
    75   39   40 1    
    76   39   95 1    
    77   40   41 1    
    78   40   42 1    
    79   40   96 1    
    80   41   97 1    
    81   41   98 1    
    82   41   99 1    
    83   42   43 2    
    84   42   44 am   BACKBONE|DICT|INTERRES
    85   44   45 1    
    86   44  100 1    
    87   45   46 1    
    88   45   47 1    
    89   45  101 1    
    90   46  102 1    
    91   46  103 1    
    92   46  104 1    
    93   47   48 2    
    94   47   49 am   BACKBONE|DICT|INTERRES
    95   49   50 1    
    96   49  105 1    
    97   50   51 1    
    98   50   52 1    
    99   50  106 1    
   100   51  107 1    
   101   51  108 1    
   102   51  109 1    
   103   52   53 2    
   104   52   54 am   BACKBONE|DICT|INTERRES
   105   54   55 1    
   106   54  110 1    
   107   55   56 1    
   108   55   59 1    
   109   55  111 1    
   110   56   57 am   BACKBONE|DICT|INTERRES
   111   56   58 2    
   112   57  112 1    
   113   57  113 1    
   114   59   60 1    
   115   59  114 1    
   116   59  115 1    
   117   60   61 1    
   118   61  116 1    
   119   61  117 1    
@<TRIPOS>SUBSTRUCTURE
     1 UNK         1 GROUP             0       ****    0 ROOT    
