@<TRIPOS>MOLECULE
3R8
117   119    1
SMALL
USER_CHARGES


@<TRIPOS>ATOM
      1 CA         16.2899  -25.7485  -49.8157 C.3       0 UNK        -0.2013 
      2 C          15.4519  -24.9047  -48.8586 C.2       0 UNK         0.4866 
      3 O          14.4725  -24.3013  -49.2934 O.2       0 UNK        -0.5176 
      4 N          15.7821  -24.8175  -47.5654 N.am      1 UNK        -0.4884 
      5 CA         16.8996  -25.4459  -46.8581 C.3       1 UNK         0.0853 
      6 C6         16.7463  -26.9864  -46.6929 C.3       10 UNK        -0.0849 
      7 S7         15.2259  -27.5079  -45.8201 S.3       10 UNK        -0.2776 
      8 C8         15.5632  -29.2718  -45.5162 C.3       10 UNK         0.0316 
      9 C9         16.6013  -29.4803  -44.4215 C.ar      10 UNK        -0.0863 
     10 C10        17.9253  -29.7852  -44.7508 C.ar      10 UNK        -0.1009 
     11 C11        18.8848  -29.9928  -43.7551 C.ar      10 UNK        -0.0712 
     12 C12        18.4914  -29.9182  -42.4116 C.ar      10 UNK        -0.0894 
     13 C13        17.1791  -29.5872  -42.0669 C.ar      10 UNK        -0.0745 
     14 C14        16.2355  -29.3770  -43.0765 C.ar      10 UNK        -0.0972 
     15 C15        16.7805  -29.4462  -40.6049 C.3       10 UNK         0.0209 
     16 S16        16.8087  -27.7035  -40.0722 S.3       10 UNK        -0.2568 
     17 C17        18.5415  -27.4569  -39.5391 C.3       10 UNK        -0.0983 
     18 CA         19.5050  -26.9970  -40.6659 C.3       3 UNK         0.0876 
     19 N          18.9522  -25.8997  -41.4697 N.am      3 UNK        -0.4424 
     20 C          19.2392  -25.6958  -42.7596 C.2       2 UNK         0.4918 
     21 O          20.0835  -26.3361  -43.3904 O.2       2 UNK        -0.4875 
     22 CA         18.4699  -24.5732  -43.4590 C.3       2 UNK         0.0481 
     23 CB         19.2894  -23.2718  -43.4894 C.3       2 UNK        -0.1831 
     24 N          18.1811  -25.0180  -44.8171 N.am      2 UNK        -0.4498 
     25 C          17.0741  -24.7254  -45.5067 C.2       1 UNK         0.5027 
     26 O          16.2092  -23.9349  -45.1136 O.2       1 UNK        -0.4969 
     27 C          20.9135  -26.6943  -40.1082 C.2       3 UNK         0.5005 
     28 O          21.5080  -27.5662  -39.4727 O.2       3 UNK        -0.5279 
     29 N          21.4372  -25.4841  -40.3611 N.am      4 UNK        -0.4463 
     30 CA         22.7384  -24.9787  -39.9033 C.3       4 UNK         0.0283 
     31 CB         22.8927  -23.5180  -40.3577 C.3       4 UNK        -0.1875 
     32 C          23.9597  -25.8080  -40.3475 C.2       4 UNK         0.4949 
     33 O          25.0112  -25.7081  -39.7154 O.2       4 UNK        -0.5039 
     34 N          23.8035  -26.6222  -41.4012 N.am      5 UNK        -0.4663 
     35 CA         24.7991  -27.5951  -41.8614 C.3       5 UNK         0.0242 
     36 CB         24.4426  -28.0326  -43.2901 C.3       5 UNK        -0.1982 
     37 C          24.9665  -28.8068  -40.9171 C.2       5 UNK         0.5017 
     38 O          25.9697  -29.5131  -41.0329 O.2       5 UNK        -0.5012 
     39 N          24.0182  -29.0035  -39.9853 N.am      6 UNK        -0.4439 
     40 CA         24.0452  -29.9508  -38.8672 C.3       6 UNK         0.0297 
     41 CB         25.0516  -29.4710  -37.7961 C.3       6 UNK        -0.2006 
     42 C          24.2514  -31.4084  -39.3199 C.2       6 UNK         0.4892 
     43 O          23.3845  -31.9501  -40.0054 O.2       6 UNK        -0.5089 
     44 N          25.3810  -32.0194  -38.9330 N.am      7 UNK        -0.4243 
     45 CA         25.7406  -33.4153  -39.2069 C.3       7 UNK         0.0196 
     46 CB         27.0759  -33.7360  -38.5166 C.3       7 UNK        -0.2007 
     47 C          25.8084  -33.7811  -40.7003 C.2       7 UNK         0.5020 
     48 O          25.5962  -34.9453  -41.0411 O.2       7 UNK        -0.5147 
     49 N          26.0603  -32.7915  -41.5698 N.am      8 UNK        -0.4734 
     50 CA         26.0485  -32.9518  -43.0274 C.3       8 UNK         0.0238 
     51 CB         26.6446  -31.6965  -43.6808 C.3       8 UNK        -0.1912 
     52 C          24.6528  -33.2566  -43.6064 C.2       8 UNK         0.5038 
     53 O          24.5743  -33.7783  -44.7194 O.2       8 UNK        -0.5046 
     54 N          23.5885  -32.9493  -42.8516 N.am      9 UNK        -0.4200 
     55 CA         22.1977  -33.2916  -43.1854 C.3       9 UNK         0.0839 
     56 C          21.8338  -34.7812  -42.9154 C.2       9 UNK         0.5513 
     57 N          22.6902  -35.5826  -42.2901 N.am      9 UNK        -0.7519 
     58 O          20.7511  -35.2228  -43.2913 O.2       9 UNK        -0.4960 
     59 C59        21.1842  -32.3376  -42.4991 C.3       10 UNK        -0.0876 
     60 S60        21.5263  -30.5813  -42.8555 S.3       10 UNK        -0.2414 
     61 C61        20.3290  -30.2509  -44.1921 C.3       10 UNK         0.0169 
     62 H62        17.3501  -25.7354  -49.5705 H         1 UNK         0.0903 
     63 H63        15.9408  -26.7805  -49.8118 H         1 UNK         0.0903 
     64 H64        16.1910  -25.3695  -50.8327 H         1 UNK         0.0903 
     65 H65        15.2316  -24.2289  -46.9503 H         1 UNK         0.3096 
     66 H66        17.8134  -25.2402  -47.4185 H         1 UNK         0.1121 
     67 H67        17.6116  -27.3892  -46.1656 H         1 UNK         0.0849 
     68 H68        16.7580  -27.4746  -47.6668 H         1 UNK         0.0849 
     69 H69        14.6323  -29.7618  -45.2269 H         1 UNK         0.0865 
     70 H70        15.8775  -29.7491  -46.4458 H         1 UNK         0.0865 
     71 H71        18.2154  -29.8498  -45.7909 H         1 UNK         0.1346 
     72 H72        19.2054  -30.0833  -41.6185 H         1 UNK         0.1412 
     73 H73        15.2169  -29.1233  -42.8153 H         1 UNK         0.1426 
     74 H74        17.4251  -30.0486  -39.9632 H         1 UNK         0.0716 
     75 H75        15.7706  -29.8355  -40.4678 H         1 UNK         0.0716 
     76 H76        18.9037  -28.3789  -39.0804 H         1 UNK         0.0695 
     77 H77        18.5239  -26.7146  -38.7388 H         1 UNK         0.0695 
     78 H78        19.6545  -27.8440  -41.3326 H         1 UNK         0.0983 
     79 H79        18.2392  -25.3395  -41.0245 H         1 UNK         0.3095 
     80 H80        17.5358  -24.4017  -42.9193 H         1 UNK         0.0454 
     81 H81        20.2393  -23.4052  -44.0087 H         1 UNK         0.0851 
     82 H82        19.5130  -22.9248  -42.4800 H         1 UNK         0.0851 
     83 H83        18.7437  -22.4729  -43.9916 H         1 UNK         0.0851 
     84 H84        18.8369  -25.7024  -45.1735 H         1 UNK         0.2976 
     85 H85        20.8732  -24.8432  -40.8991 H         1 UNK         0.3116 
     86 H86        22.7239  -24.9969  -38.8117 H         1 UNK         0.0646 
     87 H87        22.8802  -23.4299  -41.4449 H         1 UNK         0.0847 
     88 H88        23.8372  -23.0975  -40.0089 H         1 UNK         0.0847 
     89 H89        22.0966  -22.8892  -39.9587 H         1 UNK         0.0847 
     90 H90        22.9073  -26.6314  -41.8675 H         1 UNK         0.3040 
     91 H91        25.7682  -27.0923  -41.8974 H         1 UNK         0.1015 
     92 H92        24.3941  -27.1775  -43.9645 H         1 UNK         0.0786 
     93 H93        23.4811  -28.5417  -43.3297 H         1 UNK         0.0786 
     94 H94        25.1934  -28.7115  -43.6921 H         1 UNK         0.0786 
     95 H95        23.2042  -28.3943  -39.9972 H         1 UNK         0.3172 
     96 H96        23.0510  -29.9149  -38.4194 H         1 UNK         0.0595 
     97 H97        26.0731  -29.4280  -38.1761 H         1 UNK         0.0839 
     98 H98        25.0436  -30.1234  -36.9217 H         1 UNK         0.0839 
     99 H99        24.7946  -28.4711  -37.4454 H         1 UNK         0.0839 
    100 H100       26.0439  -31.4823  -38.3933 H         1 UNK         0.2998 
    101 H101       24.9651  -34.0415  -38.7609 H         1 UNK         0.0822 
    102 H102       27.0137  -33.5838  -37.4388 H         1 UNK         0.0787 
    103 H103       27.3591  -34.7773  -38.6782 H         1 UNK         0.0787 
    104 H104       27.8869  -33.1147  -38.8990 H         1 UNK         0.0787 
    105 H105       26.1910  -31.8522  -41.2125 H         1 UNK         0.3055 
    106 H106       26.6882  -33.8018  -43.2757 H         1 UNK         0.1106 
    107 H107       26.6884  -31.8017  -44.7658 H         1 UNK         0.0828 
    108 H108       27.6600  -31.5084  -43.3317 H         1 UNK         0.0828 
    109 H109       26.0456  -30.8141  -43.4625 H         1 UNK         0.0828 
    110 H110       23.7277  -32.5315  -41.9376 H         1 UNK         0.2931 
    111 H111       22.0794  -33.1520  -44.2617 H         1 UNK         0.0412 
    112 H112       23.5892  -35.2415  -41.9761 H         1 UNK         0.3472 
    113 H113       22.4357  -36.5446  -42.1301 H         1 UNK         0.3472 
    114 H114       20.1635  -32.5716  -42.8081 H         1 UNK         0.0970 
    115 H115       21.2058  -32.4744  -41.4169 H         1 UNK         0.0970 
    116 H116       20.6784  -29.3698  -44.7322 H         1 UNK         0.0612 
    117 H117       20.3545  -31.0785  -44.9026 H         1 UNK         0.0612 
@<TRIPOS>BOND
     1    1    2 1    
     2    1   62 1    
     3    1   63 1    
     4    1   64 1    
     5    2    3 2    
     6    2    4 am   BACKBONE|DICT|INTERRES
     7    4    5 1    
     8    4   65 1    
     9    5    6 1    
    10    5   25 1    
    11    5   66 1    
    12    6    7 1    
    13    6   67 1    
    14    6   68 1    
    15    7    8 1    
    16    8    9 1    
    17    8   69 1    
    18    8   70 1    
    19    9   10 ar   
    20    9   14 ar   
    21   10   11 ar   
    22   10   71 1    
    23   11   12 ar   
    24   11   61 1    
    25   12   13 ar   
    26   12   72 1    
    27   13   14 ar   
    28   13   15 1    
    29   14   73 1    
    30   15   16 1    
    31   15   74 1    
    32   15   75 1    
    33   16   17 1    
    34   17   18 1    
    35   17   76 1    
    36   17   77 1    
    37   18   19 1    
    38   18   27 1    
    39   18   78 1    
    40   19   20 am   BACKBONE|DICT|INTERRES
    41   19   79 1    
    42   20   21 2    
    43   20   22 1    
    44   22   23 1    
    45   22   24 1    
    46   22   80 1    
    47   23   81 1    
    48   23   82 1    
    49   23   83 1    
    50   24   25 am   BACKBONE|DICT|INTERRES
    51   24   84 1    
    52   25   26 2    
    53   27   28 2    
    54   27   29 am   BACKBONE|DICT|INTERRES
    55   29   30 1    
    56   29   85 1    
    57   30   31 1    
    58   30   32 1    
    59   30   86 1    
    60   31   87 1    
    61   31   88 1    
    62   31   89 1    
    63   32   33 2    
    64   32   34 am   BACKBONE|DICT|INTERRES
    65   34   35 1    
    66   34   90 1    
    67   35   36 1    
    68   35   37 1    
    69   35   91 1    
    70   36   92 1    
    71   36   93 1    
    72   36   94 1    
    73   37   38 2    
    74   37   39 am   BACKBONE|DICT|INTERRES
    75   39   40 1    
    76   39   95 1    
    77   40   41 1    
    78   40   42 1    
    79   40   96 1    
    80   41   97 1    
    81   41   98 1    
    82   41   99 1    
    83   42   43 2    
    84   42   44 am   BACKBONE|DICT|INTERRES
    85   44   45 1    
    86   44  100 1    
    87   45   46 1    
    88   45   47 1    
    89   45  101 1    
    90   46  102 1    
    91   46  103 1    
    92   46  104 1    
    93   47   48 2    
    94   47   49 am   BACKBONE|DICT|INTERRES
    95   49   50 1    
    96   49  105 1    
    97   50   51 1    
    98   50   52 1    
    99   50  106 1    
   100   51  107 1    
   101   51  108 1    
   102   51  109 1    
   103   52   53 2    
   104   52   54 am   BACKBONE|DICT|INTERRES
   105   54   55 1    
   106   54  110 1    
   107   55   56 1    
   108   55   59 1    
   109   55  111 1    
   110   56   57 am   BACKBONE|DICT|INTERRES
   111   56   58 2    
   112   57  112 1    
   113   57  113 1    
   114   59   60 1    
   115   59  114 1    
   116   59  115 1    
   117   60   61 1    
   118   61  116 1    
   119   61  117 1    
@<TRIPOS>SUBSTRUCTURE
     1 UNK         1 GROUP             0       ****    0 ROOT    
