@<TRIPOS>MOLECULE
3R8
117   119    1
SMALL
USER_CHARGES


@<TRIPOS>ATOM
      1 CA         14.2927  -27.5557  -47.8725 C.3       0 UNK        -0.2013 
      2 C          15.3830  -27.5273  -46.8125 C.2       0 UNK         0.4866 
      3 O          16.3379  -28.3009  -46.8924 O.2       0 UNK        -0.5176 
      4 N          15.2620  -26.6315  -45.8249 N.am      1 UNK        -0.4884 
      5 CA         16.1866  -26.4651  -44.6936 C.3       1 UNK         0.0853 
      6 C6         15.4634  -25.8694  -43.4579 C.3       10 UNK        -0.0849 
      7 S7         14.2970  -27.0844  -42.7525 S.3       10 UNK        -0.2776 
      8 C8         15.1202  -27.5660  -41.1954 C.3       10 UNK         0.0316 
      9 C9         16.5761  -27.9806  -41.3843 C.ar      10 UNK        -0.0863 
     10 C10        16.9014  -29.1539  -42.0735 C.ar      10 UNK        -0.1009 
     11 C11        18.2387  -29.5313  -42.2349 C.ar      10 UNK        -0.0712 
     12 C12        19.2505  -28.7403  -41.6835 C.ar      10 UNK        -0.0894 
     13 C13        18.9399  -27.5611  -41.0033 C.ar      10 UNK        -0.0745 
     14 C14        17.6010  -27.1882  -40.8560 C.ar      10 UNK        -0.0972 
     15 C15        20.0410  -26.6887  -40.4192 C.3       10 UNK         0.0209 
     16 S16        20.5503  -25.3934  -41.5921 S.3       10 UNK        -0.2568 
     17 C17        22.0418  -26.1113  -42.3642 C.3       10 UNK        -0.0983 
     18 CA         21.7612  -26.9193  -43.6564 C.3       3 UNK         0.0876 
     19 N          20.9592  -26.1679  -44.6243 N.am      3 UNK        -0.4424 
     20 C          20.4440  -26.6787  -45.7480 C.2       2 UNK         0.4918 
     21 O          20.6223  -27.8379  -46.1277 O.2       2 UNK        -0.4875 
     22 CA         19.4857  -25.7698  -46.5278 C.3       2 UNK         0.0481 
     23 CB         19.6510  -25.9259  -48.0493 C.3       2 UNK        -0.1831 
     24 N          18.1315  -26.1555  -46.1485 N.am      2 UNK        -0.4498 
     25 C          17.4594  -25.6843  -45.0919 C.2       1 UNK         0.5027 
     26 O          17.8179  -24.6972  -44.4471 O.2       1 UNK        -0.4969 
     27 C          23.0839  -27.4156  -44.2708 C.2       3 UNK         0.5005 
     28 O          23.7737  -26.6423  -44.9408 O.2       3 UNK        -0.5279 
     29 N          23.4532  -28.6709  -43.9827 N.am      4 UNK        -0.4463 
     30 CA         24.6980  -29.3075  -44.4302 C.3       4 UNK         0.0283 
     31 CB         24.4692  -30.8268  -44.5302 C.3       4 UNK        -0.1875 
     32 C          25.8616  -28.9471  -43.4873 C.2       4 UNK         0.4949 
     33 O          26.5161  -29.8364  -42.9434 O.2       4 UNK        -0.5039 
     34 N          26.0272  -27.6381  -43.2445 N.am      5 UNK        -0.4663 
     35 CA         26.8700  -26.9937  -42.2238 C.3       5 UNK         0.0242 
     36 CB         28.3626  -27.3152  -42.4471 C.3       5 UNK        -0.1982 
     37 C          26.4319  -27.2757  -40.7683 C.2       5 UNK         0.5017 
     38 O          27.0936  -26.8060  -39.8417 O.2       5 UNK        -0.5012 
     39 N          25.3279  -28.0103  -40.5869 N.am      6 UNK        -0.4439 
     40 CA         24.7461  -28.4489  -39.3256 C.3       6 UNK         0.0297 
     41 CB         25.6582  -29.4961  -38.6518 C.3       6 UNK        -0.2006 
     42 C          23.3643  -29.0495  -39.6159 C.2       6 UNK         0.4892 
     43 O          23.0369  -29.3290  -40.7749 O.2       6 UNK        -0.5089 
     44 N          22.6004  -29.2854  -38.5424 N.am      7 UNK        -0.4243 
     45 CA         21.2843  -29.9356  -38.5501 C.3       7 UNK         0.0196 
     46 CB         20.5169  -29.5170  -37.2838 C.3       7 UNK        -0.2007 
     47 C          21.3391  -31.4711  -38.7011 C.2       7 UNK         0.5020 
     48 O          20.3119  -32.1295  -38.5402 O.2       7 UNK        -0.5147 
     49 N          22.5219  -32.0244  -39.0049 N.am      8 UNK        -0.4734 
     50 CA         22.7265  -33.4379  -39.3363 C.3       8 UNK         0.0238 
     51 CB         24.2288  -33.7577  -39.2669 C.3       8 UNK        -0.1912 
     52 C          22.1583  -33.8172  -40.7171 C.2       8 UNK         0.5038 
     53 O          21.8211  -34.9831  -40.9252 O.2       8 UNK        -0.5046 
     54 N          22.0645  -32.8301  -41.6209 N.am      9 UNK        -0.4200 
     55 CA         21.4807  -32.9262  -42.9720 C.3       9 UNK         0.0839 
     56 C          22.2737  -33.8194  -43.9746 C.2       9 UNK         0.5513 
     57 N          23.5148  -34.1947  -43.6901 N.am      9 UNK        -0.7519 
     58 O          21.7710  -34.1491  -45.0456 O.2       9 UNK        -0.4960 
     59 C59        19.9566  -33.2532  -42.9631 C.3       10 UNK        -0.0876 
     60 S60        18.9932  -32.1504  -41.8735 S.3       10 UNK        -0.2414 
     61 C61        18.6054  -30.7870  -43.0078 C.3       10 UNK         0.0169 
     62 H62        13.5135  -26.8193  -47.6766 H         1 UNK         0.0903 
     63 H63        14.7181  -27.3472  -48.8538 H         1 UNK         0.0903 
     64 H64        13.8277  -28.5406  -47.9047 H         1 UNK         0.0903 
     65 H65        14.4653  -26.0101  -45.8225 H         1 UNK         0.3096 
     66 H66        16.5498  -27.4548  -44.4061 H         1 UNK         0.1121 
     67 H67        16.1704  -25.5679  -42.6837 H         1 UNK         0.0849 
     68 H68        14.9180  -24.9636  -43.7279 H         1 UNK         0.0849 
     69 H69        14.5689  -28.3936  -40.7468 H         1 UNK         0.0865 
     70 H70        15.0444  -26.7370  -40.4899 H         1 UNK         0.0865 
     71 H71        16.1132  -29.7670  -42.4892 H         1 UNK         0.1346 
     72 H72        20.2814  -29.0502  -41.7809 H         1 UNK         0.1412 
     73 H73        17.3592  -26.2758  -40.3277 H         1 UNK         0.1426 
     74 H74        20.8981  -27.2918  -40.1218 H         1 UNK         0.0716 
     75 H75        19.6824  -26.2103  -39.5066 H         1 UNK         0.0716 
     76 H76        22.5634  -26.7269  -41.6299 H         1 UNK         0.0695 
     77 H77        22.7156  -25.2800  -42.5822 H         1 UNK         0.0695 
     78 H78        21.1730  -27.7967  -43.3933 H         1 UNK         0.0983 
     79 H79        20.7259  -25.2207  -44.3630 H         1 UNK         0.3095 
     80 H80        19.6742  -24.7261  -46.2669 H         1 UNK         0.0454 
     81 H81        19.4493  -26.9455  -48.3807 H         1 UNK         0.0851 
     82 H82        20.6675  -25.6776  -48.3569 H         1 UNK         0.0851 
     83 H83        18.9767  -25.2613  -48.5894 H         1 UNK         0.0851 
     84 H84        17.7555  -26.9882  -46.5946 H         1 UNK         0.2976 
     85 H85        22.8794  -29.2148  -43.3526 H         1 UNK         0.3116 
     86 H86        24.9566  -28.9415  -45.4262 H         1 UNK         0.0646 
     87 H87        24.2359  -31.2635  -43.5585 H         1 UNK         0.0847 
     88 H88        25.3587  -31.3327  -44.9079 H         1 UNK         0.0847 
     89 H89        23.6518  -31.0630  -45.2117 H         1 UNK         0.0847 
     90 H90        25.4227  -27.0108  -43.7677 H         1 UNK         0.3040 
     91 H91        26.7414  -25.9195  -42.3663 H         1 UNK         0.1015 
     92 H92        28.5902  -28.3612  -42.2401 H         1 UNK         0.0786 
     93 H93        28.9937  -26.7137  -41.7917 H         1 UNK         0.0786 
     94 H94        28.6662  -27.1011  -43.4718 H         1 UNK         0.0786 
     95 H95        24.8293  -28.3508  -41.3992 H         1 UNK         0.3172 
     96 H96        24.6217  -27.5827  -38.6729 H         1 UNK         0.0595 
     97 H97        25.8232  -30.3595  -39.2980 H         1 UNK         0.0839 
     98 H98        26.6340  -29.0782  -38.4046 H         1 UNK         0.0839 
     99 H99        25.2293  -29.8620  -37.7183 H         1 UNK         0.0839 
    100 H100       22.9637  -29.0381  -37.6324 H         1 UNK         0.2998 
    101 H101       20.7255  -29.5707  -39.4119 H         1 UNK         0.0822 
    102 H102       19.5021  -29.9173  -37.2880 H         1 UNK         0.0787 
    103 H103       21.0066  -29.8769  -36.3782 H         1 UNK         0.0787 
    104 H104       20.4304  -28.4325  -37.2132 H         1 UNK         0.0787 
    105 H105       23.3176  -31.4118  -39.1019 H         1 UNK         0.3055 
    106 H106       22.2073  -34.0458  -38.5916 H         1 UNK         0.1106 
    107 H107       24.4139  -34.8097  -39.4890 H         1 UNK         0.0828 
    108 H108       24.8039  -33.1676  -39.9817 H         1 UNK         0.0828 
    109 H109       24.6300  -33.5643  -38.2718 H         1 UNK         0.0828 
    110 H110       22.3733  -31.9096  -41.3440 H         1 UNK         0.2931 
    111 H111       21.5807  -31.9204  -43.3812 H         1 UNK         0.0412 
    112 H112       23.9409  -33.9357  -42.8157 H         1 UNK         0.3472 
    113 H113       24.0214  -34.7629  -44.3508 H         1 UNK         0.3472 
    114 H114       19.5411  -33.1948  -43.9709 H         1 UNK         0.0970 
    115 H115       19.7937  -34.2805  -42.6336 H         1 UNK         0.0970 
    116 H116       17.7931  -31.0873  -43.6715 H         1 UNK         0.0612 
    117 H117       19.4664  -30.5780  -43.6446 H         1 UNK         0.0612 
@<TRIPOS>BOND
     1    1    2 1    
     2    1   62 1    
     3    1   63 1    
     4    1   64 1    
     5    2    3 2    
     6    2    4 am   BACKBONE|DICT|INTERRES
     7    4    5 1    
     8    4   65 1    
     9    5    6 1    
    10    5   25 1    
    11    5   66 1    
    12    6    7 1    
    13    6   67 1    
    14    6   68 1    
    15    7    8 1    
    16    8    9 1    
    17    8   69 1    
    18    8   70 1    
    19    9   10 ar   
    20    9   14 ar   
    21   10   11 ar   
    22   10   71 1    
    23   11   12 ar   
    24   11   61 1    
    25   12   13 ar   
    26   12   72 1    
    27   13   14 ar   
    28   13   15 1    
    29   14   73 1    
    30   15   16 1    
    31   15   74 1    
    32   15   75 1    
    33   16   17 1    
    34   17   18 1    
    35   17   76 1    
    36   17   77 1    
    37   18   19 1    
    38   18   27 1    
    39   18   78 1    
    40   19   20 am   BACKBONE|DICT|INTERRES
    41   19   79 1    
    42   20   21 2    
    43   20   22 1    
    44   22   23 1    
    45   22   24 1    
    46   22   80 1    
    47   23   81 1    
    48   23   82 1    
    49   23   83 1    
    50   24   25 am   BACKBONE|DICT|INTERRES
    51   24   84 1    
    52   25   26 2    
    53   27   28 2    
    54   27   29 am   BACKBONE|DICT|INTERRES
    55   29   30 1    
    56   29   85 1    
    57   30   31 1    
    58   30   32 1    
    59   30   86 1    
    60   31   87 1    
    61   31   88 1    
    62   31   89 1    
    63   32   33 2    
    64   32   34 am   BACKBONE|DICT|INTERRES
    65   34   35 1    
    66   34   90 1    
    67   35   36 1    
    68   35   37 1    
    69   35   91 1    
    70   36   92 1    
    71   36   93 1    
    72   36   94 1    
    73   37   38 2    
    74   37   39 am   BACKBONE|DICT|INTERRES
    75   39   40 1    
    76   39   95 1    
    77   40   41 1    
    78   40   42 1    
    79   40   96 1    
    80   41   97 1    
    81   41   98 1    
    82   41   99 1    
    83   42   43 2    
    84   42   44 am   BACKBONE|DICT|INTERRES
    85   44   45 1    
    86   44  100 1    
    87   45   46 1    
    88   45   47 1    
    89   45  101 1    
    90   46  102 1    
    91   46  103 1    
    92   46  104 1    
    93   47   48 2    
    94   47   49 am   BACKBONE|DICT|INTERRES
    95   49   50 1    
    96   49  105 1    
    97   50   51 1    
    98   50   52 1    
    99   50  106 1    
   100   51  107 1    
   101   51  108 1    
   102   51  109 1    
   103   52   53 2    
   104   52   54 am   BACKBONE|DICT|INTERRES
   105   54   55 1    
   106   54  110 1    
   107   55   56 1    
   108   55   59 1    
   109   55  111 1    
   110   56   57 am   BACKBONE|DICT|INTERRES
   111   56   58 2    
   112   57  112 1    
   113   57  113 1    
   114   59   60 1    
   115   59  114 1    
   116   59  115 1    
   117   60   61 1    
   118   61  116 1    
   119   61  117 1    
@<TRIPOS>SUBSTRUCTURE
     1 UNK         1 GROUP             0       ****    0 ROOT    
