@<TRIPOS>MOLECULE
3R8
117   119    1
SMALL
USER_CHARGES


@<TRIPOS>ATOM
      1 CA         15.9204  -23.1871  -46.3818 C.3       0 UNK        -0.2013 
      2 C          17.2066  -23.9902  -46.5048 C.2       0 UNK         0.4866 
      3 O          18.1693  -23.5161  -47.1082 O.2       0 UNK        -0.5176 
      4 N          17.2308  -25.2034  -45.9373 N.am      1 UNK        -0.4884 
      5 CA         18.3786  -26.1215  -45.9756 C.3       1 UNK         0.0853 
      6 C6         17.9755  -27.5661  -45.5947 C.3       10 UNK        -0.0849 
      7 S7         16.7678  -28.2983  -46.7486 S.3       10 UNK        -0.2776 
      8 C8         15.6579  -29.1900  -45.6071 C.3       10 UNK         0.0316 
      9 C9         16.4083  -30.1239  -44.6627 C.ar      10 UNK        -0.0863 
     10 C10        17.1970  -31.1627  -45.1691 C.ar      10 UNK        -0.1009 
     11 C11        17.8972  -32.0087  -44.3042 C.ar      10 UNK        -0.0712 
     12 C12        17.7868  -31.8250  -42.9228 C.ar      10 UNK        -0.0894 
     13 C13        16.9917  -30.7996  -42.4031 C.ar      10 UNK        -0.0745 
     14 C14        16.3089  -29.9492  -43.2779 C.ar      10 UNK        -0.0972 
     15 C15        16.8434  -30.6403  -40.8963 C.3       10 UNK         0.0209 
     16 S16        18.3460  -29.9714  -40.1181 S.3       10 UNK        -0.2568 
     17 C17        18.2321  -28.1956  -40.5229 C.3       10 UNK        -0.0983 
     18 CA         19.6279  -27.5367  -40.6821 C.3       3 UNK         0.0876 
     19 N          19.5424  -26.3120  -41.4905 N.am      3 UNK        -0.4424 
     20 C          20.5497  -25.6821  -42.1137 C.2       2 UNK         0.4918 
     21 O          21.7279  -26.0479  -42.0623 O.2       2 UNK        -0.4875 
     22 CA         20.1471  -24.4561  -42.9529 C.3       2 UNK         0.0481 
     23 CB         21.3604  -23.6480  -43.4609 C.3       2 UNK        -0.1831 
     24 N          19.2575  -24.8505  -44.0528 N.am      2 UNK        -0.4498 
     25 C          19.5482  -25.6740  -45.0747 C.2       1 UNK         0.5027 
     26 O          20.6732  -26.1145  -45.3087 O.2       1 UNK        -0.4969 
     27 C          20.3718  -27.3158  -39.3381 C.2       3 UNK         0.5005 
     28 O          19.8186  -27.5255  -38.2572 O.2       3 UNK        -0.5279 
     29 N          21.6284  -26.8860  -39.4519 N.am      4 UNK        -0.4463 
     30 CA         22.6232  -26.7005  -38.4045 C.3       4 UNK         0.0283 
     31 CB         22.3410  -25.4360  -37.5712 C.3       4 UNK        -0.1875 
     32 C          23.9876  -26.6472  -39.0963 C.2       4 UNK         0.4949 
     33 O          24.8338  -27.5020  -38.8392 O.2       4 UNK        -0.5039 
     34 N          24.1390  -25.7004  -40.0359 N.am      5 UNK        -0.4663 
     35 CA         25.3042  -25.5686  -40.9180 C.3       5 UNK         0.0242 
     36 CB         25.2035  -24.2493  -41.7003 C.3       5 UNK        -0.1982 
     37 C          25.4606  -26.7565  -41.8838 C.2       5 UNK         0.5017 
     38 O          26.5856  -27.1859  -42.1385 O.2       5 UNK        -0.5012 
     39 N          24.3286  -27.2883  -42.3679 N.am      6 UNK        -0.4439 
     40 CA         24.2490  -28.4909  -43.2017 C.3       6 UNK         0.0297 
     41 CB         22.8817  -28.5182  -43.9063 C.3       6 UNK        -0.2006 
     42 C          24.4763  -29.8082  -42.4340 C.2       6 UNK         0.4892 
     43 O          24.5068  -30.8587  -43.0751 O.2       6 UNK        -0.5089 
     44 N          24.5857  -29.7513  -41.0945 N.am      7 UNK        -0.4243 
     45 CA         24.7883  -30.8782  -40.1699 C.3       7 UNK         0.0196 
     46 CB         26.2213  -31.4329  -40.3118 C.3       7 UNK        -0.2007 
     47 C          23.7109  -31.9747  -40.3020 C.2       7 UNK         0.5020 
     48 O          24.0266  -33.1649  -40.2492 O.2       7 UNK        -0.5147 
     49 N          22.4607  -31.5433  -40.5324 N.am      8 UNK        -0.4734 
     50 CA         21.2758  -32.3643  -40.8242 C.3       8 UNK         0.0238 
     51 CB         20.8167  -33.1233  -39.5620 C.3       8 UNK        -0.1912 
     52 C          21.4418  -33.2867  -42.0512 C.2       8 UNK         0.5038 
     53 O          20.8292  -34.3545  -42.0995 O.2       8 UNK        -0.5046 
     54 N          22.2677  -32.8521  -43.0130 N.am      9 UNK        -0.4200 
     55 CA         22.6523  -33.5709  -44.2373 C.3       9 UNK         0.0839 
     56 C          23.6007  -34.7831  -43.9903 C.2       9 UNK         0.5513 
     57 N          24.1990  -34.9352  -42.8134 N.am      9 UNK        -0.7519 
     58 O          23.8232  -35.5889  -44.8906 O.2       9 UNK        -0.4960 
     59 C59        21.4569  -33.9204  -45.1741 C.3       10 UNK        -0.0876 
     60 S60        20.3488  -32.4991  -45.4890 S.3       10 UNK        -0.2414 
     61 C61        18.7615  -33.1308  -44.8568 C.3       10 UNK         0.0169 
     62 H62        15.5249  -22.9595  -47.3714 H         1 UNK         0.0903 
     63 H63        15.1532  -23.7265  -45.8265 H         1 UNK         0.0903 
     64 H64        16.1132  -22.2461  -45.8673 H         1 UNK         0.0903 
     65 H65        16.4011  -25.5574  -45.4822 H         1 UNK         0.3096 
     66 H66        18.7635  -26.1354  -46.9982 H         1 UNK         0.1121 
     67 H67        17.5753  -27.5854  -44.5793 H         1 UNK         0.0849 
     68 H68        18.8467  -28.2255  -45.5866 H         1 UNK         0.0849 
     69 H69        15.0711  -28.4599  -45.0474 H         1 UNK         0.0865 
     70 H70        14.9435  -29.7725  -46.1904 H         1 UNK         0.0865 
     71 H71        17.2795  -31.3022  -46.2385 H         1 UNK         0.1346 
     72 H72        18.3140  -32.4855  -42.2480 H         1 UNK         0.1412 
     73 H73        15.6925  -29.1553  -42.8783 H         1 UNK         0.1426 
     74 H74        15.9922  -30.0036  -40.6497 H         1 UNK         0.0716 
     75 H75        16.6292  -31.6154  -40.4565 H         1 UNK         0.0716 
     76 H76        17.6295  -27.6869  -39.7681 H         1 UNK         0.0695 
     77 H77        17.6785  -28.1051  -41.4584 H         1 UNK         0.0695 
     78 H78        20.2433  -28.2329  -41.2570 H         1 UNK         0.0983 
     79 H79        18.6184  -25.9145  -41.5741 H         1 UNK         0.3095 
     80 H80        19.5675  -23.8004  -42.3016 H         1 UNK         0.0454 
     81 H81        21.0450  -22.7937  -44.0593 H         1 UNK         0.0851 
     82 H82        22.0346  -24.2518  -44.0691 H         1 UNK         0.0851 
     83 H83        21.9431  -23.2609  -42.6246 H         1 UNK         0.0851 
     84 H84        18.2989  -24.5403  -43.9772 H         1 UNK         0.2976 
     85 H85        21.9450  -26.6882  -40.3987 H         1 UNK         0.3116 
     86 H86        22.6073  -27.5718  -37.7463 H         1 UNK         0.0646 
     87 H87        21.4047  -25.5269  -37.0206 H         1 UNK         0.0847 
     88 H88        23.1305  -25.2696  -36.8373 H         1 UNK         0.0847 
     89 H89        22.2748  -24.5414  -38.1909 H         1 UNK         0.0847 
     90 H90        23.3904  -25.0385  -40.1834 H         1 UNK         0.3040 
     91 H91        26.1986  -25.5328  -40.2917 H         1 UNK         0.1015 
     92 H92        24.3187  -24.2238  -42.3376 H         1 UNK         0.0786 
     93 H93        26.0729  -24.1114  -42.3448 H         1 UNK         0.0786 
     94 H94        25.1605  -23.3913  -41.0292 H         1 UNK         0.0786 
     95 H95        23.4489  -26.8186  -42.1700 H         1 UNK         0.3172 
     96 H96        25.0240  -28.4275  -43.9681 H         1 UNK         0.0595 
     97 H97        22.0580  -28.5917  -43.1957 H         1 UNK         0.0839 
     98 H98        22.8024  -29.3687  -44.5850 H         1 UNK         0.0839 
     99 H99        22.7288  -27.6186  -44.5020 H         1 UNK         0.0839 
    100 H100       24.5673  -28.8382  -40.6583 H         1 UNK         0.2998 
    101 H101       24.6882  -30.4725  -39.1619 H         1 UNK         0.0822 
    102 H102       26.4269  -32.1884  -39.5525 H         1 UNK         0.0787 
    103 H103       26.3792  -31.8980  -41.2856 H         1 UNK         0.0787 
    104 H104       26.9643  -30.6443  -40.1923 H         1 UNK         0.0787 
    105 H105       22.3183  -30.5441  -40.5683 H         1 UNK         0.3055 
    106 H106       20.4831  -31.6682  -41.0978 H         1 UNK         0.1106 
    107 H107       20.6699  -32.4433  -38.7230 H         1 UNK         0.0828 
    108 H108       19.8663  -33.6305  -39.7329 H         1 UNK         0.0828 
    109 H109       21.5411  -33.8805  -39.2604 H         1 UNK         0.0828 
    110 H110       22.7860  -31.9957  -42.8563 H         1 UNK         0.2931 
    111 H111       23.2703  -32.8559  -44.7815 H         1 UNK         0.0412 
    112 H112       24.8172  -35.7185  -42.6737 H         1 UNK         0.3472 
    113 H113       24.0387  -34.2795  -42.0576 H         1 UNK         0.3472 
    114 H114       20.8920  -34.7608  -44.7689 H         1 UNK         0.0970 
    115 H115       21.8307  -34.2611  -46.1412 H         1 UNK         0.0970 
    116 H116       18.9336  -33.8742  -44.0776 H         1 UNK         0.0612 
    117 H117       18.2352  -33.6465  -45.6612 H         1 UNK         0.0612 
@<TRIPOS>BOND
     1    1    2 1    
     2    1   62 1    
     3    1   63 1    
     4    1   64 1    
     5    2    3 2    
     6    2    4 am   BACKBONE|DICT|INTERRES
     7    4    5 1    
     8    4   65 1    
     9    5    6 1    
    10    5   25 1    
    11    5   66 1    
    12    6    7 1    
    13    6   67 1    
    14    6   68 1    
    15    7    8 1    
    16    8    9 1    
    17    8   69 1    
    18    8   70 1    
    19    9   10 ar   
    20    9   14 ar   
    21   10   11 ar   
    22   10   71 1    
    23   11   12 ar   
    24   11   61 1    
    25   12   13 ar   
    26   12   72 1    
    27   13   14 ar   
    28   13   15 1    
    29   14   73 1    
    30   15   16 1    
    31   15   74 1    
    32   15   75 1    
    33   16   17 1    
    34   17   18 1    
    35   17   76 1    
    36   17   77 1    
    37   18   19 1    
    38   18   27 1    
    39   18   78 1    
    40   19   20 am   BACKBONE|DICT|INTERRES
    41   19   79 1    
    42   20   21 2    
    43   20   22 1    
    44   22   23 1    
    45   22   24 1    
    46   22   80 1    
    47   23   81 1    
    48   23   82 1    
    49   23   83 1    
    50   24   25 am   BACKBONE|DICT|INTERRES
    51   24   84 1    
    52   25   26 2    
    53   27   28 2    
    54   27   29 am   BACKBONE|DICT|INTERRES
    55   29   30 1    
    56   29   85 1    
    57   30   31 1    
    58   30   32 1    
    59   30   86 1    
    60   31   87 1    
    61   31   88 1    
    62   31   89 1    
    63   32   33 2    
    64   32   34 am   BACKBONE|DICT|INTERRES
    65   34   35 1    
    66   34   90 1    
    67   35   36 1    
    68   35   37 1    
    69   35   91 1    
    70   36   92 1    
    71   36   93 1    
    72   36   94 1    
    73   37   38 2    
    74   37   39 am   BACKBONE|DICT|INTERRES
    75   39   40 1    
    76   39   95 1    
    77   40   41 1    
    78   40   42 1    
    79   40   96 1    
    80   41   97 1    
    81   41   98 1    
    82   41   99 1    
    83   42   43 2    
    84   42   44 am   BACKBONE|DICT|INTERRES
    85   44   45 1    
    86   44  100 1    
    87   45   46 1    
    88   45   47 1    
    89   45  101 1    
    90   46  102 1    
    91   46  103 1    
    92   46  104 1    
    93   47   48 2    
    94   47   49 am   BACKBONE|DICT|INTERRES
    95   49   50 1    
    96   49  105 1    
    97   50   51 1    
    98   50   52 1    
    99   50  106 1    
   100   51  107 1    
   101   51  108 1    
   102   51  109 1    
   103   52   53 2    
   104   52   54 am   BACKBONE|DICT|INTERRES
   105   54   55 1    
   106   54  110 1    
   107   55   56 1    
   108   55   59 1    
   109   55  111 1    
   110   56   57 am   BACKBONE|DICT|INTERRES
   111   56   58 2    
   112   57  112 1    
   113   57  113 1    
   114   59   60 1    
   115   59  114 1    
   116   59  115 1    
   117   60   61 1    
   118   61  116 1    
   119   61  117 1    
@<TRIPOS>SUBSTRUCTURE
     1 UNK         1 GROUP             0       ****    0 ROOT    
