@<TRIPOS>MOLECULE
3R8
117   119    1
SMALL
USER_CHARGES


@<TRIPOS>ATOM
      1 CA         13.8405  -24.1857  -47.0400 C.3       0 UNK        -0.2013 
      2 C          14.2757  -25.2227  -46.0155 C.2       0 UNK         0.4866 
      3 O          13.4586  -25.6556  -45.2030 O.2       0 UNK        -0.5176 
      4 N          15.5586  -25.6122  -46.0463 N.am      1 UNK        -0.4884 
      5 CA         16.1894  -26.6223  -45.1777 C.3       1 UNK         0.0853 
      6 C6         15.6355  -28.0606  -45.3963 C.3       10 UNK        -0.0849 
      7 S7         15.9499  -28.6411  -47.1040 S.3       10 UNK        -0.2776 
      8 C8         17.2759  -29.8826  -46.8904 C.3       10 UNK         0.0316 
      9 C9         18.4213  -29.3792  -46.0208 C.ar      10 UNK        -0.0863 
     10 C10        18.6647  -29.9713  -44.7762 C.ar      10 UNK        -0.1009 
     11 C11        19.6537  -29.4626  -43.9310 C.ar      10 UNK        -0.0712 
     12 C12        20.4049  -28.3623  -44.3471 C.ar      10 UNK        -0.0894 
     13 C13        20.1813  -27.7652  -45.5869 C.ar      10 UNK        -0.0745 
     14 C14        19.2022  -28.2935  -46.4335 C.ar      10 UNK        -0.0972 
     15 C15        20.9639  -26.5238  -45.9855 C.3       10 UNK         0.0209 
     16 S16        20.0187  -25.0162  -45.5929 S.3       10 UNK        -0.2568 
     17 C17        20.9568  -24.2403  -44.2186 C.3       10 UNK        -0.0983 
     18 CA         20.3431  -24.4040  -42.7925 C.3       3 UNK         0.0876 
     19 N          18.8828  -24.3240  -42.8414 N.am      3 UNK        -0.4424 
     20 C          18.0371  -24.1344  -41.8220 C.2       2 UNK         0.4918 
     21 O          18.3927  -23.8644  -40.6742 O.2       2 UNK        -0.4875 
     22 CA         16.5329  -24.2492  -42.1469 C.3       2 UNK         0.0481 
     23 CB         15.8708  -22.8619  -42.1232 C.3       2 UNK        -0.1831 
     24 N          16.2860  -24.8713  -43.4540 N.am      2 UNK        -0.4498 
     25 C          16.2529  -26.1925  -43.6915 C.2       1 UNK         0.5027 
     26 O          16.3058  -27.0422  -42.8013 O.2       1 UNK        -0.4969 
     27 C          20.8378  -25.6818  -42.0755 C.2       3 UNK         0.5005 
     28 O          20.0402  -26.5554  -41.7283 O.2       3 UNK        -0.5279 
     29 N          22.1602  -25.7817  -41.8911 N.am      4 UNK        -0.4463 
     30 CA         22.8608  -26.9835  -41.4448 C.3       4 UNK         0.0283 
     31 CB         23.4550  -26.7586  -40.0441 C.3       4 UNK        -0.1875 
     32 C          23.9482  -27.2690  -42.4855 C.2       4 UNK         0.4949 
     33 O          24.9005  -26.4947  -42.5905 O.2       4 UNK        -0.5039 
     34 N          23.7560  -28.3307  -43.2759 N.am      5 UNK        -0.4663 
     35 CA         24.6414  -28.7057  -44.3820 C.3       5 UNK         0.0242 
     36 CB         23.8154  -29.4285  -45.4595 C.3       5 UNK        -0.1982 
     37 C          25.8111  -29.5933  -43.9307 C.2       5 UNK         0.5017 
     38 O          26.8634  -29.5760  -44.5702 O.2       5 UNK        -0.5012 
     39 N          25.6037  -30.3578  -42.8541 N.am      6 UNK        -0.4439 
     40 CA         26.5311  -31.3216  -42.2733 C.3       6 UNK         0.0297 
     41 CB         26.6473  -32.5623  -43.1845 C.3       6 UNK        -0.2006 
     42 C          26.0001  -31.7088  -40.8885 C.2       6 UNK         0.4892 
     43 O          24.8745  -31.3418  -40.5399 O.2       6 UNK        -0.5089 
     44 N          26.7915  -32.4936  -40.1451 N.am      7 UNK        -0.4243 
     45 CA         26.4524  -33.0356  -38.8210 C.3       7 UNK         0.0196 
     46 CB         27.6833  -33.7584  -38.2486 C.3       7 UNK        -0.2007 
     47 C          25.2208  -33.9660  -38.7971 C.2       7 UNK         0.5020 
     48 O          24.6901  -34.2325  -37.7190 O.2       7 UNK        -0.5147 
     49 N          24.7811  -34.4354  -39.9732 N.am      8 UNK        -0.4734 
     50 CA         23.5403  -35.1872  -40.1715 C.3       8 UNK         0.0238 
     51 CB         23.5458  -35.7985  -41.5824 C.3       8 UNK        -0.1912 
     52 C          22.2673  -34.3447  -39.9566 C.2       8 UNK         0.5038 
     53 O          21.2217  -34.9233  -39.6571 O.2       8 UNK        -0.5046 
     54 N          22.3626  -33.0159  -40.1138 N.am      9 UNK        -0.4200 
     55 CA         21.2778  -32.0683  -39.8233 C.3       9 UNK         0.0839 
     56 C          21.0065  -31.9642  -38.2985 C.2       9 UNK         0.5513 
     57 N          19.7448  -31.9507  -37.8912 N.am      9 UNK        -0.7519 
     58 O          21.9251  -31.8462  -37.4908 O.2       9 UNK        -0.4960 
     59 C59        21.5645  -30.6669  -40.4186 C.3       10 UNK        -0.0876 
     60 S60        21.5348  -30.6548  -42.2449 S.3       10 UNK        -0.2414 
     61 C61        19.8466  -30.0290  -42.5314 C.3       10 UNK         0.0169 
     62 H62        14.6606  -23.8847  -47.6917 H         1 UNK         0.0903 
     63 H63        13.4630  -23.2960  -46.5367 H         1 UNK         0.0903 
     64 H64        13.0430  -24.5883  -47.6641 H         1 UNK         0.0903 
     65 H65        16.1686  -25.2190  -46.7506 H         1 UNK         0.3096 
     66 H66        17.2374  -26.6409  -45.4767 H         1 UNK         0.1121 
     67 H67        16.0786  -28.7685  -44.6948 H         1 UNK         0.0849 
     68 H68        14.5622  -28.0944  -45.2056 H         1 UNK         0.0849 
     69 H69        16.8401  -30.7897  -46.4686 H         1 UNK         0.0865 
     70 H70        17.6646  -30.1602  -47.8711 H         1 UNK         0.0865 
     71 H71        18.0558  -30.8021  -44.4466 H         1 UNK         0.1346 
     72 H72        21.1436  -27.9460  -43.6840 H         1 UNK         0.1412 
     73 H73        19.0077  -27.8252  -47.3890 H         1 UNK         0.1426 
     74 H74        21.9380  -26.5087  -45.4946 H         1 UNK         0.0716 
     75 H75        21.1645  -26.5457  -47.0576 H         1 UNK         0.0716 
     76 H76        20.9811  -23.1740  -44.4488 H         1 UNK         0.0695 
     77 H77        22.0026  -24.5478  -44.2617 H         1 UNK         0.0695 
     78 H78        20.6885  -23.5683  -42.1797 H         1 UNK         0.0983 
     79 H79        18.4884  -24.5593  -43.7391 H         1 UNK         0.3095 
     80 H80        16.0720  -24.8593  -41.3675 H         1 UNK         0.0454 
     81 H81        14.7982  -22.9311  -42.3054 H         1 UNK         0.0851 
     82 H82        16.2977  -22.1955  -42.8737 H         1 UNK         0.0851 
     83 H83        16.0019  -22.3836  -41.1515 H         1 UNK         0.0851 
     84 H84        16.1959  -24.2491  -44.2448 H         1 UNK         0.2976 
     85 H85        22.7620  -25.0361  -42.2165 H         1 UNK         0.3116 
     86 H86        22.1816  -27.8361  -41.3941 H         1 UNK         0.0646 
     87 H87        22.6713  -26.5680  -39.3108 H         1 UNK         0.0847 
     88 H88        24.0055  -27.6391  -39.7101 H         1 UNK         0.0847 
     89 H89        24.1444  -25.9136  -40.0233 H         1 UNK         0.0847 
     90 H90        22.9573  -28.9311  -43.1140 H         1 UNK         0.3040 
     91 H91        25.0669  -27.8037  -44.8284 H         1 UNK         0.1015 
     92 H92        23.0388  -28.7818  -45.8663 H         1 UNK         0.0786 
     93 H93        23.3329  -30.3250  -45.0677 H         1 UNK         0.0786 
     94 H94        24.4459  -29.7360  -46.2950 H         1 UNK         0.0786 
     95 H95        24.7314  -30.2805  -42.3444 H         1 UNK         0.3172 
     96 H96        27.5084  -30.8504  -42.1519 H         1 UNK         0.0595 
     97 H97        27.3330  -33.3020  -42.7701 H         1 UNK         0.0839 
     98 H98        27.0293  -32.3005  -44.1712 H         1 UNK         0.0839 
     99 H99        25.6819  -33.0509  -43.3230 H         1 UNK         0.0839 
    100 H100       27.6961  -32.7514  -40.5137 H         1 UNK         0.2998 
    101 H101       26.2191  -32.1889  -38.1718 H         1 UNK         0.0822 
    102 H102       28.5375  -33.0861  -38.1666 H         1 UNK         0.0787 
    103 H103       27.4812  -34.1435  -37.2480 H         1 UNK         0.0787 
    104 H104       27.9783  -34.6053  -38.8697 H         1 UNK         0.0787 
    105 H105       25.2945  -34.1787  -40.8030 H         1 UNK         0.3055 
    106 H106       23.5165  -36.0005  -39.4424 H         1 UNK         0.1106 
    107 H107       24.4002  -36.4600  -41.7264 H         1 UNK         0.0828 
    108 H108       22.6468  -36.3927  -41.7531 H         1 UNK         0.0828 
    109 H109       23.5792  -35.0302  -42.3560 H         1 UNK         0.0828 
    110 H110       23.2654  -32.6037  -40.3203 H         1 UNK         0.2931 
    111 H111       20.3730  -32.4517  -40.3003 H         1 UNK         0.0412 
    112 H112       18.9839  -32.0397  -38.5470 H         1 UNK         0.3472 
    113 H113       19.5483  -31.8658  -36.9058 H         1 UNK         0.3472 
    114 H114       20.8419  -29.9374  -40.0482 H         1 UNK         0.0970 
    115 H115       22.5353  -30.3006  -40.0819 H         1 UNK         0.0970 
    116 H116       19.1373  -30.8338  -42.3330 H         1 UNK         0.0612 
    117 H117       19.6182  -29.2350  -41.8197 H         1 UNK         0.0612 
@<TRIPOS>BOND
     1    1    2 1    
     2    1   62 1    
     3    1   63 1    
     4    1   64 1    
     5    2    3 2    
     6    2    4 am   BACKBONE|DICT|INTERRES
     7    4    5 1    
     8    4   65 1    
     9    5    6 1    
    10    5   25 1    
    11    5   66 1    
    12    6    7 1    
    13    6   67 1    
    14    6   68 1    
    15    7    8 1    
    16    8    9 1    
    17    8   69 1    
    18    8   70 1    
    19    9   10 ar   
    20    9   14 ar   
    21   10   11 ar   
    22   10   71 1    
    23   11   12 ar   
    24   11   61 1    
    25   12   13 ar   
    26   12   72 1    
    27   13   14 ar   
    28   13   15 1    
    29   14   73 1    
    30   15   16 1    
    31   15   74 1    
    32   15   75 1    
    33   16   17 1    
    34   17   18 1    
    35   17   76 1    
    36   17   77 1    
    37   18   19 1    
    38   18   27 1    
    39   18   78 1    
    40   19   20 am   BACKBONE|DICT|INTERRES
    41   19   79 1    
    42   20   21 2    
    43   20   22 1    
    44   22   23 1    
    45   22   24 1    
    46   22   80 1    
    47   23   81 1    
    48   23   82 1    
    49   23   83 1    
    50   24   25 am   BACKBONE|DICT|INTERRES
    51   24   84 1    
    52   25   26 2    
    53   27   28 2    
    54   27   29 am   BACKBONE|DICT|INTERRES
    55   29   30 1    
    56   29   85 1    
    57   30   31 1    
    58   30   32 1    
    59   30   86 1    
    60   31   87 1    
    61   31   88 1    
    62   31   89 1    
    63   32   33 2    
    64   32   34 am   BACKBONE|DICT|INTERRES
    65   34   35 1    
    66   34   90 1    
    67   35   36 1    
    68   35   37 1    
    69   35   91 1    
    70   36   92 1    
    71   36   93 1    
    72   36   94 1    
    73   37   38 2    
    74   37   39 am   BACKBONE|DICT|INTERRES
    75   39   40 1    
    76   39   95 1    
    77   40   41 1    
    78   40   42 1    
    79   40   96 1    
    80   41   97 1    
    81   41   98 1    
    82   41   99 1    
    83   42   43 2    
    84   42   44 am   BACKBONE|DICT|INTERRES
    85   44   45 1    
    86   44  100 1    
    87   45   46 1    
    88   45   47 1    
    89   45  101 1    
    90   46  102 1    
    91   46  103 1    
    92   46  104 1    
    93   47   48 2    
    94   47   49 am   BACKBONE|DICT|INTERRES
    95   49   50 1    
    96   49  105 1    
    97   50   51 1    
    98   50   52 1    
    99   50  106 1    
   100   51  107 1    
   101   51  108 1    
   102   51  109 1    
   103   52   53 2    
   104   52   54 am   BACKBONE|DICT|INTERRES
   105   54   55 1    
   106   54  110 1    
   107   55   56 1    
   108   55   59 1    
   109   55  111 1    
   110   56   57 am   BACKBONE|DICT|INTERRES
   111   56   58 2    
   112   57  112 1    
   113   57  113 1    
   114   59   60 1    
   115   59  114 1    
   116   59  115 1    
   117   60   61 1    
   118   61  116 1    
   119   61  117 1    
@<TRIPOS>SUBSTRUCTURE
     1 UNK         1 GROUP             0       ****    0 ROOT    
