@<TRIPOS>MOLECULE
3R8
117   119    1
SMALL
USER_CHARGES


@<TRIPOS>ATOM
      1 CA         16.4568  -23.0744  -41.5380 C.3       0 UNK        -0.2013 
      2 C          17.1524  -23.4899  -42.8257 C.2       0 UNK         0.4866 
      3 O          17.6342  -22.6316  -43.5661 O.2       0 UNK        -0.5176 
      4 N          17.1994  -24.7988  -43.1027 N.am      1 UNK        -0.4884 
      5 CA         17.8820  -25.3845  -44.2608 C.3       1 UNK         0.0853 
      6 C6         17.4909  -26.8693  -44.4569 C.3       10 UNK        -0.0849 
      7 S7         15.7933  -27.0659  -45.0984 S.3       10 UNK        -0.2776 
      8 C8         15.2068  -28.5840  -44.2601 C.3       10 UNK         0.0316 
      9 C9         16.2300  -29.7187  -44.2259 C.ar      10 UNK        -0.0863 
     10 C10        16.4446  -30.4150  -43.0305 C.ar      10 UNK        -0.1009 
     11 C11        17.4211  -31.4122  -42.9484 C.ar      10 UNK        -0.0712 
     12 C12        18.1797  -31.7147  -44.0816 C.ar      10 UNK        -0.0894 
     13 C13        17.9894  -31.0193  -45.2789 C.ar      10 UNK        -0.0745 
     14 C14        16.9893  -30.0470  -45.3564 C.ar      10 UNK        -0.0972 
     15 C15        18.9387  -31.2541  -46.4479 C.3       10 UNK         0.0209 
     16 S16        20.2689  -29.9960  -46.5250 S.3       10 UNK        -0.2568 
     17 C17        20.8824  -29.9858  -44.8035 C.3       10 UNK        -0.0983 
     18 CA         21.8877  -28.8625  -44.4424 C.3       3 UNK         0.0876 
     19 N          21.5176  -27.5612  -45.0042 N.am      3 UNK        -0.4424 
     20 C          22.2297  -26.4309  -44.8857 C.2       2 UNK         0.4918 
     21 O          23.3442  -26.3707  -44.3679 O.2       2 UNK        -0.4875 
     22 CA         21.5621  -25.1379  -45.3899 C.3       2 UNK         0.0481 
     23 CB         21.9670  -24.8590  -46.8455 C.3       2 UNK        -0.1831 
     24 N          20.0978  -25.1548  -45.2812 N.am      2 UNK        -0.4498 
     25 C          19.4142  -25.2641  -44.1315 C.2       1 UNK         0.5027 
     26 O          19.9500  -25.3506  -43.0229 O.2       1 UNK        -0.4969 
     27 C          22.0039  -28.7741  -42.9069 C.2       3 UNK         0.5005 
     28 O          23.0414  -29.1202  -42.3456 O.2       3 UNK        -0.5279 
     29 N          20.9355  -28.2723  -42.2675 N.am      4 UNK        -0.4463 
     30 CA         20.8082  -28.1202  -40.8184 C.3       4 UNK         0.0283 
     31 CB         19.3587  -27.7520  -40.4642 C.3       4 UNK        -0.1875 
     32 C          21.7944  -27.0942  -40.2434 C.2       4 UNK         0.4949 
     33 O          22.3140  -27.3104  -39.1498 O.2       4 UNK        -0.5039 
     34 N          22.0924  -26.0364  -41.0117 N.am      5 UNK        -0.4663 
     35 CA         23.1411  -25.0570  -40.7055 C.3       5 UNK         0.0242 
     36 CB         23.0615  -23.8946  -41.7071 C.3       5 UNK        -0.1982 
     37 C          24.5585  -25.6654  -40.6858 C.2       5 UNK         0.5017 
     38 O          25.4080  -25.1837  -39.9363 O.2       5 UNK        -0.5012 
     39 N          24.7760  -26.7253  -41.4771 N.am      6 UNK        -0.4439 
     40 CA         25.9965  -27.5363  -41.4994 C.3       6 UNK         0.0297 
     41 CB         26.2626  -27.9815  -42.9486 C.3       6 UNK        -0.2006 
     42 C          25.9212  -28.7558  -40.5552 C.2       6 UNK         0.4892 
     43 O          26.8777  -29.5308  -40.5131 O.2       6 UNK        -0.5089 
     44 N          24.8027  -28.9110  -39.8280 N.am      7 UNK        -0.4243 
     45 CA         24.4576  -30.0104  -38.9183 C.3       7 UNK         0.0196 
     46 CB         25.4041  -30.0346  -37.6988 C.3       7 UNK        -0.2007 
     47 C          24.3330  -31.3820  -39.6151 C.2       7 UNK         0.5020 
     48 O          24.6235  -32.4074  -38.9960 O.2       7 UNK        -0.5147 
     49 N          23.8918  -31.3882  -40.8787 N.am      8 UNK        -0.4734 
     50 CA         23.6556  -32.5882  -41.6804 C.3       8 UNK         0.0238 
     51 CB         24.2814  -32.3786  -43.0696 C.3       8 UNK        -0.1912 
     52 C          22.1484  -32.8470  -41.8168 C.2       8 UNK         0.5038 
     53 O          21.3667  -31.8969  -41.8839 O.2       8 UNK        -0.5046 
     54 N          21.7741  -34.1266  -41.9055 N.am      9 UNK        -0.4200 
     55 CA         20.4208  -34.6090  -42.2047 C.3       9 UNK         0.0839 
     56 C          20.4548  -36.0982  -42.6427 C.2       9 UNK         0.5513 
     57 N          19.3175  -36.6606  -43.0248 N.am      9 UNK        -0.7519 
     58 O          21.4994  -36.7483  -42.6424 O.2       9 UNK        -0.4960 
     59 C59        19.3929  -34.3206  -41.0674 C.3       10 UNK        -0.0876 
     60 S60        17.7321  -33.9081  -41.7156 S.3       10 UNK        -0.2414 
     61 C61        17.7213  -32.0851  -41.6133 C.3       10 UNK         0.0169 
     62 H62        15.6246  -22.4066  -41.7594 H         1 UNK         0.0903 
     63 H63        16.0669  -23.9316  -40.9895 H         1 UNK         0.0903 
     64 H64        17.1549  -22.5461  -40.8892 H         1 UNK         0.0903 
     65 H65        16.7896  -25.4577  -42.4571 H         1 UNK         0.3096 
     66 H66        17.5792  -24.8200  -45.1460 H         1 UNK         0.1121 
     67 H67        17.6041  -27.4187  -43.5201 H         1 UNK         0.0849 
     68 H68        18.1501  -27.3599  -45.1761 H         1 UNK         0.0849 
     69 H69        14.3051  -28.9378  -44.7615 H         1 UNK         0.0865 
     70 H70        14.9063  -28.3127  -43.2468 H         1 UNK         0.0865 
     71 H71        15.8724  -30.1570  -42.1497 H         1 UNK         0.1346 
     72 H72        18.9711  -32.4448  -44.0131 H         1 UNK         0.1412 
     73 H73        16.8486  -29.4999  -46.2786 H         1 UNK         0.1426 
     74 H74        18.3806  -31.2409  -47.3852 H         1 UNK         0.0716 
     75 H75        19.3915  -32.2442  -46.3758 H         1 UNK         0.0716 
     76 H76        21.3128  -30.9642  -44.5813 H         1 UNK         0.0695 
     77 H77        20.0104  -29.8856  -44.1605 H         1 UNK         0.0695 
     78 H78        22.8683  -29.1285  -44.8427 H         1 UNK         0.0983 
     79 H79        20.6385  -27.5289  -45.4974 H         1 UNK         0.3095 
     80 H80        21.9278  -24.3156  -44.7720 H         1 UNK         0.0454 
     81 H81        21.6079  -25.6348  -47.5228 H         1 UNK         0.0851 
     82 H82        23.0525  -24.8167  -46.9461 H         1 UNK         0.0851 
     83 H83        21.5756  -23.9021  -47.1910 H         1 UNK         0.0851 
     84 H84        19.5845  -25.0926  -46.1494 H         1 UNK         0.2976 
     85 H85        20.1521  -27.9591  -42.8197 H         1 UNK         0.3116 
     86 H86        21.0353  -29.0885  -40.3663 H         1 UNK         0.0646 
     87 H87        18.6588  -28.5096  -40.8177 H         1 UNK         0.0847 
     88 H88        19.0654  -26.7940  -40.8951 H         1 UNK         0.0847 
     89 H89        19.2316  -27.6742  -39.3837 H         1 UNK         0.0847 
     90 H90        21.5638  -25.8996  -41.8678 H         1 UNK         0.3040 
     91 H91        22.9421  -24.6625  -39.7065 H         1 UNK         0.1015 
     92 H92        23.7714  -23.1083  -41.4469 H         1 UNK         0.0786 
     93 H93        22.0681  -23.4452  -41.7190 H         1 UNK         0.0786 
     94 H94        23.2954  -24.2193  -42.7208 H         1 UNK         0.0786 
     95 H95        24.0177  -27.0533  -42.0643 H         1 UNK         0.3172 
     96 H96        26.8432  -26.9284  -41.1744 H         1 UNK         0.0595 
     97 H97        25.4761  -28.6384  -43.3212 H         1 UNK         0.0839 
     98 H98        27.2044  -28.5261  -43.0256 H         1 UNK         0.0839 
     99 H99        26.3277  -27.1258  -43.6209 H         1 UNK         0.0839 
    100 H100       24.0759  -28.2145  -39.9391 H         1 UNK         0.2998 
    101 H101       23.4578  -29.7819  -38.5466 H         1 UNK         0.0822 
    102 H102       25.4549  -29.0580  -37.2173 H         1 UNK         0.0787 
    103 H103       25.0577  -30.7460  -36.9481 H         1 UNK         0.0787 
    104 H104       26.4173  -30.3254  -37.9778 H         1 UNK         0.0787 
    105 H105       23.6109  -30.5093  -41.3140 H         1 UNK         0.3055 
    106 H106       24.1249  -33.4576  -41.2143 H         1 UNK         0.1106 
    107 H107       23.8317  -31.5330  -43.5916 H         1 UNK         0.0828 
    108 H108       24.1477  -33.2597  -43.6984 H         1 UNK         0.0828 
    109 H109       25.3529  -32.1918  -42.9956 H         1 UNK         0.0828 
    110 H110       22.4687  -34.8623  -41.8773 H         1 UNK         0.2931 
    111 H111       20.1263  -34.0634  -43.1004 H         1 UNK         0.0412 
    112 H112       19.3148  -37.6263  -43.3147 H         1 UNK         0.3472 
    113 H113       18.4567  -36.1337  -43.0106 H         1 UNK         0.3472 
    114 H114       19.3031  -35.1764  -40.3956 H         1 UNK         0.0970 
    115 H115       19.7300  -33.5063  -40.4259 H         1 UNK         0.0970 
    116 H116       18.6826  -31.7108  -41.2606 H         1 UNK         0.0612 
    117 H117       16.9874  -31.7930  -40.8608 H         1 UNK         0.0612 
@<TRIPOS>BOND
     1    1    2 1    
     2    1   62 1    
     3    1   63 1    
     4    1   64 1    
     5    2    3 2    
     6    2    4 am   BACKBONE|DICT|INTERRES
     7    4    5 1    
     8    4   65 1    
     9    5    6 1    
    10    5   25 1    
    11    5   66 1    
    12    6    7 1    
    13    6   67 1    
    14    6   68 1    
    15    7    8 1    
    16    8    9 1    
    17    8   69 1    
    18    8   70 1    
    19    9   10 ar   
    20    9   14 ar   
    21   10   11 ar   
    22   10   71 1    
    23   11   12 ar   
    24   11   61 1    
    25   12   13 ar   
    26   12   72 1    
    27   13   14 ar   
    28   13   15 1    
    29   14   73 1    
    30   15   16 1    
    31   15   74 1    
    32   15   75 1    
    33   16   17 1    
    34   17   18 1    
    35   17   76 1    
    36   17   77 1    
    37   18   19 1    
    38   18   27 1    
    39   18   78 1    
    40   19   20 am   BACKBONE|DICT|INTERRES
    41   19   79 1    
    42   20   21 2    
    43   20   22 1    
    44   22   23 1    
    45   22   24 1    
    46   22   80 1    
    47   23   81 1    
    48   23   82 1    
    49   23   83 1    
    50   24   25 am   BACKBONE|DICT|INTERRES
    51   24   84 1    
    52   25   26 2    
    53   27   28 2    
    54   27   29 am   BACKBONE|DICT|INTERRES
    55   29   30 1    
    56   29   85 1    
    57   30   31 1    
    58   30   32 1    
    59   30   86 1    
    60   31   87 1    
    61   31   88 1    
    62   31   89 1    
    63   32   33 2    
    64   32   34 am   BACKBONE|DICT|INTERRES
    65   34   35 1    
    66   34   90 1    
    67   35   36 1    
    68   35   37 1    
    69   35   91 1    
    70   36   92 1    
    71   36   93 1    
    72   36   94 1    
    73   37   38 2    
    74   37   39 am   BACKBONE|DICT|INTERRES
    75   39   40 1    
    76   39   95 1    
    77   40   41 1    
    78   40   42 1    
    79   40   96 1    
    80   41   97 1    
    81   41   98 1    
    82   41   99 1    
    83   42   43 2    
    84   42   44 am   BACKBONE|DICT|INTERRES
    85   44   45 1    
    86   44  100 1    
    87   45   46 1    
    88   45   47 1    
    89   45  101 1    
    90   46  102 1    
    91   46  103 1    
    92   46  104 1    
    93   47   48 2    
    94   47   49 am   BACKBONE|DICT|INTERRES
    95   49   50 1    
    96   49  105 1    
    97   50   51 1    
    98   50   52 1    
    99   50  106 1    
   100   51  107 1    
   101   51  108 1    
   102   51  109 1    
   103   52   53 2    
   104   52   54 am   BACKBONE|DICT|INTERRES
   105   54   55 1    
   106   54  110 1    
   107   55   56 1    
   108   55   59 1    
   109   55  111 1    
   110   56   57 am   BACKBONE|DICT|INTERRES
   111   56   58 2    
   112   57  112 1    
   113   57  113 1    
   114   59   60 1    
   115   59  114 1    
   116   59  115 1    
   117   60   61 1    
   118   61  116 1    
   119   61  117 1    
@<TRIPOS>SUBSTRUCTURE
     1 UNK         1 GROUP             0       ****    0 ROOT    
