@<TRIPOS>MOLECULE
3R8
117   119    1
SMALL
USER_CHARGES


@<TRIPOS>ATOM
      1 CA         20.3832  -29.2001  -42.4631 C.3       0 UNK        -0.2013 
      2 C          20.1223  -27.7147  -42.2951 C.2       0 UNK         0.4866 
      3 O          20.9301  -27.0073  -41.6903 O.2       0 UNK        -0.5176 
      4 N          18.9853  -27.2428  -42.8187 N.am      1 UNK        -0.4884 
      5 CA         18.5766  -25.8341  -42.7898 C.3       1 UNK         0.0853 
      6 C6         17.0654  -25.6424  -43.0818 C.3       10 UNK        -0.0849 
      7 S7         15.9750  -26.6712  -42.0391 S.3       10 UNK        -0.2776 
      8 C8         15.2061  -27.7728  -43.2735 C.3       10 UNK         0.0316 
      9 C9         16.1576  -28.8717  -43.7262 C.ar      10 UNK        -0.0863 
     10 C10        16.2595  -30.0515  -42.9824 C.ar      10 UNK        -0.1009 
     11 C11        17.1298  -31.0687  -43.3820 C.ar      10 UNK        -0.0712 
     12 C12        17.8931  -30.9027  -44.5402 C.ar      10 UNK        -0.0894 
     13 C13        17.8257  -29.7157  -45.2791 C.ar      10 UNK        -0.0745 
     14 C14        16.9364  -28.7127  -44.8787 C.ar      10 UNK        -0.0972 
     15 C15        18.7302  -29.5075  -46.4905 C.3       10 UNK         0.0209 
     16 S16        20.4676  -29.8769  -46.0845 S.3       10 UNK        -0.2568 
     17 C17        21.3947  -29.1900  -47.5009 C.3       10 UNK        -0.0983 
     18 CA         22.3581  -28.0168  -47.1454 C.3       3 UNK         0.0876 
     19 N          21.7025  -26.9151  -46.4455 N.am      3 UNK        -0.4424 
     20 C          20.9436  -25.9788  -47.0188 C.2       2 UNK         0.4918 
     21 O          20.6720  -25.9586  -48.2203 O.2       2 UNK        -0.4875 
     22 CA         20.3766  -24.9083  -46.0735 C.3       2 UNK         0.0481 
     23 CB         19.4223  -23.9248  -46.7841 C.3       2 UNK        -0.1831 
     24 N          19.6998  -25.5584  -44.9509 N.am      2 UNK        -0.4498 
     25 C          19.4016  -24.9838  -43.7769 C.2       1 UNK         0.5027 
     26 O          19.7268  -23.8364  -43.4691 O.2       1 UNK        -0.4969 
     27 C          23.5982  -28.3831  -46.3102 C.2       3 UNK         0.5005 
     28 O          24.5752  -27.6311  -46.3241 O.2       3 UNK        -0.5279 
     29 N          23.5220  -29.4752  -45.5402 N.am      4 UNK        -0.4463 
     30 CA         24.4498  -29.8303  -44.4651 C.3       4 UNK         0.0283 
     31 CB         24.2910  -31.3273  -44.1454 C.3       4 UNK        -0.1875 
     32 C          24.1687  -28.9353  -43.2440 C.2       4 UNK         0.4949 
     33 O          23.4640  -29.3518  -42.3251 O.2       4 UNK        -0.5039 
     34 N          24.6551  -27.6900  -43.3241 N.am      5 UNK        -0.4663 
     35 CA         24.3458  -26.5611  -42.4422 C.3       5 UNK         0.0242 
     36 CB         25.2198  -25.3653  -42.8552 C.3       5 UNK        -0.1982 
     37 C          24.4954  -26.8369  -40.9348 C.2       5 UNK         0.5017 
     38 O          25.3272  -27.6520  -40.5296 O.2       5 UNK        -0.5012 
     39 N          23.7012  -26.0991  -40.1466 N.am      6 UNK        -0.4439 
     40 CA         23.5609  -26.1813  -38.6891 C.3       6 UNK         0.0297 
     41 CB         24.8979  -25.9162  -37.9618 C.3       6 UNK        -0.2006 
     42 C          22.8567  -27.4739  -38.2339 C.2       6 UNK         0.4892 
     43 O          23.2319  -28.0476  -37.2099 O.2       6 UNK        -0.5089 
     44 N          21.8212  -27.8782  -38.9879 N.am      7 UNK        -0.4243 
     45 CA         20.8952  -28.9808  -38.6983 C.3       7 UNK         0.0196 
     46 CB         20.0810  -28.6938  -37.4177 C.3       7 UNK        -0.2007 
     47 C          21.5559  -30.3731  -38.6846 C.2       7 UNK         0.5020 
     48 O          21.0827  -31.2627  -37.9749 O.2       7 UNK        -0.5147 
     49 N          22.6084  -30.5747  -39.4908 N.am      8 UNK        -0.4734 
     50 CA         23.3211  -31.8512  -39.6223 C.3       8 UNK         0.0238 
     51 CB         24.7865  -31.5753  -40.0072 C.3       8 UNK        -0.1912 
     52 C          22.6085  -32.8135  -40.5963 C.2       8 UNK         0.5038 
     53 O          23.2356  -33.3407  -41.5168 O.2       8 UNK        -0.5046 
     54 N          21.3036  -33.0139  -40.3766 N.am      9 UNK        -0.4200 
     55 CA         20.4262  -33.9229  -41.1269 C.3       9 UNK         0.0839 
     56 C          20.8343  -35.4116  -40.9599 C.2       9 UNK         0.5513 
     57 N          20.6912  -36.2145  -42.0052 N.am      9 UNK        -0.7519 
     58 O          21.2321  -35.8523  -39.8832 O.2       9 UNK        -0.4960 
     59 C59        18.9400  -33.7192  -40.7304 C.3       10 UNK        -0.0876 
     60 S60        18.3536  -32.0329  -41.1074 S.3       10 UNK        -0.2414 
     61 C61        17.2795  -32.3312  -42.5473 C.3       10 UNK         0.0169 
     62 H62        20.8970  -29.6127  -41.5993 H         1 UNK         0.0903 
     63 H63        19.4574  -29.7520  -42.5949 H         1 UNK         0.0903 
     64 H64        21.0137  -29.3716  -43.3318 H         1 UNK         0.0903 
     65 H65        18.3256  -27.8849  -43.2398 H         1 UNK         0.3096 
     66 H66        18.7762  -25.4507  -41.7863 H         1 UNK         0.1121 
     67 H67        16.7873  -24.6003  -42.9112 H         1 UNK         0.0849 
     68 H68        16.8442  -25.8321  -44.1330 H         1 UNK         0.0849 
     69 H69        14.3159  -28.2232  -42.8312 H         1 UNK         0.0865 
     70 H70        14.8516  -27.1910  -44.1259 H         1 UNK         0.0865 
     71 H71        15.6737  -30.1730  -42.0812 H         1 UNK         0.1346 
     72 H72        18.5773  -31.6831  -44.8441 H         1 UNK         0.1412 
     73 H73        16.8601  -27.8021  -45.4571 H         1 UNK         0.1426 
     74 H74        18.6607  -28.4798  -46.8505 H         1 UNK         0.0716 
     75 H75        18.4021  -30.1533  -47.3058 H         1 UNK         0.0716 
     76 H76        20.6823  -28.8532  -48.2552 H         1 UNK         0.0695 
     77 H77        21.9501  -30.0016  -47.9742 H         1 UNK         0.0695 
     78 H78        22.7528  -27.6288  -48.0875 H         1 UNK         0.0983 
     79 H79        21.9109  -26.8410  -45.4599 H         1 UNK         0.3095 
     80 H80        21.2295  -24.3449  -45.6897 H         1 UNK         0.0454 
     81 H81        19.9162  -23.4395  -47.6268 H         1 UNK         0.0851 
     82 H82        19.0876  -23.1335  -46.1137 H         1 UNK         0.0851 
     83 H83        18.5380  -24.4326  -47.1708 H         1 UNK         0.0851 
     84 H84        19.4203  -26.5181  -45.0997 H         1 UNK         0.2976 
     85 H85        22.6516  -29.9929  -45.5700 H         1 UNK         0.3116 
     86 H86        25.4758  -29.6588  -44.7973 H         1 UNK         0.0646 
     87 H87        23.2813  -31.5683  -43.8095 H         1 UNK         0.0847 
     88 H88        24.5099  -31.9449  -45.0162 H         1 UNK         0.0847 
     89 H89        24.9759  -31.6313  -43.3535 H         1 UNK         0.0847 
     90 H90        25.1758  -27.4628  -44.1618 H         1 UNK         0.3040 
     91 H91        23.3021  -26.3050  -42.6328 H         1 UNK         0.1015 
     92 H92        24.9963  -24.4843  -42.2519 H         1 UNK         0.0786 
     93 H93        25.0532  -25.0909  -43.8973 H         1 UNK         0.0786 
     94 H94        26.2810  -25.5842  -42.7304 H         1 UNK         0.0786 
     95 H95        23.0568  -25.4652  -40.6006 H         1 UNK         0.3172 
     96 H96        22.8858  -25.3694  -38.4145 H         1 UNK         0.0595 
     97 H97        25.6070  -26.7328  -38.0986 H         1 UNK         0.0839 
     98 H98        24.7400  -25.8067  -36.8882 H         1 UNK         0.0839 
     99 H99        25.3684  -24.9985  -38.3142 H         1 UNK         0.0839 
    100 H100       21.6286  -27.3724  -39.8487 H         1 UNK         0.2998 
    101 H101       20.1787  -28.9991  -39.5186 H         1 UNK         0.0822 
    102 H102       19.2832  -29.4264  -37.2889 H         1 UNK         0.0787 
    103 H103       19.6107  -27.7114  -37.4579 H         1 UNK         0.0787 
    104 H104       20.7035  -28.7330  -36.5234 H         1 UNK         0.0787 
    105 H105       22.9127  -29.8286  -40.1064 H         1 UNK         0.3055 
    106 H106       23.3350  -32.3496  -38.6501 H         1 UNK         0.1106 
    107 H107       25.2712  -30.9228  -39.2802 H         1 UNK         0.0828 
    108 H108       25.3620  -32.5011  -40.0467 H         1 UNK         0.0828 
    109 H109       24.8667  -31.1000  -40.9840 H         1 UNK         0.0828 
    110 H110       20.8878  -32.5474  -39.5791 H         1 UNK         0.2931 
    111 H111       20.5329  -33.6644  -42.1828 H         1 UNK         0.0412 
    112 H112       20.9346  -37.1886  -41.9121 H         1 UNK         0.3472 
    113 H113       20.3580  -35.8647  -42.8903 H         1 UNK         0.3472 
    114 H114       18.2998  -34.4434  -41.2379 H         1 UNK         0.0970 
    115 H115       18.8028  -33.8990  -39.6624 H         1 UNK         0.0970 
    116 H116       16.3024  -32.6764  -42.2065 H         1 UNK         0.0612 
    117 H117       17.6981  -33.1325  -43.1584 H         1 UNK         0.0612 
@<TRIPOS>BOND
     1    1    2 1    
     2    1   62 1    
     3    1   63 1    
     4    1   64 1    
     5    2    3 2    
     6    2    4 am   BACKBONE|DICT|INTERRES
     7    4    5 1    
     8    4   65 1    
     9    5    6 1    
    10    5   25 1    
    11    5   66 1    
    12    6    7 1    
    13    6   67 1    
    14    6   68 1    
    15    7    8 1    
    16    8    9 1    
    17    8   69 1    
    18    8   70 1    
    19    9   10 ar   
    20    9   14 ar   
    21   10   11 ar   
    22   10   71 1    
    23   11   12 ar   
    24   11   61 1    
    25   12   13 ar   
    26   12   72 1    
    27   13   14 ar   
    28   13   15 1    
    29   14   73 1    
    30   15   16 1    
    31   15   74 1    
    32   15   75 1    
    33   16   17 1    
    34   17   18 1    
    35   17   76 1    
    36   17   77 1    
    37   18   19 1    
    38   18   27 1    
    39   18   78 1    
    40   19   20 am   BACKBONE|DICT|INTERRES
    41   19   79 1    
    42   20   21 2    
    43   20   22 1    
    44   22   23 1    
    45   22   24 1    
    46   22   80 1    
    47   23   81 1    
    48   23   82 1    
    49   23   83 1    
    50   24   25 am   BACKBONE|DICT|INTERRES
    51   24   84 1    
    52   25   26 2    
    53   27   28 2    
    54   27   29 am   BACKBONE|DICT|INTERRES
    55   29   30 1    
    56   29   85 1    
    57   30   31 1    
    58   30   32 1    
    59   30   86 1    
    60   31   87 1    
    61   31   88 1    
    62   31   89 1    
    63   32   33 2    
    64   32   34 am   BACKBONE|DICT|INTERRES
    65   34   35 1    
    66   34   90 1    
    67   35   36 1    
    68   35   37 1    
    69   35   91 1    
    70   36   92 1    
    71   36   93 1    
    72   36   94 1    
    73   37   38 2    
    74   37   39 am   BACKBONE|DICT|INTERRES
    75   39   40 1    
    76   39   95 1    
    77   40   41 1    
    78   40   42 1    
    79   40   96 1    
    80   41   97 1    
    81   41   98 1    
    82   41   99 1    
    83   42   43 2    
    84   42   44 am   BACKBONE|DICT|INTERRES
    85   44   45 1    
    86   44  100 1    
    87   45   46 1    
    88   45   47 1    
    89   45  101 1    
    90   46  102 1    
    91   46  103 1    
    92   46  104 1    
    93   47   48 2    
    94   47   49 am   BACKBONE|DICT|INTERRES
    95   49   50 1    
    96   49  105 1    
    97   50   51 1    
    98   50   52 1    
    99   50  106 1    
   100   51  107 1    
   101   51  108 1    
   102   51  109 1    
   103   52   53 2    
   104   52   54 am   BACKBONE|DICT|INTERRES
   105   54   55 1    
   106   54  110 1    
   107   55   56 1    
   108   55   59 1    
   109   55  111 1    
   110   56   57 am   BACKBONE|DICT|INTERRES
   111   56   58 2    
   112   57  112 1    
   113   57  113 1    
   114   59   60 1    
   115   59  114 1    
   116   59  115 1    
   117   60   61 1    
   118   61  116 1    
   119   61  117 1    
@<TRIPOS>SUBSTRUCTURE
     1 UNK         1 GROUP             0       ****    0 ROOT    
