@<TRIPOS>MOLECULE
3R8
117   119    1
SMALL
USER_CHARGES


@<TRIPOS>ATOM
      1 CA         13.8863  -26.3431  -46.1264 C.3       0 UNK        -0.2013 
      2 C          14.6803  -26.1669  -44.8406 C.2       0 UNK         0.4866 
      3 O          14.4112  -25.2342  -44.0835 O.2       0 UNK        -0.5176 
      4 N          15.6543  -27.0559  -44.5978 N.am      1 UNK        -0.4884 
      5 CA         16.5382  -27.0887  -43.4208 C.3       1 UNK         0.0853 
      6 C6         15.8024  -27.4540  -42.1004 C.3       10 UNK        -0.0849 
      7 S7         15.1488  -29.1599  -42.1604 S.3       10 UNK        -0.2776 
      8 C8         16.3560  -30.0813  -41.1438 C.3       10 UNK         0.0316 
      9 C9         17.7945  -29.8545  -41.5933 C.ar      10 UNK        -0.0863 
     10 C10        18.2321  -30.3260  -42.8339 C.ar      10 UNK        -0.1009 
     11 C11        19.5327  -30.0652  -43.2760 C.ar      10 UNK        -0.0712 
     12 C12        20.4125  -29.3561  -42.4498 C.ar      10 UNK        -0.0894 
     13 C13        19.9900  -28.8930  -41.1985 C.ar      10 UNK        -0.0745 
     14 C14        18.6819  -29.1478  -40.7770 C.ar      10 UNK        -0.0972 
     15 C15        20.9332  -28.1142  -40.2926 C.3       10 UNK         0.0209 
     16 S16        20.4929  -26.3482  -40.2315 S.3       10 UNK        -0.2568 
     17 C17        22.0031  -25.5610  -40.8807 C.3       10 UNK        -0.0983 
     18 CA         22.0409  -25.5387  -42.4290 C.3       3 UNK         0.0876 
     19 N          20.8736  -24.8584  -43.0019 N.am      3 UNK        -0.4424 
     20 C          20.3747  -25.0770  -44.2226 C.2       2 UNK         0.4918 
     21 O          20.9059  -25.8144  -45.0565 O.2       2 UNK        -0.4875 
     22 CA         19.0357  -24.4015  -44.5514 C.3       2 UNK         0.0481 
     23 CB         19.0401  -23.7915  -45.9634 C.3       2 UNK        -0.1831 
     24 N          17.9803  -25.4070  -44.4599 N.am      2 UNK        -0.4498 
     25 C          17.4274  -25.8302  -43.3138 C.2       1 UNK         0.5027 
     26 O          17.6120  -25.2802  -42.2266 O.2       1 UNK        -0.4969 
     27 C          23.3795  -24.9997  -42.9821 C.2       3 UNK         0.5005 
     28 O          24.2498  -24.5824  -42.2147 O.2       3 UNK        -0.5279 
     29 N          23.5331  -25.0435  -44.3121 N.am      4 UNK        -0.4463 
     30 CA         24.8273  -24.9676  -44.9961 C.3       4 UNK         0.0283 
     31 CB         24.6072  -24.6103  -46.4745 C.3       4 UNK        -0.1875 
     32 C          25.5901  -26.2999  -44.8621 C.2       4 UNK         0.4949 
     33 O          26.8182  -26.2984  -44.7777 O.2       4 UNK        -0.5039 
     34 N          24.8329  -27.4041  -44.8175 N.am      5 UNK        -0.4663 
     35 CA         25.2889  -28.7450  -44.4590 C.3       5 UNK         0.0242 
     36 CB         24.4247  -29.7599  -45.2292 C.3       5 UNK        -0.1982 
     37 C          25.1883  -28.9657  -42.9360 C.2       5 UNK         0.5017 
     38 O          24.6975  -28.0948  -42.2125 O.2       5 UNK        -0.5012 
     39 N          25.6540  -30.1383  -42.4843 N.am      6 UNK        -0.4439 
     40 CA         25.6350  -30.5976  -41.0900 C.3       6 UNK         0.0297 
     41 CB         26.3477  -31.9596  -41.0196 C.3       6 UNK        -0.2006 
     42 C          24.2205  -30.7073  -40.4865 C.2       6 UNK         0.4892 
     43 O          23.2333  -30.7335  -41.2234 O.2       6 UNK        -0.5089 
     44 N          24.1598  -30.8008  -39.1499 N.am      7 UNK        -0.4243 
     45 CA         22.9398  -30.9335  -38.3458 C.3       7 UNK         0.0196 
     46 CB         23.3214  -31.0590  -36.8612 C.3       7 UNK        -0.2007 
     47 C          22.0597  -32.1163  -38.7903 C.2       7 UNK         0.5020 
     48 O          22.4841  -33.2660  -38.6659 O.2       7 UNK        -0.5147 
     49 N          20.8765  -31.7952  -39.3348 N.am      8 UNK        -0.4734 
     50 CA         19.8865  -32.6958  -39.9490 C.3       8 UNK         0.0238 
     51 CB         19.3473  -33.7150  -38.9227 C.3       8 UNK        -0.1912 
     52 C          20.3516  -33.3738  -41.2573 C.2       8 UNK         0.5038 
     53 O          19.6293  -34.2353  -41.7615 O.2       8 UNK        -0.5046 
     54 N          21.5135  -32.9545  -41.7797 N.am      9 UNK        -0.4200 
     55 CA         22.2045  -33.3910  -43.0004 C.3       9 UNK         0.0839 
     56 C          22.1387  -34.9145  -43.3221 C.2       9 UNK         0.5513 
     57 N          21.8657  -35.3102  -44.5587 N.am      9 UNK        -0.7519 
     58 O          22.4119  -35.7470  -42.4600 O.2       9 UNK        -0.4960 
     59 C59        21.9838  -32.4098  -44.1846 C.3       10 UNK        -0.0876 
     60 S60        20.2651  -32.2895  -44.7881 S.3       10 UNK        -0.2414 
     61 C61        19.9515  -30.4994  -44.6737 C.3       10 UNK         0.0169 
     62 H62        13.9867  -25.4577  -46.7537 H         1 UNK         0.0903 
     63 H63        14.2234  -27.2057  -46.7011 H         1 UNK         0.0903 
     64 H64        12.8297  -26.4809  -45.8981 H         1 UNK         0.0903 
     65 H65        15.8052  -27.8021  -45.2629 H         1 UNK         0.3096 
     66 H66        17.2536  -27.8870  -43.6176 H         1 UNK         0.1121 
     67 H67        14.9787  -26.7642  -41.9123 H         1 UNK         0.0849 
     68 H68        16.4649  -27.3648  -41.2380 H         1 UNK         0.0849 
     69 H69        16.2274  -29.7960  -40.0984 H         1 UNK         0.0865 
     70 H70        16.1266  -31.1464  -41.1982 H         1 UNK         0.0865 
     71 H71        17.5466  -30.8655  -43.4735 H         1 UNK         0.1346 
     72 H72        21.4223  -29.1568  -42.7823 H         1 UNK         0.1412 
     73 H73        18.3510  -28.7736  -39.8174 H         1 UNK         0.1426 
     74 H74        21.9689  -28.2489  -40.6095 H         1 UNK         0.0716 
     75 H75        20.8662  -28.5090  -39.2794 H         1 UNK         0.0716 
     76 H76        22.0518  -24.5451  -40.4848 H         1 UNK         0.0695 
     77 H77        22.8711  -26.0857  -40.4760 H         1 UNK         0.0695 
     78 H78        22.0001  -26.5825  -42.7493 H         1 UNK         0.0983 
     79 H79        20.3574  -24.2656  -42.3675 H         1 UNK         0.3095 
     80 H80        18.8454  -23.5992  -43.8352 H         1 UNK         0.0454 
     81 H81        19.2062  -24.5445  -46.7350 H         1 UNK         0.0851 
     82 H82        18.0955  -23.2932  -46.1814 H         1 UNK         0.0851 
     83 H83        19.8299  -23.0457  -46.0618 H         1 UNK         0.0851 
     84 H84        17.7754  -25.9206  -45.3050 H         1 UNK         0.2976 
     85 H85        22.7301  -25.3421  -44.8606 H         1 UNK         0.3116 
     86 H86        25.4299  -24.1811  -44.5368 H         1 UNK         0.0646 
     87 H87        25.5591  -24.5354  -47.0019 H         1 UNK         0.0847 
     88 H88        24.1032  -23.6493  -46.5790 H         1 UNK         0.0847 
     89 H89        24.0073  -25.3615  -46.9898 H         1 UNK         0.0847 
     90 H90        23.8330  -27.2827  -44.8638 H         1 UNK         0.3040 
     91 H91        26.3338  -28.8688  -44.7527 H         1 UNK         0.1015 
     92 H92        24.5235  -29.6218  -46.3061 H         1 UNK         0.0786 
     93 H93        23.3690  -29.6561  -44.9787 H         1 UNK         0.0786 
     94 H94        24.7166  -30.7880  -45.0128 H         1 UNK         0.0786 
     95 H95        26.0192  -30.7944  -43.1584 H         1 UNK         0.3172 
     96 H96        26.1977  -29.8730  -40.4981 H         1 UNK         0.0595 
     97 H97        27.3693  -31.8953  -41.3949 H         1 UNK         0.0839 
     98 H98        25.8225  -32.7187  -41.6013 H         1 UNK         0.0839 
     99 H99        26.4090  -32.3247  -39.9936 H         1 UNK         0.0839 
    100 H100       25.0281  -30.8008  -38.6348 H         1 UNK         0.2998 
    101 H101       22.3759  -30.0086  -38.4629 H         1 UNK         0.0822 
    102 H102       23.8691  -30.1822  -36.5149 H         1 UNK         0.0787 
    103 H103       22.4317  -31.1510  -36.2366 H         1 UNK         0.0787 
    104 H104       23.9409  -31.9376  -36.6761 H         1 UNK         0.0787 
    105 H105       20.6568  -30.8135  -39.4280 H         1 UNK         0.3055 
    106 H106       19.0496  -32.0608  -40.2411 H         1 UNK         0.1106 
    107 H107       18.4999  -34.2682  -39.3293 H         1 UNK         0.0828 
    108 H108       20.1040  -34.4477  -38.6414 H         1 UNK         0.0828 
    109 H109       19.0023  -33.2207  -38.0147 H         1 UNK         0.0828 
    110 H110       21.9960  -32.2067  -41.2916 H         1 UNK         0.2931 
    111 H111       23.2545  -33.2598  -42.7351 H         1 UNK         0.0412 
    112 H112       21.8501  -36.2957  -44.7705 H         1 UNK         0.3472 
    113 H113       21.6141  -34.6368  -45.2658 H         1 UNK         0.3472 
    114 H114       22.3111  -31.4208  -43.8641 H         1 UNK         0.0970 
    115 H115       22.6329  -32.6661  -45.0232 H         1 UNK         0.0970 
    116 H116       19.1535  -30.2469  -45.3733 H         1 UNK         0.0612 
    117 H117       20.8281  -29.9443  -45.0107 H         1 UNK         0.0612 
@<TRIPOS>BOND
     1    1    2 1    
     2    1   62 1    
     3    1   63 1    
     4    1   64 1    
     5    2    3 2    
     6    2    4 am   BACKBONE|DICT|INTERRES
     7    4    5 1    
     8    4   65 1    
     9    5    6 1    
    10    5   25 1    
    11    5   66 1    
    12    6    7 1    
    13    6   67 1    
    14    6   68 1    
    15    7    8 1    
    16    8    9 1    
    17    8   69 1    
    18    8   70 1    
    19    9   10 ar   
    20    9   14 ar   
    21   10   11 ar   
    22   10   71 1    
    23   11   12 ar   
    24   11   61 1    
    25   12   13 ar   
    26   12   72 1    
    27   13   14 ar   
    28   13   15 1    
    29   14   73 1    
    30   15   16 1    
    31   15   74 1    
    32   15   75 1    
    33   16   17 1    
    34   17   18 1    
    35   17   76 1    
    36   17   77 1    
    37   18   19 1    
    38   18   27 1    
    39   18   78 1    
    40   19   20 am   BACKBONE|DICT|INTERRES
    41   19   79 1    
    42   20   21 2    
    43   20   22 1    
    44   22   23 1    
    45   22   24 1    
    46   22   80 1    
    47   23   81 1    
    48   23   82 1    
    49   23   83 1    
    50   24   25 am   BACKBONE|DICT|INTERRES
    51   24   84 1    
    52   25   26 2    
    53   27   28 2    
    54   27   29 am   BACKBONE|DICT|INTERRES
    55   29   30 1    
    56   29   85 1    
    57   30   31 1    
    58   30   32 1    
    59   30   86 1    
    60   31   87 1    
    61   31   88 1    
    62   31   89 1    
    63   32   33 2    
    64   32   34 am   BACKBONE|DICT|INTERRES
    65   34   35 1    
    66   34   90 1    
    67   35   36 1    
    68   35   37 1    
    69   35   91 1    
    70   36   92 1    
    71   36   93 1    
    72   36   94 1    
    73   37   38 2    
    74   37   39 am   BACKBONE|DICT|INTERRES
    75   39   40 1    
    76   39   95 1    
    77   40   41 1    
    78   40   42 1    
    79   40   96 1    
    80   41   97 1    
    81   41   98 1    
    82   41   99 1    
    83   42   43 2    
    84   42   44 am   BACKBONE|DICT|INTERRES
    85   44   45 1    
    86   44  100 1    
    87   45   46 1    
    88   45   47 1    
    89   45  101 1    
    90   46  102 1    
    91   46  103 1    
    92   46  104 1    
    93   47   48 2    
    94   47   49 am   BACKBONE|DICT|INTERRES
    95   49   50 1    
    96   49  105 1    
    97   50   51 1    
    98   50   52 1    
    99   50  106 1    
   100   51  107 1    
   101   51  108 1    
   102   51  109 1    
   103   52   53 2    
   104   52   54 am   BACKBONE|DICT|INTERRES
   105   54   55 1    
   106   54  110 1    
   107   55   56 1    
   108   55   59 1    
   109   55  111 1    
   110   56   57 am   BACKBONE|DICT|INTERRES
   111   56   58 2    
   112   57  112 1    
   113   57  113 1    
   114   59   60 1    
   115   59  114 1    
   116   59  115 1    
   117   60   61 1    
   118   61  116 1    
   119   61  117 1    
@<TRIPOS>SUBSTRUCTURE
     1 UNK         1 GROUP             0       ****    0 ROOT    
