@<TRIPOS>MOLECULE
3R8
117   119    1
SMALL
USER_CHARGES


@<TRIPOS>ATOM
      1 CA         23.2661  -24.5114  -48.0132 C.3       0 UNK        -0.2013 
      2 C          22.8909  -24.6281  -46.5437 C.2       0 UNK         0.4866 
      3 O          22.8934  -23.6257  -45.8291 O.2       0 UNK        -0.5176 
      4 N          22.5684  -25.8450  -46.0859 N.am      1 UNK        -0.4884 
      5 CA         22.1577  -26.1449  -44.7077 C.3       1 UNK         0.0853 
      6 C6         22.2714  -27.6593  -44.3829 C.3       10 UNK        -0.0849 
      7 S7         21.4226  -28.7269  -45.5995 S.3       10 UNK        -0.2776 
      8 C8         21.5563  -30.3731  -44.8298 C.3       10 UNK         0.0316 
      9 C9         20.3357  -30.7216  -43.9874 C.ar      10 UNK        -0.0863 
     10 C10        20.4648  -31.0328  -42.6301 C.ar      10 UNK        -0.1009 
     11 C11        19.3521  -31.4406  -41.8801 C.ar      10 UNK        -0.0712 
     12 C12        18.0942  -31.4692  -42.4898 C.ar      10 UNK        -0.0894 
     13 C13        17.9456  -31.1220  -43.8353 C.ar      10 UNK        -0.0745 
     14 C14        19.0737  -30.7801  -44.5849 C.ar      10 UNK        -0.0972 
     15 C15        16.5637  -31.0727  -44.4701 C.3       10 UNK         0.0209 
     16 S16        16.0951  -29.3699  -44.9288 S.3       10 UNK        -0.2568 
     17 C17        16.0876  -28.5159  -43.3119 C.3       10 UNK        -0.0983 
     18 CA         17.4558  -27.8709  -42.9441 C.3       3 UNK         0.0876 
     19 N          18.0131  -27.0132  -43.9966 N.am      3 UNK        -0.4424 
     20 C          17.5663  -25.8119  -44.3890 C.2       2 UNK         0.4918 
     21 O          16.5026  -25.3194  -44.0110 O.2       2 UNK        -0.4875 
     22 CA         18.4914  -25.0016  -45.3255 C.3       2 UNK         0.0481 
     23 CB         18.4634  -23.4967  -44.9869 C.3       2 UNK        -0.1831 
     24 N          19.8849  -25.4763  -45.3780 N.am      2 UNK        -0.4498 
     25 C          20.7533  -25.6105  -44.3601 C.2       1 UNK         0.5027 
     26 O          20.4730  -25.3846  -43.1798 O.2       1 UNK        -0.4969 
     27 C          17.4510  -27.1857  -41.5541 C.2       3 UNK         0.5005 
     28 O          16.6223  -27.5285  -40.7083 O.2       3 UNK        -0.5279 
     29 N          18.3706  -26.2307  -41.3418 N.am      4 UNK        -0.4463 
     30 CA         18.4702  -25.4048  -40.1376 C.3       4 UNK         0.0283 
     31 CB         18.1086  -23.9526  -40.4916 C.3       4 UNK        -0.1875 
     32 C          19.8696  -25.4701  -39.5121 C.2       4 UNK         0.4949 
     33 O          19.9720  -25.5070  -38.2861 O.2       4 UNK        -0.5039 
     34 N          20.9229  -25.4858  -40.3443 N.am      5 UNK        -0.4663 
     35 CA         22.3202  -25.5206  -39.8914 C.3       5 UNK         0.0242 
     36 CB         23.2411  -25.1060  -41.0491 C.3       5 UNK        -0.1982 
     37 C          22.7533  -26.8921  -39.3456 C.2       5 UNK         0.5017 
     38 O          23.6906  -26.9520  -38.5498 O.2       5 UNK        -0.5012 
     39 N          22.0738  -27.9565  -39.8003 N.am      6 UNK        -0.4439 
     40 CA         22.2808  -29.3666  -39.4472 C.3       6 UNK         0.0297 
     41 CB         21.8767  -29.6255  -37.9805 C.3       6 UNK        -0.2006 
     42 C          23.6900  -29.8976  -39.7876 C.2       6 UNK         0.4892 
     43 O          24.2437  -30.7065  -39.0413 O.2       6 UNK        -0.5089 
     44 N          24.2505  -29.4175  -40.9067 N.am      7 UNK        -0.4243 
     45 CA         25.6200  -29.7066  -41.3394 C.3       7 UNK         0.0196 
     46 CB         26.0399  -28.6727  -42.3975 C.3       7 UNK        -0.2007 
     47 C          25.8243  -31.1335  -41.8778 C.2       7 UNK         0.5020 
     48 O          26.9113  -31.6866  -41.7085 O.2       7 UNK        -0.5147 
     49 N          24.8007  -31.6947  -42.5330 N.am      8 UNK        -0.4734 
     50 CA         24.8527  -32.9933  -43.2079 C.3       8 UNK         0.0238 
     51 CB         25.6437  -32.8770  -44.5297 C.3       8 UNK        -0.1912 
     52 C          23.4254  -33.5137  -43.4199 C.2       8 UNK         0.5038 
     53 O          22.9490  -33.5576  -44.5555 O.2       8 UNK        -0.5046 
     54 N          22.7494  -33.8425  -42.3137 N.am      9 UNK        -0.4200 
     55 CA         21.3715  -34.3599  -42.2995 C.3       9 UNK         0.0839 
     56 C          21.2491  -35.7736  -42.9299 C.2       9 UNK         0.5513 
     57 N          20.1192  -36.0785  -43.5533 N.am      9 UNK        -0.7519 
     58 O          22.1465  -36.6069  -42.8192 O.2       9 UNK        -0.4960 
     59 C59        20.7518  -34.3407  -40.8757 C.3       10 UNK        -0.0876 
     60 S60        20.9855  -32.7607  -39.9906 S.3       10 UNK        -0.2414 
     61 C61        19.4685  -31.8349  -40.4079 C.3       10 UNK         0.0169 
     62 H62        23.2229  -25.4736  -48.5233 H         1 UNK         0.0903 
     63 H63        22.5863  -23.8275  -48.5208 H         1 UNK         0.0903 
     64 H64        24.2787  -24.1209  -48.1117 H         1 UNK         0.0903 
     65 H65        22.5848  -26.6400  -46.7111 H         1 UNK         0.3096 
     66 H66        22.8485  -25.6115  -44.0528 H         1 UNK         0.1121 
     67 H67        23.3245  -27.9434  -44.3711 H         1 UNK         0.0849 
     68 H68        21.8930  -27.8787  -43.3822 H         1 UNK         0.0849 
     69 H69        22.4756  -30.4358  -44.2471 H         1 UNK         0.0865 
     70 H70        21.6517  -31.1199  -45.6195 H         1 UNK         0.0865 
     71 H71        21.4404  -31.0022  -42.1688 H         1 UNK         0.1346 
     72 H72        17.2240  -31.7465  -41.9105 H         1 UNK         0.1412 
     73 H73        18.9633  -30.5280  -45.6311 H         1 UNK         0.1426 
     74 H74        15.8074  -31.4857  -43.8008 H         1 UNK         0.0716 
     75 H75        16.5576  -31.6961  -45.3652 H         1 UNK         0.0716 
     76 H76        15.7804  -29.2310  -42.5466 H         1 UNK         0.0695 
     77 H77        15.3085  -27.7525  -43.3412 H         1 UNK         0.0695 
     78 H78        18.1810  -28.6736  -42.8284 H         1 UNK         0.0983 
     79 H79        18.8779  -27.3385  -44.4036 H         1 UNK         0.3095 
     80 H80        18.0888  -25.1259  -46.3315 H         1 UNK         0.0454 
     81 H81        19.1053  -22.9267  -45.6585 H         1 UNK         0.0851 
     82 H82        18.7951  -23.3066  -43.9656 H         1 UNK         0.0851 
     83 H83        17.4564  -23.0889  -45.0825 H         1 UNK         0.0851 
     84 H84        20.2230  -25.7288  -46.2965 H         1 UNK         0.2976 
     85 H85        19.0178  -26.0080  -42.0926 H         1 UNK         0.3116 
     86 H86        17.7655  -25.7525  -39.3793 H         1 UNK         0.0646 
     87 H87        18.1681  -23.3087  -39.6131 H         1 UNK         0.0847 
     88 H88        17.0913  -23.8825  -40.8772 H         1 UNK         0.0847 
     89 H89        18.7797  -23.5405  -41.2465 H         1 UNK         0.0847 
     90 H90        20.7685  -25.4065  -41.3463 H         1 UNK         0.3040 
     91 H91        22.4360  -24.7929  -39.0846 H         1 UNK         0.1015 
     92 H92        22.9306  -24.1594  -41.4923 H         1 UNK         0.0786 
     93 H93        23.2582  -25.8611  -41.8335 H         1 UNK         0.0786 
     94 H94        24.2675  -24.9807  -40.7014 H         1 UNK         0.0786 
     95 H95        21.3146  -27.7675  -40.4389 H         1 UNK         0.3172 
     96 H96        21.5936  -29.9228  -40.0797 H         1 UNK         0.0595 
     97 H97        22.5497  -29.1275  -37.2820 H         1 UNK         0.0839 
     98 H98        21.8995  -30.6914  -37.7501 H         1 UNK         0.0839 
     99 H99        20.8644  -29.2748  -37.7801 H         1 UNK         0.0839 
    100 H100       23.7350  -28.7387  -41.4451 H         1 UNK         0.2998 
    101 H101       26.2762  -29.5883  -40.4739 H         1 UNK         0.0822 
    102 H102       25.4259  -28.7393  -43.2961 H         1 UNK         0.0787 
    103 H103       25.9667  -27.6554  -42.0120 H         1 UNK         0.0787 
    104 H104       27.0762  -28.8275  -42.7017 H         1 UNK         0.0787 
    105 H105       23.9293  -31.1900  -42.5975 H         1 UNK         0.3055 
    106 H106       25.3649  -33.7128  -42.5645 H         1 UNK         0.1106 
    107 H107       25.6517  -33.8274  -45.0651 H         1 UNK         0.0828 
    108 H108       25.2087  -32.1301  -45.1949 H         1 UNK         0.0828 
    109 H109       26.6833  -32.6016  -44.3529 H         1 UNK         0.0828 
    110 H110       23.2028  -33.7675  -41.4151 H         1 UNK         0.2931 
    111 H111       20.7809  -33.6904  -42.9254 H         1 UNK         0.0412 
    112 H112       19.3757  -35.4032  -43.6435 H         1 UNK         0.3472 
    113 H113       20.0128  -36.9971  -43.9552 H         1 UNK         0.3472 
    114 H114       19.6852  -34.5683  -40.9218 H         1 UNK         0.0970 
    115 H115       21.1982  -35.1242  -40.2603 H         1 UNK         0.0970 
    116 H116       18.6096  -32.4348  -40.1032 H         1 UNK         0.0612 
    117 H117       19.4348  -30.9277  -39.8040 H         1 UNK         0.0612 
@<TRIPOS>BOND
     1    1    2 1    
     2    1   62 1    
     3    1   63 1    
     4    1   64 1    
     5    2    3 2    
     6    2    4 am   BACKBONE|DICT|INTERRES
     7    4    5 1    
     8    4   65 1    
     9    5    6 1    
    10    5   25 1    
    11    5   66 1    
    12    6    7 1    
    13    6   67 1    
    14    6   68 1    
    15    7    8 1    
    16    8    9 1    
    17    8   69 1    
    18    8   70 1    
    19    9   10 ar   
    20    9   14 ar   
    21   10   11 ar   
    22   10   71 1    
    23   11   12 ar   
    24   11   61 1    
    25   12   13 ar   
    26   12   72 1    
    27   13   14 ar   
    28   13   15 1    
    29   14   73 1    
    30   15   16 1    
    31   15   74 1    
    32   15   75 1    
    33   16   17 1    
    34   17   18 1    
    35   17   76 1    
    36   17   77 1    
    37   18   19 1    
    38   18   27 1    
    39   18   78 1    
    40   19   20 am   BACKBONE|DICT|INTERRES
    41   19   79 1    
    42   20   21 2    
    43   20   22 1    
    44   22   23 1    
    45   22   24 1    
    46   22   80 1    
    47   23   81 1    
    48   23   82 1    
    49   23   83 1    
    50   24   25 am   BACKBONE|DICT|INTERRES
    51   24   84 1    
    52   25   26 2    
    53   27   28 2    
    54   27   29 am   BACKBONE|DICT|INTERRES
    55   29   30 1    
    56   29   85 1    
    57   30   31 1    
    58   30   32 1    
    59   30   86 1    
    60   31   87 1    
    61   31   88 1    
    62   31   89 1    
    63   32   33 2    
    64   32   34 am   BACKBONE|DICT|INTERRES
    65   34   35 1    
    66   34   90 1    
    67   35   36 1    
    68   35   37 1    
    69   35   91 1    
    70   36   92 1    
    71   36   93 1    
    72   36   94 1    
    73   37   38 2    
    74   37   39 am   BACKBONE|DICT|INTERRES
    75   39   40 1    
    76   39   95 1    
    77   40   41 1    
    78   40   42 1    
    79   40   96 1    
    80   41   97 1    
    81   41   98 1    
    82   41   99 1    
    83   42   43 2    
    84   42   44 am   BACKBONE|DICT|INTERRES
    85   44   45 1    
    86   44  100 1    
    87   45   46 1    
    88   45   47 1    
    89   45  101 1    
    90   46  102 1    
    91   46  103 1    
    92   46  104 1    
    93   47   48 2    
    94   47   49 am   BACKBONE|DICT|INTERRES
    95   49   50 1    
    96   49  105 1    
    97   50   51 1    
    98   50   52 1    
    99   50  106 1    
   100   51  107 1    
   101   51  108 1    
   102   51  109 1    
   103   52   53 2    
   104   52   54 am   BACKBONE|DICT|INTERRES
   105   54   55 1    
   106   54  110 1    
   107   55   56 1    
   108   55   59 1    
   109   55  111 1    
   110   56   57 am   BACKBONE|DICT|INTERRES
   111   56   58 2    
   112   57  112 1    
   113   57  113 1    
   114   59   60 1    
   115   59  114 1    
   116   59  115 1    
   117   60   61 1    
   118   61  116 1    
   119   61  117 1    
@<TRIPOS>SUBSTRUCTURE
     1 UNK         1 GROUP             0       ****    0 ROOT    
