@<TRIPOS>MOLECULE
3R8
117   119    1
SMALL
USER_CHARGES


@<TRIPOS>ATOM
      1 CA         15.2998  -23.3393  -43.3781 C.3       0 UNK        -0.2013 
      2 C          15.9562  -24.5631  -42.7574 C.2       0 UNK         0.4866 
      3 O          16.0415  -24.6519  -41.5329 O.2       0 UNK        -0.5176 
      4 N          16.4257  -25.4972  -43.5971 N.am      1 UNK        -0.4884 
      5 CA         17.0680  -26.7695  -43.2238 C.3       1 UNK         0.0853 
      6 C6         16.1160  -27.7548  -42.4862 C.3       10 UNK        -0.0849 
      7 S7         14.7452  -28.2906  -43.5660 S.3       10 UNK        -0.2776 
      8 C8         15.0784  -30.0792  -43.7511 C.3       10 UNK         0.0316 
      9 C9         16.4716  -30.4048  -44.2880 C.ar      10 UNK        -0.0863 
     10 C10        17.2327  -31.4109  -43.6832 C.ar      10 UNK        -0.1009 
     11 C11        18.5007  -31.7457  -44.1717 C.ar      10 UNK        -0.0712 
     12 C12        19.0159  -31.0460  -45.2690 C.ar      10 UNK        -0.0894 
     13 C13        18.2707  -30.0323  -45.8771 C.ar      10 UNK        -0.0745 
     14 C14        16.9928  -29.7323  -45.3974 C.ar      10 UNK        -0.0972 
     15 C15        18.8338  -29.2614  -47.0590 C.3       10 UNK         0.0209 
     16 S16        19.4243  -27.6192  -46.5480 S.3       10 UNK        -0.2568 
     17 C17        21.1025  -27.9938  -45.9344 C.3       10 UNK        -0.0983 
     18 CA         21.8895  -26.6780  -45.6965 C.3       3 UNK         0.0876 
     19 N          21.3144  -25.8884  -44.5982 N.am      3 UNK        -0.4424 
     20 C          21.4427  -26.0882  -43.2759 C.2       2 UNK         0.4918 
     21 O          22.2003  -26.9040  -42.7511 O.2       2 UNK        -0.4875 
     22 CA         20.5097  -25.2507  -42.3880 C.3       2 UNK         0.0481 
     23 CB         20.8576  -23.7541  -42.4496 C.3       2 UNK        -0.1831 
     24 N          19.1157  -25.4660  -42.7829 N.am      2 UNK        -0.4498 
     25 C          18.4248  -26.5836  -42.5072 C.2       1 UNK         0.5027 
     26 O          18.8388  -27.4575  -41.7466 O.2       1 UNK        -0.4969 
     27 C          23.4098  -26.8851  -45.5421 C.2       3 UNK         0.5005 
     28 O          23.8634  -28.0006  -45.2854 O.2       3 UNK        -0.5279 
     29 N          24.1604  -25.7775  -45.6578 N.am      4 UNK        -0.4463 
     30 CA         25.6204  -25.6800  -45.4996 C.3       4 UNK         0.0283 
     31 CB         26.3531  -26.4642  -46.6095 C.3       4 UNK        -0.1875 
     32 C          26.0979  -26.0589  -44.0827 C.2       4 UNK         0.4949 
     33 O          27.1727  -26.6395  -43.9261 O.2       4 UNK        -0.5039 
     34 N          25.2719  -25.7189  -43.0818 N.am      5 UNK        -0.4663 
     35 CA         25.4329  -25.9979  -41.6497 C.3       5 UNK         0.0242 
     36 CB         26.6608  -25.2584  -41.0752 C.3       5 UNK        -0.1982 
     37 C          25.4188  -27.5004  -41.2995 C.2       5 UNK         0.5017 
     38 O          25.9818  -27.8877  -40.2740 O.2       5 UNK        -0.5012 
     39 N          24.7558  -28.3186  -42.1306 N.am      6 UNK        -0.4439 
     40 CA         24.4948  -29.7335  -41.8603 C.3       6 UNK         0.0297 
     41 CB         24.0452  -30.4376  -43.1485 C.3       6 UNK        -0.2006 
     42 C          23.4524  -29.9250  -40.7460 C.2       6 UNK         0.4892 
     43 O          23.6081  -30.8445  -39.9421 O.2       6 UNK        -0.5089 
     44 N          22.4436  -29.0369  -40.7041 N.am      7 UNK        -0.4243 
     45 CA         21.3528  -28.9744  -39.7246 C.3       7 UNK         0.0196 
     46 CB         21.8893  -28.4837  -38.3602 C.3       7 UNK        -0.2007 
     47 C          20.5683  -30.3001  -39.6596 C.2       7 UNK         0.5020 
     48 O          19.9320  -30.6763  -40.6436 O.2       7 UNK        -0.5147 
     49 N          20.6417  -31.0055  -38.5238 N.am      8 UNK        -0.4734 
     50 CA         20.1681  -32.3809  -38.3697 C.3       8 UNK         0.0238 
     51 CB         19.9265  -32.6644  -36.8753 C.3       8 UNK        -0.1912 
     52 C          21.1962  -33.3415  -38.9953 C.2       8 UNK         0.5038 
     53 O          22.0386  -33.8823  -38.2757 O.2       8 UNK        -0.5046 
     54 N          21.1347  -33.4668  -40.3280 N.am      9 UNK        -0.4200 
     55 CA         22.0672  -34.1973  -41.2018 C.3       9 UNK         0.0839 
     56 C          22.3948  -35.6405  -40.7267 C.2       9 UNK         0.5513 
     57 N          23.6583  -36.0398  -40.7728 N.am      9 UNK        -0.7519 
     58 O          21.5058  -36.4125  -40.3732 O.2       9 UNK        -0.4960 
     59 C59        21.5603  -34.2405  -42.6691 C.3       10 UNK        -0.0876 
     60 S60        21.0501  -32.6185  -43.3388 S.3       10 UNK        -0.2414 
     61 C61        19.2616  -32.9111  -43.5456 C.3       10 UNK         0.0169 
     62 H62        15.8309  -22.4361  -43.0790 H         1 UNK         0.0903 
     63 H63        15.2947  -23.3851  -44.4669 H         1 UNK         0.0903 
     64 H64        14.2678  -23.2558  -43.0385 H         1 UNK         0.0903 
     65 H65        16.3124  -25.3565  -44.5918 H         1 UNK         0.3096 
     66 H66        17.3453  -27.2411  -44.1670 H         1 UNK         0.1121 
     67 H67        16.6516  -28.6425  -42.1455 H         1 UNK         0.0849 
     68 H68        15.7021  -27.2986  -41.5862 H         1 UNK         0.0849 
     69 H69        14.9194  -30.5577  -42.7833 H         1 UNK         0.0865 
     70 H70        14.3363  -30.5053  -44.4274 H         1 UNK         0.0865 
     71 H71        16.8281  -31.9518  -42.8385 H         1 UNK         0.1346 
     72 H72        19.9943  -31.2955  -45.6556 H         1 UNK         0.1412 
     73 H73        16.4103  -28.9587  -45.8792 H         1 UNK         0.1426 
     74 H74        18.0540  -29.1352  -47.8115 H         1 UNK         0.0716 
     75 H75        19.6384  -29.8155  -47.5448 H         1 UNK         0.0716 
     76 H76        21.6047  -28.6165  -46.6773 H         1 UNK         0.0695 
     77 H77        21.0360  -28.5863  -45.0196 H         1 UNK         0.0695 
     78 H78        21.7777  -26.0730  -46.5984 H         1 UNK         0.0983 
     79 H79        20.6593  -25.1811  -44.8957 H         1 UNK         0.3095 
     80 H80        20.6393  -25.5801  -41.3546 H         1 UNK         0.0454 
     81 H81        21.8976  -23.5849  -42.1672 H         1 UNK         0.0851 
     82 H82        20.2405  -23.1797  -41.7586 H         1 UNK         0.0851 
     83 H83        20.7175  -23.3348  -43.4463 H         1 UNK         0.0851 
     84 H84        18.6898  -24.7831  -43.3923 H         1 UNK         0.2976 
     85 H85        23.6862  -24.9047  -45.8486 H         1 UNK         0.3116 
     86 H86        25.8707  -24.6258  -45.6268 H         1 UNK         0.0646 
     87 H87        26.2116  -27.5404  -46.5074 H         1 UNK         0.0847 
     88 H88        26.0045  -26.1720  -47.5998 H         1 UNK         0.0847 
     89 H89        27.4268  -26.2756  -46.5773 H         1 UNK         0.0847 
     90 H90        24.4051  -25.2680  -43.3378 H         1 UNK         0.3040 
     91 H91        24.5480  -25.5827  -41.1644 H         1 UNK         0.1015 
     92 H92        26.6892  -25.3321  -39.9874 H         1 UNK         0.0786 
     93 H93        26.6382  -24.1976  -41.3245 H         1 UNK         0.0786 
     94 H94        27.5966  -25.6725  -41.4516 H         1 UNK         0.0786 
     95 H95        24.3025  -27.9190  -42.9448 H         1 UNK         0.3172 
     96 H96        25.4285  -30.1953  -41.5322 H         1 UNK         0.0595 
     97 H97        23.1018  -30.0350  -43.5208 H         1 UNK         0.0839 
     98 H98        23.8997  -31.5047  -42.9766 H         1 UNK         0.0839 
     99 H99        24.7881  -30.3340  -43.9394 H         1 UNK         0.0839 
    100 H100       22.3981  -28.3424  -41.4453 H         1 UNK         0.2998 
    101 H101       20.6537  -28.2228  -40.0898 H         1 UNK         0.0822 
    102 H102       21.0838  -28.3848  -37.6312 H         1 UNK         0.0787 
    103 H103       22.3512  -27.5010  -38.4575 H         1 UNK         0.0787 
    104 H104       22.6401  -29.1558  -37.9431 H         1 UNK         0.0787 
    105 H105       21.2273  -30.6465  -37.7836 H         1 UNK         0.3055 
    106 H106       19.2169  -32.5037  -38.8936 H         1 UNK         0.1106 
    107 H107       19.1569  -32.0088  -36.4677 H         1 UNK         0.0828 
    108 H108       19.5902  -33.6910  -36.7246 H         1 UNK         0.0828 
    109 H109       20.8312  -32.5275  -36.2816 H         1 UNK         0.0828 
    110 H110       20.4620  -32.8893  -40.8158 H         1 UNK         0.2931 
    111 H111       22.9923  -33.6177  -41.1873 H         1 UNK         0.0412 
    112 H112       23.8868  -36.9792  -40.4867 H         1 UNK         0.3472 
    113 H113       24.3915  -35.4159  -41.0728 H         1 UNK         0.3472 
    114 H114       20.7297  -34.9435  -42.7606 H         1 UNK         0.0970 
    115 H115       22.3454  -34.6294  -43.3202 H         1 UNK         0.0970 
    116 H116       19.1160  -33.7884  -44.1769 H         1 UNK         0.0612 
    117 H117       18.8420  -33.1544  -42.5681 H         1 UNK         0.0612 
@<TRIPOS>BOND
     1    1    2 1    
     2    1   62 1    
     3    1   63 1    
     4    1   64 1    
     5    2    3 2    
     6    2    4 am   BACKBONE|DICT|INTERRES
     7    4    5 1    
     8    4   65 1    
     9    5    6 1    
    10    5   25 1    
    11    5   66 1    
    12    6    7 1    
    13    6   67 1    
    14    6   68 1    
    15    7    8 1    
    16    8    9 1    
    17    8   69 1    
    18    8   70 1    
    19    9   10 ar   
    20    9   14 ar   
    21   10   11 ar   
    22   10   71 1    
    23   11   12 ar   
    24   11   61 1    
    25   12   13 ar   
    26   12   72 1    
    27   13   14 ar   
    28   13   15 1    
    29   14   73 1    
    30   15   16 1    
    31   15   74 1    
    32   15   75 1    
    33   16   17 1    
    34   17   18 1    
    35   17   76 1    
    36   17   77 1    
    37   18   19 1    
    38   18   27 1    
    39   18   78 1    
    40   19   20 am   BACKBONE|DICT|INTERRES
    41   19   79 1    
    42   20   21 2    
    43   20   22 1    
    44   22   23 1    
    45   22   24 1    
    46   22   80 1    
    47   23   81 1    
    48   23   82 1    
    49   23   83 1    
    50   24   25 am   BACKBONE|DICT|INTERRES
    51   24   84 1    
    52   25   26 2    
    53   27   28 2    
    54   27   29 am   BACKBONE|DICT|INTERRES
    55   29   30 1    
    56   29   85 1    
    57   30   31 1    
    58   30   32 1    
    59   30   86 1    
    60   31   87 1    
    61   31   88 1    
    62   31   89 1    
    63   32   33 2    
    64   32   34 am   BACKBONE|DICT|INTERRES
    65   34   35 1    
    66   34   90 1    
    67   35   36 1    
    68   35   37 1    
    69   35   91 1    
    70   36   92 1    
    71   36   93 1    
    72   36   94 1    
    73   37   38 2    
    74   37   39 am   BACKBONE|DICT|INTERRES
    75   39   40 1    
    76   39   95 1    
    77   40   41 1    
    78   40   42 1    
    79   40   96 1    
    80   41   97 1    
    81   41   98 1    
    82   41   99 1    
    83   42   43 2    
    84   42   44 am   BACKBONE|DICT|INTERRES
    85   44   45 1    
    86   44  100 1    
    87   45   46 1    
    88   45   47 1    
    89   45  101 1    
    90   46  102 1    
    91   46  103 1    
    92   46  104 1    
    93   47   48 2    
    94   47   49 am   BACKBONE|DICT|INTERRES
    95   49   50 1    
    96   49  105 1    
    97   50   51 1    
    98   50   52 1    
    99   50  106 1    
   100   51  107 1    
   101   51  108 1    
   102   51  109 1    
   103   52   53 2    
   104   52   54 am   BACKBONE|DICT|INTERRES
   105   54   55 1    
   106   54  110 1    
   107   55   56 1    
   108   55   59 1    
   109   55  111 1    
   110   56   57 am   BACKBONE|DICT|INTERRES
   111   56   58 2    
   112   57  112 1    
   113   57  113 1    
   114   59   60 1    
   115   59  114 1    
   116   59  115 1    
   117   60   61 1    
   118   61  116 1    
   119   61  117 1    
@<TRIPOS>SUBSTRUCTURE
     1 UNK         1 GROUP             0       ****    0 ROOT    
