@<TRIPOS>MOLECULE
3R8
117   119    1
SMALL
USER_CHARGES


@<TRIPOS>ATOM
      1 CA         13.4869  -23.1165  -47.2565 C.3       0 UNK        -0.2013 
      2 C          14.9955  -23.2820  -47.3645 C.2       0 UNK         0.4866 
      3 O          15.7135  -22.2889  -47.4885 O.2       0 UNK        -0.5176 
      4 N          15.4803  -24.5290  -47.3282 N.am      1 UNK        -0.4884 
      5 CA         16.9051  -24.8760  -47.3377 C.3       1 UNK         0.0853 
      6 C6         17.1253  -26.3178  -47.8701 C.3       10 UNK        -0.0849 
      7 S7         16.3439  -27.6280  -46.8608 S.3       10 UNK        -0.2776 
      8 C8         17.8229  -28.3489  -46.0734 C.3       10 UNK         0.0316 
      9 C9         17.5376  -29.1153  -44.7865 C.ar      10 UNK        -0.0863 
     10 C10        18.2999  -30.2484  -44.4856 C.ar      10 UNK        -0.1009 
     11 C11        18.1405  -30.9114  -43.2660 C.ar      10 UNK        -0.0712 
     12 C12        17.2005  -30.4446  -42.3454 C.ar      10 UNK        -0.0894 
     13 C13        16.4487  -29.3003  -42.6216 C.ar      10 UNK        -0.0745 
     14 C14        16.6060  -28.6500  -43.8497 C.ar      10 UNK        -0.0972 
     15 C15        15.5375  -28.7222  -41.5513 C.3       10 UNK         0.0209 
     16 S16        16.5142  -27.9047  -40.2446 S.3       10 UNK        -0.2568 
     17 C17        17.1298  -26.4167  -41.1040 C.3       10 UNK        -0.0983 
     18 CA         18.5024  -26.6142  -41.7986 C.3       3 UNK         0.0876 
     19 N          18.7330  -25.5663  -42.7912 N.am      3 UNK        -0.4424 
     20 C          19.6285  -25.6325  -43.7813 C.2       2 UNK         0.4918 
     21 O          20.3479  -26.6099  -43.9940 O.2       2 UNK        -0.4875 
     22 CA         19.7040  -24.4080  -44.7120 C.3       2 UNK         0.0481 
     23 CB         21.1552  -24.0979  -45.1189 C.3       2 UNK        -0.1831 
     24 N          18.8949  -24.5956  -45.9198 N.am      2 UNK        -0.4498 
     25 C          17.5544  -24.6357  -45.9530 C.2       1 UNK         0.5027 
     26 O          16.8462  -24.4967  -44.9509 O.2       1 UNK        -0.4969 
     27 C          19.6764  -26.6855  -40.8043 C.2       3 UNK         0.5005 
     28 O          20.0916  -25.6460  -40.2850 O.2       3 UNK        -0.5279 
     29 N          20.1814  -27.9075  -40.5696 N.am      4 UNK        -0.4463 
     30 CA         21.3132  -28.2454  -39.6961 C.3       4 UNK         0.0283 
     31 CB         20.9473  -28.0137  -38.2148 C.3       4 UNK        -0.1875 
     32 C          22.6278  -27.5503  -40.1080 C.2       4 UNK         0.4949 
     33 O          23.3775  -27.0842  -39.2488 O.2       4 UNK        -0.5039 
     34 N          22.8879  -27.4975  -41.4233 N.am      5 UNK        -0.4663 
     35 CA         24.0834  -26.8868  -42.0215 C.3       5 UNK         0.0242 
     36 CB         23.8738  -26.7619  -43.5392 C.3       5 UNK        -0.1982 
     37 C          25.3968  -27.6370  -41.7238 C.2       5 UNK         0.5017 
     38 O          26.4708  -27.0483  -41.8542 O.2       5 UNK        -0.5012 
     39 N          25.2903  -28.9099  -41.3332 N.am      6 UNK        -0.4439 
     40 CA         26.3736  -29.7850  -40.9039 C.3       6 UNK         0.0297 
     41 CB         26.9754  -30.5024  -42.1258 C.3       6 UNK        -0.2006 
     42 C          25.7844  -30.7899  -39.9093 C.2       6 UNK         0.4892 
     43 O          24.5667  -30.9888  -39.9041 O.2       6 UNK        -0.5089 
     44 N          26.6498  -31.4401  -39.1200 N.am      7 UNK        -0.4243 
     45 CA         26.2697  -32.4570  -38.1290 C.3       7 UNK         0.0196 
     46 CB         27.5052  -32.8575  -37.3067 C.3       7 UNK        -0.2007 
     47 C          25.6027  -33.7029  -38.7422 C.2       7 UNK         0.5020 
     48 O          24.7178  -34.2875  -38.1177 O.2       7 UNK        -0.5147 
     49 N          26.0182  -34.0663  -39.9631 N.am      8 UNK        -0.4734 
     50 CA         25.4141  -35.1345  -40.7665 C.3       8 UNK         0.0238 
     51 CB         26.4839  -35.7029  -41.7147 C.3       8 UNK        -0.1912 
     52 C          24.1809  -34.6675  -41.5659 C.2       8 UNK         0.5038 
     53 O          23.4902  -35.5098  -42.1400 O.2       8 UNK        -0.5046 
     54 N          23.9376  -33.3495  -41.6100 N.am      9 UNK        -0.4200 
     55 CA         22.8710  -32.6770  -42.3674 C.3       9 UNK         0.0839 
     56 C          22.9956  -32.7881  -43.9194 C.2       9 UNK         0.5513 
     57 N          24.1692  -33.0917  -44.4618 N.am      9 UNK        -0.7519 
     58 O          22.0321  -32.5728  -44.6489 O.2       9 UNK        -0.4960 
     59 C59        21.4558  -33.0152  -41.8128 C.3       10 UNK        -0.0876 
     60 S60        20.3629  -31.5555  -41.7974 S.3       10 UNK        -0.2414 
     61 C61        19.0298  -32.0904  -42.9129 C.3       10 UNK         0.0169 
     62 H62        13.1006  -22.6074  -48.1391 H         1 UNK         0.0903 
     63 H63        12.9767  -24.0755  -47.1678 H         1 UNK         0.0903 
     64 H64        13.2376  -22.5178  -46.3807 H         1 UNK         0.0903 
     65 H65        14.8524  -25.3078  -47.1854 H         1 UNK         0.3096 
     66 H66        17.4019  -24.1959  -48.0340 H         1 UNK         0.1121 
     67 H67        16.7130  -26.3926  -48.8777 H         1 UNK         0.0849 
     68 H68        18.1904  -26.5241  -47.9889 H         1 UNK         0.0849 
     69 H69        18.3170  -28.9939  -46.8018 H         1 UNK         0.0865 
     70 H70        18.5328  -27.5583  -45.8328 H         1 UNK         0.0865 
     71 H71        19.0500  -30.5946  -45.1842 H         1 UNK         0.1346 
     72 H72        17.0977  -30.9370  -41.3877 H         1 UNK         0.1412 
     73 H73        16.0472  -27.7456  -44.0492 H         1 UNK         0.1426 
     74 H74        14.9477  -29.5241  -41.1051 H         1 UNK         0.0716 
     75 H75        14.8237  -28.0165  -41.9792 H         1 UNK         0.0716 
     76 H76        17.1742  -25.5944  -40.3873 H         1 UNK         0.0695 
     77 H77        16.3783  -26.1236  -41.8392 H         1 UNK         0.0695 
     78 H78        18.4871  -27.5562  -42.3449 H         1 UNK         0.0983 
     79 H79        18.1663  -24.7348  -42.7068 H         1 UNK         0.3095 
     80 H80        19.3201  -23.5386  -44.1738 H         1 UNK         0.0454 
     81 H81        21.5988  -24.9089  -45.6980 H         1 UNK         0.0851 
     82 H82        21.7811  -23.9465  -44.2385 H         1 UNK         0.0851 
     83 H83        21.2149  -23.1878  -45.7159 H         1 UNK         0.0851 
     84 H84        19.4078  -24.7358  -46.7784 H         1 UNK         0.2976 
     85 H85        19.7633  -28.6932  -41.0511 H         1 UNK         0.3116 
     86 H86        21.4885  -29.3148  -39.8237 H         1 UNK         0.0646 
     87 H87        20.8079  -26.9553  -37.9923 H         1 UNK         0.0847 
     88 H88        21.7340  -28.3830  -37.5557 H         1 UNK         0.0847 
     89 H89        20.0296  -28.5367  -37.9462 H         1 UNK         0.0847 
     90 H90        22.2035  -27.8748  -42.0645 H         1 UNK         0.3040 
     91 H91        24.1892  -25.8822  -41.6059 H         1 UNK         0.1015 
     92 H92        23.7198  -27.7348  -44.0077 H         1 UNK         0.0786 
     93 H93        24.7386  -26.3011  -44.0188 H         1 UNK         0.0786 
     94 H94        23.0107  -26.1385  -43.7687 H         1 UNK         0.0786 
     95 H95        24.3671  -29.2974  -41.1810 H         1 UNK         0.3172 
     96 H96        27.1421  -29.1991  -40.3951 H         1 UNK         0.0595 
     97 H97        27.7884  -31.1682  -41.8340 H         1 UNK         0.0839 
     98 H98        27.3869  -29.7882  -42.8393 H         1 UNK         0.0839 
     99 H99        26.2300  -31.1024  -42.6495 H         1 UNK         0.0839 
    100 H100       27.6338  -31.2209  -39.1904 H         1 UNK         0.2998 
    101 H101       25.5427  -32.0014  -37.4528 H         1 UNK         0.0822 
    102 H102       27.2452  -33.5961  -36.5468 H         1 UNK         0.0787 
    103 H103       28.2841  -33.2948  -37.9327 H         1 UNK         0.0787 
    104 H104       27.9324  -31.9993  -36.7875 H         1 UNK         0.0787 
    105 H105       26.7677  -33.5404  -40.3895 H         1 UNK         0.3055 
    106 H106       25.0823  -35.9382  -40.1048 H         1 UNK         0.1106 
    107 H107       26.0834  -36.5256  -42.3090 H         1 UNK         0.0828 
    108 H108       26.8526  -34.9484  -42.4107 H         1 UNK         0.0828 
    109 H109       27.3371  -36.0944  -41.1604 H         1 UNK         0.0828 
    110 H110       24.5111  -32.7334  -41.0483 H         1 UNK         0.2931 
    111 H111       23.0587  -31.6214  -42.1671 H         1 UNK         0.0412 
    112 H112       24.9727  -33.2707  -43.8828 H         1 UNK         0.3472 
    113 H113       24.2448  -33.1538  -45.4650 H         1 UNK         0.3472 
    114 H114       21.0018  -33.8441  -42.3590 H         1 UNK         0.0970 
    115 H115       21.5250  -33.3532  -40.7777 H         1 UNK         0.0970 
    116 H116       18.4428  -32.8737  -42.4312 H         1 UNK         0.0612 
    117 H117       19.4558  -32.5277  -43.8169 H         1 UNK         0.0612 
@<TRIPOS>BOND
     1    1    2 1    
     2    1   62 1    
     3    1   63 1    
     4    1   64 1    
     5    2    3 2    
     6    2    4 am   BACKBONE|DICT|INTERRES
     7    4    5 1    
     8    4   65 1    
     9    5    6 1    
    10    5   25 1    
    11    5   66 1    
    12    6    7 1    
    13    6   67 1    
    14    6   68 1    
    15    7    8 1    
    16    8    9 1    
    17    8   69 1    
    18    8   70 1    
    19    9   10 ar   
    20    9   14 ar   
    21   10   11 ar   
    22   10   71 1    
    23   11   12 ar   
    24   11   61 1    
    25   12   13 ar   
    26   12   72 1    
    27   13   14 ar   
    28   13   15 1    
    29   14   73 1    
    30   15   16 1    
    31   15   74 1    
    32   15   75 1    
    33   16   17 1    
    34   17   18 1    
    35   17   76 1    
    36   17   77 1    
    37   18   19 1    
    38   18   27 1    
    39   18   78 1    
    40   19   20 am   BACKBONE|DICT|INTERRES
    41   19   79 1    
    42   20   21 2    
    43   20   22 1    
    44   22   23 1    
    45   22   24 1    
    46   22   80 1    
    47   23   81 1    
    48   23   82 1    
    49   23   83 1    
    50   24   25 am   BACKBONE|DICT|INTERRES
    51   24   84 1    
    52   25   26 2    
    53   27   28 2    
    54   27   29 am   BACKBONE|DICT|INTERRES
    55   29   30 1    
    56   29   85 1    
    57   30   31 1    
    58   30   32 1    
    59   30   86 1    
    60   31   87 1    
    61   31   88 1    
    62   31   89 1    
    63   32   33 2    
    64   32   34 am   BACKBONE|DICT|INTERRES
    65   34   35 1    
    66   34   90 1    
    67   35   36 1    
    68   35   37 1    
    69   35   91 1    
    70   36   92 1    
    71   36   93 1    
    72   36   94 1    
    73   37   38 2    
    74   37   39 am   BACKBONE|DICT|INTERRES
    75   39   40 1    
    76   39   95 1    
    77   40   41 1    
    78   40   42 1    
    79   40   96 1    
    80   41   97 1    
    81   41   98 1    
    82   41   99 1    
    83   42   43 2    
    84   42   44 am   BACKBONE|DICT|INTERRES
    85   44   45 1    
    86   44  100 1    
    87   45   46 1    
    88   45   47 1    
    89   45  101 1    
    90   46  102 1    
    91   46  103 1    
    92   46  104 1    
    93   47   48 2    
    94   47   49 am   BACKBONE|DICT|INTERRES
    95   49   50 1    
    96   49  105 1    
    97   50   51 1    
    98   50   52 1    
    99   50  106 1    
   100   51  107 1    
   101   51  108 1    
   102   51  109 1    
   103   52   53 2    
   104   52   54 am   BACKBONE|DICT|INTERRES
   105   54   55 1    
   106   54  110 1    
   107   55   56 1    
   108   55   59 1    
   109   55  111 1    
   110   56   57 am   BACKBONE|DICT|INTERRES
   111   56   58 2    
   112   57  112 1    
   113   57  113 1    
   114   59   60 1    
   115   59  114 1    
   116   59  115 1    
   117   60   61 1    
   118   61  116 1    
   119   61  117 1    
@<TRIPOS>SUBSTRUCTURE
     1 UNK         1 GROUP             0       ****    0 ROOT    
