@<TRIPOS>MOLECULE
3R8
117   119    1
SMALL
USER_CHARGES


@<TRIPOS>ATOM
      1 CA         20.6426  -30.3838  -43.8003 C.3       0 UNK        -0.2013 
      2 C          20.4225  -29.1556  -42.9382 C.2       0 UNK         0.4866 
      3 O          21.3863  -28.6503  -42.3689 O.2       0 UNK        -0.5176 
      4 N          19.1701  -28.6876  -42.8215 N.am      1 UNK        -0.4884 
      5 CA         18.7712  -27.5403  -41.9903 C.3       1 UNK         0.0853 
      6 C6         17.2349  -27.3459  -41.9226 C.3       10 UNK        -0.0849 
      7 S7         16.3371  -28.8151  -41.3215 S.3       10 UNK        -0.2776 
      8 C8         15.3140  -29.2398  -42.7696 C.3       10 UNK         0.0316 
      9 C9         16.1297  -29.9649  -43.8284 C.ar      10 UNK        -0.0863 
     10 C10        16.3930  -31.3277  -43.6757 C.ar      10 UNK        -0.1009 
     11 C11        17.1728  -32.0095  -44.6114 C.ar      10 UNK        -0.0712 
     12 C12        17.6502  -31.3284  -45.7346 C.ar      10 UNK        -0.0894 
     13 C13        17.4109  -29.9582  -45.8917 C.ar      10 UNK        -0.0745 
     14 C14        16.6372  -29.2836  -44.9401 C.ar      10 UNK        -0.0972 
     15 C15        18.0223  -29.2031  -47.0662 C.3       10 UNK         0.0209 
     16 S16        19.8401  -29.3418  -47.0552 S.3       10 UNK        -0.2568 
     17 C17        20.3656  -27.9639  -48.1311 C.3       10 UNK        -0.0983 
     18 CA         21.2154  -26.8955  -47.3926 C.3       3 UNK         0.0876 
     19 N          20.5000  -26.3484  -46.2346 N.am      3 UNK        -0.4424 
     20 C          20.7113  -25.1379  -45.6981 C.2       2 UNK         0.4918 
     21 O          21.4916  -24.3128  -46.1731 O.2       2 UNK        -0.4875 
     22 CA         19.9434  -24.7846  -44.4136 C.3       2 UNK         0.0481 
     23 CB         18.8188  -23.7779  -44.7096 C.3       2 UNK        -0.1831 
     24 N          19.3772  -25.9669  -43.7567 N.am      2 UNK        -0.4498 
     25 C          19.4361  -26.2251  -42.4435 C.2       1 UNK         0.5027 
     26 O          19.9622  -25.4871  -41.6094 O.2       1 UNK        -0.4969 
     27 C          22.6252  -27.4189  -47.0214 C.2       3 UNK         0.5005 
     28 O          23.4307  -27.6701  -47.9197 O.2       3 UNK        -0.5279 
     29 N          22.9040  -27.5587  -45.7190 N.am      4 UNK        -0.4463 
     30 CA         24.1960  -27.9001  -45.1360 C.3       4 UNK         0.0283 
     31 CB         24.2180  -29.3948  -44.7710 C.3       4 UNK        -0.1875 
     32 C          24.4034  -27.0245  -43.8924 C.2       4 UNK         0.4949 
     33 O          23.4702  -26.3516  -43.4457 O.2       4 UNK        -0.5039 
     34 N          25.6280  -27.0429  -43.3586 N.am      5 UNK        -0.4663 
     35 CA         25.9946  -26.3398  -42.1299 C.3       5 UNK         0.0242 
     36 CB         27.5096  -26.0745  -42.1456 C.3       5 UNK        -0.1982 
     37 C          25.6105  -27.1522  -40.8819 C.2       5 UNK         0.5017 
     38 O          25.5795  -28.3838  -40.9349 O.2       5 UNK        -0.5012 
     39 N          25.3873  -26.4350  -39.7711 N.am      6 UNK        -0.4439 
     40 CA         25.2099  -26.9406  -38.4017 C.3       6 UNK         0.0297 
     41 CB         26.5216  -27.5800  -37.8949 C.3       6 UNK        -0.2006 
     42 C          23.9885  -27.8592  -38.1813 C.2       6 UNK         0.4892 
     43 O          23.9964  -28.6382  -37.2265 O.2       6 UNK        -0.5089 
     44 N          22.9582  -27.7313  -39.0337 N.am      7 UNK        -0.4243 
     45 CA         21.6948  -28.4830  -39.0154 C.3       7 UNK         0.0196 
     46 CB         20.8332  -28.0787  -37.8002 C.3       7 UNK        -0.2007 
     47 C          21.9212  -30.0048  -39.1131 C.2       7 UNK         0.5020 
     48 O          21.5323  -30.7510  -38.2133 O.2       7 UNK        -0.5147 
     49 N          22.5787  -30.4346  -40.1985 N.am      8 UNK        -0.4734 
     50 CA         23.0792  -31.8009  -40.4044 C.3       8 UNK         0.0238 
     51 CB         23.9146  -31.8454  -41.6943 C.3       8 UNK        -0.1912 
     52 C          22.0081  -32.9101  -40.4087 C.2       8 UNK         0.5038 
     53 O          22.3357  -34.0517  -40.0821 O.2       8 UNK        -0.5046 
     54 N          20.7629  -32.5620  -40.7567 N.am      9 UNK        -0.4200 
     55 CA         19.5887  -33.4466  -40.6642 C.3       9 UNK         0.0839 
     56 C          18.9439  -33.4890  -39.2462 C.2       9 UNK         0.5513 
     57 N          19.4051  -32.7242  -38.2636 N.am      9 UNK        -0.7519 
     58 O          18.0053  -34.2502  -39.0264 O.2       9 UNK        -0.4960 
     59 C59        18.5370  -33.1184  -41.7577 C.3       10 UNK        -0.0876 
     60 S60        19.0888  -33.6142  -43.4259 S.3       10 UNK        -0.2414 
     61 C61        17.5419  -33.4669  -44.3814 C.3       10 UNK         0.0169 
     62 H62        19.7086  -30.7644  -44.1993 H         1 UNK         0.0903 
     63 H63        21.2979  -30.1475  -44.6366 H         1 UNK         0.0903 
     64 H64        21.1050  -31.1799  -43.2215 H         1 UNK         0.0903 
     65 H65        18.4118  -29.1749  -43.2822 H         1 UNK         0.3096 
     66 H66        19.1216  -27.7421  -40.9767 H         1 UNK         0.1121 
     67 H67        16.9928  -26.5253  -41.2438 H         1 UNK         0.0849 
     68 H68        16.8384  -27.0481  -42.8944 H         1 UNK         0.0849 
     69 H69        14.4941  -29.8814  -42.4428 H         1 UNK         0.0865 
     70 H70        14.8461  -28.3431  -43.1790 H         1 UNK         0.0865 
     71 H71        16.0171  -31.8505  -42.8067 H         1 UNK         0.1346 
     72 H72        18.2622  -31.8508  -46.4575 H         1 UNK         0.1412 
     73 H73        16.4397  -28.2267  -45.0573 H         1 UNK         0.1426 
     74 H74        17.7379  -28.1503  -47.0332 H         1 UNK         0.0716 
     75 H75        17.6335  -29.6048  -48.0028 H         1 UNK         0.0716 
     76 H76        19.4846  -27.4902  -48.5665 H         1 UNK         0.0695 
     77 H77        20.9185  -28.3780  -48.9764 H         1 UNK         0.0695 
     78 H78        21.3814  -26.0785  -48.0986 H         1 UNK         0.0983 
     79 H79        19.8552  -26.9859  -45.7982 H         1 UNK         0.3095 
     80 H80        20.6671  -24.3066  -43.7500 H         1 UNK         0.0454 
     81 H81        19.2120  -22.8813  -45.1908 H         1 UNK         0.0851 
     82 H82        18.3219  -23.4596  -43.7931 H         1 UNK         0.0851 
     83 H83        18.0624  -24.1996  -45.3723 H         1 UNK         0.0851 
     84 H84        18.8826  -26.6252  -44.3379 H         1 UNK         0.2976 
     85 H85        22.2250  -27.2426  -45.0382 H         1 UNK         0.3116 
     86 H86        24.9958  -27.6817  -45.8468 H         1 UNK         0.0646 
     87 H87        23.5274  -29.6152  -43.9574 H         1 UNK         0.0847 
     88 H88        23.9483  -30.0192  -45.6228 H         1 UNK         0.0847 
     89 H89        25.2103  -29.7054  -44.4426 H         1 UNK         0.0847 
     90 H90        26.3269  -27.6557  -43.7534 H         1 UNK         0.3040 
     91 H91        25.4738  -25.3796  -42.1009 H         1 UNK         0.1015 
     92 H92        27.8210  -25.5215  -41.2582 H         1 UNK         0.0786 
     93 H93        27.7997  -25.4808  -43.0128 H         1 UNK         0.0786 
     94 H94        28.0823  -27.0028  -42.1671 H         1 UNK         0.0786 
     95 H95        25.4182  -25.4271  -39.8501 H         1 UNK         0.3172 
     96 H96        25.0228  -26.0596  -37.7860 H         1 UNK         0.0595 
     97 H97        26.7447  -28.5102  -38.4187 H         1 UNK         0.0839 
     98 H98        26.4624  -27.8132  -36.8310 H         1 UNK         0.0839 
     99 H99        27.3697  -26.9083  -38.0277 H         1 UNK         0.0839 
    100 H100       23.0677  -27.0812  -39.7997 H         1 UNK         0.2998 
    101 H101       21.1464  -28.1850  -39.9062 H         1 UNK         0.0822 
    102 H102       19.8622  -28.5748  -37.8303 H         1 UNK         0.0787 
    103 H103       20.6480  -27.0047  -37.7860 H         1 UNK         0.0787 
    104 H104       21.3067  -28.3503  -36.8561 H         1 UNK         0.0787 
    105 H105       22.8190  -29.7491  -40.9049 H         1 UNK         0.3055 
    106 H106       23.7453  -32.0188  -39.5666 H         1 UNK         0.1106 
    107 H107       24.7305  -31.1224  -41.6647 H         1 UNK         0.0828 
    108 H108       24.3620  -32.8303  -41.8351 H         1 UNK         0.0828 
    109 H109       23.3118  -31.6351  -42.5767 H         1 UNK         0.0828 
    110 H110       20.5827  -31.5943  -40.9727 H         1 UNK         0.2931 
    111 H111       19.9234  -34.4701  -40.8444 H         1 UNK         0.0412 
    112 H112       18.9683  -32.7825  -37.3576 H         1 UNK         0.3472 
    113 H113       20.1920  -32.0952  -38.3959 H         1 UNK         0.3472 
    114 H114       17.5970  -33.6382  -41.5623 H         1 UNK         0.0970 
    115 H115       18.3043  -32.0525  -41.7513 H         1 UNK         0.0970 
    116 H116       17.6718  -33.9717  -45.3398 H         1 UNK         0.0612 
    117 H117       16.7355  -33.9914  -43.8665 H         1 UNK         0.0612 
@<TRIPOS>BOND
     1    1    2 1    
     2    1   62 1    
     3    1   63 1    
     4    1   64 1    
     5    2    3 2    
     6    2    4 am   BACKBONE|DICT|INTERRES
     7    4    5 1    
     8    4   65 1    
     9    5    6 1    
    10    5   25 1    
    11    5   66 1    
    12    6    7 1    
    13    6   67 1    
    14    6   68 1    
    15    7    8 1    
    16    8    9 1    
    17    8   69 1    
    18    8   70 1    
    19    9   10 ar   
    20    9   14 ar   
    21   10   11 ar   
    22   10   71 1    
    23   11   12 ar   
    24   11   61 1    
    25   12   13 ar   
    26   12   72 1    
    27   13   14 ar   
    28   13   15 1    
    29   14   73 1    
    30   15   16 1    
    31   15   74 1    
    32   15   75 1    
    33   16   17 1    
    34   17   18 1    
    35   17   76 1    
    36   17   77 1    
    37   18   19 1    
    38   18   27 1    
    39   18   78 1    
    40   19   20 am   BACKBONE|DICT|INTERRES
    41   19   79 1    
    42   20   21 2    
    43   20   22 1    
    44   22   23 1    
    45   22   24 1    
    46   22   80 1    
    47   23   81 1    
    48   23   82 1    
    49   23   83 1    
    50   24   25 am   BACKBONE|DICT|INTERRES
    51   24   84 1    
    52   25   26 2    
    53   27   28 2    
    54   27   29 am   BACKBONE|DICT|INTERRES
    55   29   30 1    
    56   29   85 1    
    57   30   31 1    
    58   30   32 1    
    59   30   86 1    
    60   31   87 1    
    61   31   88 1    
    62   31   89 1    
    63   32   33 2    
    64   32   34 am   BACKBONE|DICT|INTERRES
    65   34   35 1    
    66   34   90 1    
    67   35   36 1    
    68   35   37 1    
    69   35   91 1    
    70   36   92 1    
    71   36   93 1    
    72   36   94 1    
    73   37   38 2    
    74   37   39 am   BACKBONE|DICT|INTERRES
    75   39   40 1    
    76   39   95 1    
    77   40   41 1    
    78   40   42 1    
    79   40   96 1    
    80   41   97 1    
    81   41   98 1    
    82   41   99 1    
    83   42   43 2    
    84   42   44 am   BACKBONE|DICT|INTERRES
    85   44   45 1    
    86   44  100 1    
    87   45   46 1    
    88   45   47 1    
    89   45  101 1    
    90   46  102 1    
    91   46  103 1    
    92   46  104 1    
    93   47   48 2    
    94   47   49 am   BACKBONE|DICT|INTERRES
    95   49   50 1    
    96   49  105 1    
    97   50   51 1    
    98   50   52 1    
    99   50  106 1    
   100   51  107 1    
   101   51  108 1    
   102   51  109 1    
   103   52   53 2    
   104   52   54 am   BACKBONE|DICT|INTERRES
   105   54   55 1    
   106   54  110 1    
   107   55   56 1    
   108   55   59 1    
   109   55  111 1    
   110   56   57 am   BACKBONE|DICT|INTERRES
   111   56   58 2    
   112   57  112 1    
   113   57  113 1    
   114   59   60 1    
   115   59  114 1    
   116   59  115 1    
   117   60   61 1    
   118   61  116 1    
   119   61  117 1    
@<TRIPOS>SUBSTRUCTURE
     1 UNK         1 GROUP             0       ****    0 ROOT    
