@<TRIPOS>MOLECULE
3R8
117   119    1
SMALL
USER_CHARGES


@<TRIPOS>ATOM
      1 CA         15.9265  -26.5712  -39.6549 C.3       0 UNK        -0.2013 
      2 C          16.0725  -26.2291  -41.1300 C.2       0 UNK         0.4866 
      3 O          15.7799  -25.1008  -41.5286 O.2       0 UNK        -0.5176 
      4 N          16.5129  -27.1964  -41.9436 N.am      1 UNK        -0.4884 
      5 CA         16.7996  -27.0181  -43.3709 C.3       1 UNK         0.0853 
      6 C6         16.7813  -28.3775  -44.1143 C.3       10 UNK        -0.0849 
      7 S7         16.3683  -28.1837  -45.8823 S.3       10 UNK        -0.2776 
      8 C8         16.1821  -29.9176  -46.4078 C.3       10 UNK         0.0316 
      9 C9         17.4780  -30.6970  -46.2432 C.ar      10 UNK        -0.0863 
     10 C10        17.5835  -31.6933  -45.2684 C.ar      10 UNK        -0.1009 
     11 C11        18.7832  -32.3891  -45.0934 C.ar      10 UNK        -0.0712 
     12 C12        19.8811  -32.0835  -45.9027 C.ar      10 UNK        -0.0894 
     13 C13        19.7893  -31.0820  -46.8740 C.ar      10 UNK        -0.0745 
     14 C14        18.5798  -30.4049  -47.0521 C.ar      10 UNK        -0.0972 
     15 C15        21.0085  -30.7036  -47.7029 C.3       10 UNK         0.0209 
     16 S16        21.6028  -29.0222  -47.3205 S.3       10 UNK        -0.2568 
     17 C17        21.9768  -29.1536  -45.5381 C.3       10 UNK        -0.0983 
     18 CA         22.1050  -27.7741  -44.8470 C.3       3 UNK         0.0876 
     19 N          20.9105  -26.9482  -45.0438 N.am      3 UNK        -0.4424 
     20 C          20.8822  -25.6124  -44.9633 C.2       2 UNK         0.4918 
     21 O          21.8705  -24.9222  -44.7128 O.2       2 UNK        -0.4875 
     22 CA         19.5169  -24.9278  -45.1743 C.3       2 UNK         0.0481 
     23 CB         19.3653  -24.4916  -46.6400 C.3       2 UNK        -0.1831 
     24 N          18.3487  -25.7324  -44.7880 N.am      2 UNK        -0.4498 
     25 C          18.1333  -26.2638  -43.5761 C.2       1 UNK         0.5027 
     26 O          18.9562  -26.2002  -42.6608 O.2       1 UNK        -0.4969 
     27 C          22.4707  -27.9668  -43.3588 C.2       3 UNK         0.5005 
     28 O          23.5470  -28.5038  -43.0890 O.2       3 UNK        -0.5279 
     29 N          21.6035  -27.5601  -42.4127 N.am      4 UNK        -0.4463 
     30 CA         21.7394  -27.8098  -40.9684 C.3       4 UNK         0.0283 
     31 CB         20.5250  -27.2475  -40.2153 C.3       4 UNK        -0.1875 
     32 C          23.0385  -27.3050  -40.3185 C.2       4 UNK         0.4949 
     33 O          23.4348  -27.8459  -39.2874 O.2       4 UNK        -0.5039 
     34 N          23.7017  -26.3249  -40.9450 N.am      5 UNK        -0.4663 
     35 CA         25.0279  -25.8349  -40.5610 C.3       5 UNK         0.0242 
     36 CB         25.3593  -24.5889  -41.3983 C.3       5 UNK        -0.1982 
     37 C          26.1498  -26.8858  -40.6940 C.2       5 UNK         0.5017 
     38 O          27.1749  -26.7389  -40.0270 O.2       5 UNK        -0.5012 
     39 N          25.9480  -27.9076  -41.5395 N.am      6 UNK        -0.4439 
     40 CA         26.8956  -28.9991  -41.7747 C.3       6 UNK         0.0297 
     41 CB         27.4417  -28.8971  -43.2089 C.3       6 UNK        -0.2006 
     42 C          26.2607  -30.3780  -41.5397 C.2       6 UNK         0.4892 
     43 O          26.9034  -31.2381  -40.9368 O.2       6 UNK        -0.5089 
     44 N          25.0296  -30.5787  -42.0286 N.am      7 UNK        -0.4243 
     45 CA         24.3334  -31.8684  -42.0221 C.3       7 UNK         0.0196 
     46 CB         23.4030  -31.9259  -43.2456 C.3       7 UNK        -0.2007 
     47 C          23.5406  -32.1426  -40.7322 C.2       7 UNK         0.5020 
     48 O          23.1124  -33.2789  -40.5334 O.2       7 UNK        -0.5147 
     49 N          23.3343  -31.1116  -39.8973 N.am      8 UNK        -0.4734 
     50 CA         22.5592  -31.1173  -38.6437 C.3       8 UNK         0.0238 
     51 CB         23.1788  -32.0789  -37.6068 C.3       8 UNK        -0.1912 
     52 C          21.0420  -31.3460  -38.8250 C.2       8 UNK         0.5038 
     53 O          20.3527  -31.6314  -37.8443 O.2       8 UNK        -0.5046 
     54 N          20.5406  -31.1805  -40.0558 N.am      9 UNK        -0.4200 
     55 CA         19.1330  -31.2953  -40.4797 C.3       9 UNK         0.0839 
     56 C          18.2028  -30.1604  -39.9480 C.2       9 UNK         0.5513 
     57 N          18.3220  -29.7601  -38.6906 N.am      9 UNK        -0.7519 
     58 O          17.3724  -29.6250  -40.6792 O.2       9 UNK        -0.4960 
     59 C59        19.0322  -31.4625  -42.0204 C.3       10 UNK        -0.0876 
     60 S60        19.9523  -32.9127  -42.6361 S.3       10 UNK        -0.2414 
     61 C61        18.9012  -33.4589  -44.0178 C.3       10 UNK         0.0169 
     62 H62        14.9869  -26.1790  -39.2669 H         1 UNK         0.0903 
     63 H63        15.9341  -27.6477  -39.4873 H         1 UNK         0.0903 
     64 H64        16.7435  -26.1289  -39.0857 H         1 UNK         0.0903 
     65 H65        16.7856  -28.0924  -41.5425 H         1 UNK         0.3096 
     66 H66        16.0042  -26.3894  -43.7786 H         1 UNK         0.1121 
     67 H67        16.0233  -29.0312  -43.6789 H         1 UNK         0.0849 
     68 H68        17.7300  -28.9076  -44.0050 H         1 UNK         0.0849 
     69 H69        15.3708  -30.3808  -45.8439 H         1 UNK         0.0865 
     70 H70        15.8785  -29.9413  -47.4553 H         1 UNK         0.0865 
     71 H71        16.7354  -31.9189  -44.6364 H         1 UNK         0.1346 
     72 H72        20.8148  -32.6083  -45.7527 H         1 UNK         0.1412 
     73 H73        18.5076  -29.6230  -47.7962 H         1 UNK         0.1426 
     74 H74        21.8232  -31.4120  -47.5446 H         1 UNK         0.0716 
     75 H75        20.7540  -30.7581  -48.7622 H         1 UNK         0.0716 
     76 H76        21.2007  -29.7394  -45.0439 H         1 UNK         0.0695 
     77 H77        22.9025  -29.7237  -45.4388 H         1 UNK         0.0695 
     78 H78        22.9513  -27.2557  -45.3034 H         1 UNK         0.0983 
     79 H79        20.0600  -27.4377  -45.2801 H         1 UNK         0.3095 
     80 H80        19.5079  -24.0315  -44.5509 H         1 UNK         0.0454 
     81 H81        19.3279  -25.3484  -47.3142 H         1 UNK         0.0851 
     82 H82        18.4588  -23.9051  -46.7899 H         1 UNK         0.0851 
     83 H83        20.2052  -23.8689  -46.9518 H         1 UNK         0.0851 
     84 H84        17.6442  -25.8732  -45.4995 H         1 UNK         0.2976 
     85 H85        20.7488  -27.0912  -42.6999 H         1 UNK         0.3116 
     86 H86        21.7355  -28.8914  -40.8469 H         1 UNK         0.0646 
     87 H87        20.4564  -26.1636  -40.3150 H         1 UNK         0.0847 
     88 H88        19.5938  -27.6751  -40.5837 H         1 UNK         0.0847 
     89 H89        20.5811  -27.4759  -39.1500 H         1 UNK         0.0847 
     90 H90        23.2975  -25.9416  -41.7877 H         1 UNK         0.3040 
     91 H91        24.9842  -25.5431  -39.5092 H         1 UNK         0.1015 
     92 H92        25.3960  -24.8173  -42.4643 H         1 UNK         0.0786 
     93 H93        26.3306  -24.1775  -41.1194 H         1 UNK         0.0786 
     94 H94        24.6212  -23.8008  -41.2478 H         1 UNK         0.0786 
     95 H95        25.0661  -27.9510  -42.0433 H         1 UNK         0.3172 
     96 H96        27.7418  -28.9215  -41.0888 H         1 UNK         0.0595 
     97 H97        28.1428  -29.7059  -43.4196 H         1 UNK         0.0839 
     98 H98        27.9751  -27.9588  -43.3618 H         1 UNK         0.0839 
     99 H99        26.6442  -28.9529  -43.9512 H         1 UNK         0.0839 
    100 H100       24.5511  -29.8163  -42.5070 H         1 UNK         0.2998 
    101 H101       25.0698  -32.6687  -42.1244 H         1 UNK         0.0822 
    102 H102       22.9320  -32.9060  -43.3308 H         1 UNK         0.0787 
    103 H103       22.6050  -31.1854  -43.1833 H         1 UNK         0.0787 
    104 H104       23.9514  -31.7523  -44.1715 H         1 UNK         0.0787 
    105 H105       23.7538  -30.2241  -40.1411 H         1 UNK         0.3055 
    106 H106       22.6474  -30.1109  -38.2327 H         1 UNK         0.1106 
    107 H107       24.2455  -31.8937  -37.4813 H         1 UNK         0.0828 
    108 H108       22.7136  -31.9524  -36.6284 H         1 UNK         0.0828 
    109 H109       23.0496  -33.1234  -37.8911 H         1 UNK         0.0828 
    110 H110       21.1960  -30.9838  -40.7950 H         1 UNK         0.2931 
    111 H111       18.7408  -32.2126  -40.0371 H         1 UNK         0.0412 
    112 H112       17.7269  -29.0324  -38.3309 H         1 UNK         0.3472 
    113 H113       18.9775  -30.2396  -38.0841 H         1 UNK         0.3472 
    114 H114       17.9867  -31.5713  -42.3142 H         1 UNK         0.0970 
    115 H115       19.4003  -30.5714  -42.5324 H         1 UNK         0.0970 
    116 H116       19.3313  -34.3621  -44.4526 H         1 UNK         0.0612 
    117 H117       17.9190  -33.7395  -43.6343 H         1 UNK         0.0612 
@<TRIPOS>BOND
     1    1    2 1    
     2    1   62 1    
     3    1   63 1    
     4    1   64 1    
     5    2    3 2    
     6    2    4 am   BACKBONE|DICT|INTERRES
     7    4    5 1    
     8    4   65 1    
     9    5    6 1    
    10    5   25 1    
    11    5   66 1    
    12    6    7 1    
    13    6   67 1    
    14    6   68 1    
    15    7    8 1    
    16    8    9 1    
    17    8   69 1    
    18    8   70 1    
    19    9   10 ar   
    20    9   14 ar   
    21   10   11 ar   
    22   10   71 1    
    23   11   12 ar   
    24   11   61 1    
    25   12   13 ar   
    26   12   72 1    
    27   13   14 ar   
    28   13   15 1    
    29   14   73 1    
    30   15   16 1    
    31   15   74 1    
    32   15   75 1    
    33   16   17 1    
    34   17   18 1    
    35   17   76 1    
    36   17   77 1    
    37   18   19 1    
    38   18   27 1    
    39   18   78 1    
    40   19   20 am   BACKBONE|DICT|INTERRES
    41   19   79 1    
    42   20   21 2    
    43   20   22 1    
    44   22   23 1    
    45   22   24 1    
    46   22   80 1    
    47   23   81 1    
    48   23   82 1    
    49   23   83 1    
    50   24   25 am   BACKBONE|DICT|INTERRES
    51   24   84 1    
    52   25   26 2    
    53   27   28 2    
    54   27   29 am   BACKBONE|DICT|INTERRES
    55   29   30 1    
    56   29   85 1    
    57   30   31 1    
    58   30   32 1    
    59   30   86 1    
    60   31   87 1    
    61   31   88 1    
    62   31   89 1    
    63   32   33 2    
    64   32   34 am   BACKBONE|DICT|INTERRES
    65   34   35 1    
    66   34   90 1    
    67   35   36 1    
    68   35   37 1    
    69   35   91 1    
    70   36   92 1    
    71   36   93 1    
    72   36   94 1    
    73   37   38 2    
    74   37   39 am   BACKBONE|DICT|INTERRES
    75   39   40 1    
    76   39   95 1    
    77   40   41 1    
    78   40   42 1    
    79   40   96 1    
    80   41   97 1    
    81   41   98 1    
    82   41   99 1    
    83   42   43 2    
    84   42   44 am   BACKBONE|DICT|INTERRES
    85   44   45 1    
    86   44  100 1    
    87   45   46 1    
    88   45   47 1    
    89   45  101 1    
    90   46  102 1    
    91   46  103 1    
    92   46  104 1    
    93   47   48 2    
    94   47   49 am   BACKBONE|DICT|INTERRES
    95   49   50 1    
    96   49  105 1    
    97   50   51 1    
    98   50   52 1    
    99   50  106 1    
   100   51  107 1    
   101   51  108 1    
   102   51  109 1    
   103   52   53 2    
   104   52   54 am   BACKBONE|DICT|INTERRES
   105   54   55 1    
   106   54  110 1    
   107   55   56 1    
   108   55   59 1    
   109   55  111 1    
   110   56   57 am   BACKBONE|DICT|INTERRES
   111   56   58 2    
   112   57  112 1    
   113   57  113 1    
   114   59   60 1    
   115   59  114 1    
   116   59  115 1    
   117   60   61 1    
   118   61  116 1    
   119   61  117 1    
@<TRIPOS>SUBSTRUCTURE
     1 UNK         1 GROUP             0       ****    0 ROOT    
