@<TRIPOS>MOLECULE
3R8
117   119    1
SMALL
USER_CHARGES


@<TRIPOS>ATOM
      1 CA         20.1625  -24.9960  -39.0458 C.3       0 UNK        -0.2013 
      2 C          19.2750  -24.8933  -40.2774 C.2       0 UNK         0.4866 
      3 O          18.5948  -23.8838  -40.4638 O.2       0 UNK        -0.5176 
      4 N          19.2735  -25.9357  -41.1136 N.am      1 UNK        -0.4884 
      5 CA         18.5498  -26.0128  -42.3829 C.3       1 UNK         0.0853 
      6 C6         18.3249  -27.4967  -42.7702 C.3       10 UNK        -0.0849 
      7 S7         16.8526  -27.7634  -43.8111 S.3       10 UNK        -0.2776 
      8 C8         16.6931  -29.5782  -43.7084 C.3       10 UNK         0.0316 
      9 C9         17.9389  -30.2842  -44.2260 C.ar      10 UNK        -0.0863 
     10 C10        18.7737  -30.9901  -43.3514 C.ar      10 UNK        -0.1009 
     11 C11        19.9379  -31.6025  -43.8260 C.ar      10 UNK        -0.0712 
     12 C12        20.2667  -31.5007  -45.1803 C.ar      10 UNK        -0.0894 
     13 C13        19.4438  -30.7929  -46.0604 C.ar      10 UNK        -0.0745 
     14 C14        18.2715  -30.2031  -45.5813 C.ar      10 UNK        -0.0972 
     15 C15        19.8454  -30.6301  -47.5193 C.3       10 UNK         0.0209 
     16 S16        20.2550  -28.9012  -47.9310 S.3       10 UNK        -0.2568 
     17 C17        21.5864  -28.5273  -46.7370 C.3       10 UNK        -0.0983 
     18 CA         21.8605  -27.0071  -46.6190 C.3       3 UNK         0.0876 
     19 N          20.6645  -26.2712  -46.2062 N.am      3 UNK        -0.4424 
     20 C          20.4371  -24.9699  -46.4218 C.2       2 UNK         0.4918 
     21 O          21.2115  -24.2371  -47.0394 O.2       2 UNK        -0.4875 
     22 CA         19.1430  -24.3753  -45.8331 C.3       2 UNK         0.0481 
     23 CB         18.0438  -24.3320  -46.9059 C.3       2 UNK        -0.1831 
     24 N          18.6331  -25.0783  -44.6491 N.am      2 UNK        -0.4498 
     25 C          19.2924  -25.2330  -43.4923 C.2       1 UNK         0.5027 
     26 O          20.4391  -24.8144  -43.3086 O.2       1 UNK        -0.4969 
     27 C          23.0331  -26.6984  -45.6622 C.2       3 UNK         0.5005 
     28 O          23.4124  -27.5474  -44.8539 O.2       3 UNK        -0.5279 
     29 N          23.5705  -25.4731  -45.7582 N.am      4 UNK        -0.4463 
     30 CA         24.7723  -24.9695  -45.0775 C.3       4 UNK         0.0283 
     31 CB         26.0317  -25.6333  -45.6747 C.3       4 UNK        -0.1875 
     32 C          24.7288  -25.0703  -43.5375 C.2       4 UNK         0.4949 
     33 O          25.7575  -25.3369  -42.9142 O.2       4 UNK        -0.5039 
     34 N          23.5403  -24.8539  -42.9543 N.am      5 UNK        -0.4663 
     35 CA         23.2396  -24.8977  -41.5170 C.3       5 UNK         0.0242 
     36 CB         24.0289  -23.8203  -40.7413 C.3       5 UNK        -0.1982 
     37 C          23.3555  -26.2983  -40.8814 C.2       5 UNK         0.5017 
     38 O          23.4580  -26.3927  -39.6567 O.2       5 UNK        -0.5012 
     39 N          23.2971  -27.3630  -41.6962 N.am      6 UNK        -0.4439 
     40 CA         23.1488  -28.7458  -41.2309 C.3       6 UNK         0.0297 
     41 CB         23.4280  -29.7028  -42.4003 C.3       6 UNK        -0.2006 
     42 C          21.7375  -28.9873  -40.6661 C.2       6 UNK         0.4892 
     43 O          20.8130  -28.2457  -41.0006 O.2       6 UNK        -0.5089 
     44 N          21.5812  -30.0256  -39.8390 N.am      7 UNK        -0.4243 
     45 CA         20.2893  -30.4100  -39.2659 C.3       7 UNK         0.0196 
     46 CB         19.9194  -29.5047  -38.0744 C.3       7 UNK        -0.2007 
     47 C          20.2874  -31.8874  -38.8710 C.2       7 UNK         0.5020 
     48 O          19.4238  -32.6373  -39.3240 O.2       7 UNK        -0.5147 
     49 N          21.2723  -32.2976  -38.0614 N.am      8 UNK        -0.4734 
     50 CA         21.4071  -33.6537  -37.5136 C.3       8 UNK         0.0238 
     51 CB         22.2174  -33.5770  -36.2049 C.3       8 UNK        -0.1912 
     52 C          21.9948  -34.6750  -38.5129 C.2       8 UNK         0.5038 
     53 O          22.8368  -35.4884  -38.1271 O.2       8 UNK        -0.5046 
     54 N          21.5516  -34.6188  -39.7746 N.am      9 UNK        -0.4200 
     55 CA         21.9368  -35.5512  -40.8454 C.3       9 UNK         0.0839 
     56 C          21.1091  -36.8694  -40.8840 C.2       9 UNK         0.5513 
     57 N          20.0678  -37.0282  -40.0751 N.am      9 UNK        -0.7519 
     58 O          21.4316  -37.7744  -41.6496 O.2       9 UNK        -0.4960 
     59 C59        22.0109  -34.8482  -42.2259 C.3       10 UNK        -0.0876 
     60 S60        20.4352  -34.1174  -42.7994 S.3       10 UNK        -0.2414 
     61 C61        20.8638  -32.3526  -42.8828 C.3       10 UNK         0.0169 
     62 H62        20.9175  -24.2105  -39.0592 H         1 UNK         0.0903 
     63 H63        20.6748  -25.9572  -38.9941 H         1 UNK         0.0903 
     64 H64        19.5658  -24.8818  -38.1413 H         1 UNK         0.0903 
     65 H65        19.8832  -26.7349  -40.9349 H         1 UNK         0.3096 
     66 H66        17.5789  -25.5339  -42.2363 H         1 UNK         0.1121 
     67 H67        18.1780  -28.0948  -41.8687 H         1 UNK         0.0849 
     68 H68        19.2060  -27.9196  -43.2586 H         1 UNK         0.0849 
     69 H69        16.4831  -29.8638  -42.6764 H         1 UNK         0.0865 
     70 H70        15.8293  -29.8943  -44.2951 H         1 UNK         0.0865 
     71 H71        18.5265  -31.0558  -42.3006 H         1 UNK         0.1346 
     72 H72        21.1760  -31.9590  -45.5448 H         1 UNK         0.1412 
     73 H73        17.6385  -29.6440  -46.2572 H         1 UNK         0.1426 
     74 H74        20.7005  -31.2632  -47.7614 H         1 UNK         0.0716 
     75 H75        19.0257  -30.9626  -48.1576 H         1 UNK         0.0716 
     76 H76        22.4857  -29.0578  -47.0553 H         1 UNK         0.0695 
     77 H77        21.3211  -28.9287  -45.7581 H         1 UNK         0.0695 
     78 H78        22.1572  -26.6556  -47.6101 H         1 UNK         0.0983 
     79 H79        19.9777  -26.7986  -45.6890 H         1 UNK         0.3095 
     80 H80        19.3662  -23.3499  -45.5318 H         1 UNK         0.0454 
     81 H81        17.1511  -23.8236  -46.5414 H         1 UNK         0.0851 
     82 H82        17.7540  -25.3331  -47.2278 H         1 UNK         0.0851 
     83 H83        18.3824  -23.7910  -47.7908 H         1 UNK         0.0851 
     84 H84        17.7121  -25.4890  -44.7287 H         1 UNK         0.2976 
     85 H85        23.1113  -24.8209  -46.3867 H         1 UNK         0.3116 
     86 H86        24.8244  -23.9037  -45.3044 H         1 UNK         0.0646 
     87 H87        26.0649  -25.5218  -46.7583 H         1 UNK         0.0847 
     88 H88        26.9414  -25.1808  -45.2780 H         1 UNK         0.0847 
     89 H89        26.0715  -26.6988  -45.4452 H         1 UNK         0.0847 
     90 H90        22.7374  -24.6840  -43.5492 H         1 UNK         0.3040 
     91 H91        22.1856  -24.6352  -41.4294 H         1 UNK         0.1015 
     92 H92        25.0934  -24.0507  -40.6932 H         1 UNK         0.0786 
     93 H93        23.6710  -23.7370  -39.7144 H         1 UNK         0.0786 
     94 H94        23.9167  -22.8383  -41.2006 H         1 UNK         0.0786 
     95 H95        23.2187  -27.2101  -42.6956 H         1 UNK         0.3172 
     96 H96        23.8818  -28.9272  -40.4421 H         1 UNK         0.0595 
     97 H97        24.3952  -29.4981  -42.8600 H         1 UNK         0.0839 
     98 H98        22.6666  -29.6215  -43.1781 H         1 UNK         0.0839 
     99 H99        23.4449  -30.7393  -42.0632 H         1 UNK         0.0839 
    100 H100       22.3694  -30.6255  -39.6391 H         1 UNK         0.2998 
    101 H101       19.5195  -30.2920  -40.0326 H         1 UNK         0.0822 
    102 H102       18.9857  -29.8283  -37.6125 H         1 UNK         0.0787 
    103 H103       20.6889  -29.5143  -37.3020 H         1 UNK         0.0787 
    104 H104       19.7788  -28.4710  -38.3906 H         1 UNK         0.0787 
    105 H105       21.9428  -31.6185  -37.7312 H         1 UNK         0.3055 
    106 H106       20.4103  -34.0199  -37.2570 H         1 UNK         0.1106 
    107 H107       21.7605  -32.8886  -35.4936 H         1 UNK         0.0828 
    108 H108       22.2690  -34.5508  -35.7158 H         1 UNK         0.0828 
    109 H109       23.2415  -33.2469  -36.3832 H         1 UNK         0.0828 
    110 H110       20.8150  -33.9572  -39.9940 H         1 UNK         0.2931 
    111 H111       22.9564  -35.8797  -40.6344 H         1 UNK         0.0412 
    112 H112       19.7888  -36.2902  -39.4490 H         1 UNK         0.3472 
    113 H113       19.5453  -37.8898  -40.1056 H         1 UNK         0.3472 
    114 H114       22.7811  -34.0773  -42.1859 H         1 UNK         0.0970 
    115 H115       22.3546  -35.5493  -42.9888 H         1 UNK         0.0970 
    116 H116       20.8229  -31.9220  -41.8828 H         1 UNK         0.0612 
    117 H117       21.8914  -32.2391  -43.2295 H         1 UNK         0.0612 
@<TRIPOS>BOND
     1    1    2 1    
     2    1   62 1    
     3    1   63 1    
     4    1   64 1    
     5    2    3 2    
     6    2    4 am   BACKBONE|DICT|INTERRES
     7    4    5 1    
     8    4   65 1    
     9    5    6 1    
    10    5   25 1    
    11    5   66 1    
    12    6    7 1    
    13    6   67 1    
    14    6   68 1    
    15    7    8 1    
    16    8    9 1    
    17    8   69 1    
    18    8   70 1    
    19    9   10 ar   
    20    9   14 ar   
    21   10   11 ar   
    22   10   71 1    
    23   11   12 ar   
    24   11   61 1    
    25   12   13 ar   
    26   12   72 1    
    27   13   14 ar   
    28   13   15 1    
    29   14   73 1    
    30   15   16 1    
    31   15   74 1    
    32   15   75 1    
    33   16   17 1    
    34   17   18 1    
    35   17   76 1    
    36   17   77 1    
    37   18   19 1    
    38   18   27 1    
    39   18   78 1    
    40   19   20 am   BACKBONE|DICT|INTERRES
    41   19   79 1    
    42   20   21 2    
    43   20   22 1    
    44   22   23 1    
    45   22   24 1    
    46   22   80 1    
    47   23   81 1    
    48   23   82 1    
    49   23   83 1    
    50   24   25 am   BACKBONE|DICT|INTERRES
    51   24   84 1    
    52   25   26 2    
    53   27   28 2    
    54   27   29 am   BACKBONE|DICT|INTERRES
    55   29   30 1    
    56   29   85 1    
    57   30   31 1    
    58   30   32 1    
    59   30   86 1    
    60   31   87 1    
    61   31   88 1    
    62   31   89 1    
    63   32   33 2    
    64   32   34 am   BACKBONE|DICT|INTERRES
    65   34   35 1    
    66   34   90 1    
    67   35   36 1    
    68   35   37 1    
    69   35   91 1    
    70   36   92 1    
    71   36   93 1    
    72   36   94 1    
    73   37   38 2    
    74   37   39 am   BACKBONE|DICT|INTERRES
    75   39   40 1    
    76   39   95 1    
    77   40   41 1    
    78   40   42 1    
    79   40   96 1    
    80   41   97 1    
    81   41   98 1    
    82   41   99 1    
    83   42   43 2    
    84   42   44 am   BACKBONE|DICT|INTERRES
    85   44   45 1    
    86   44  100 1    
    87   45   46 1    
    88   45   47 1    
    89   45  101 1    
    90   46  102 1    
    91   46  103 1    
    92   46  104 1    
    93   47   48 2    
    94   47   49 am   BACKBONE|DICT|INTERRES
    95   49   50 1    
    96   49  105 1    
    97   50   51 1    
    98   50   52 1    
    99   50  106 1    
   100   51  107 1    
   101   51  108 1    
   102   51  109 1    
   103   52   53 2    
   104   52   54 am   BACKBONE|DICT|INTERRES
   105   54   55 1    
   106   54  110 1    
   107   55   56 1    
   108   55   59 1    
   109   55  111 1    
   110   56   57 am   BACKBONE|DICT|INTERRES
   111   56   58 2    
   112   57  112 1    
   113   57  113 1    
   114   59   60 1    
   115   59  114 1    
   116   59  115 1    
   117   60   61 1    
   118   61  116 1    
   119   61  117 1    
@<TRIPOS>SUBSTRUCTURE
     1 UNK         1 GROUP             0       ****    0 ROOT    
