@<TRIPOS>MOLECULE
3R8
117   119    1
SMALL
USER_CHARGES


@<TRIPOS>ATOM
      1 CA         17.2443  -23.3329  -41.7015 C.3       0 UNK        -0.2013 
      2 C          18.1163  -24.3179  -40.9259 C.2       0 UNK         0.4866 
      3 O          18.4740  -24.0331  -39.7847 O.2       0 UNK        -0.5176 
      4 N          18.4725  -25.4859  -41.4788 N.am      1 UNK        -0.4884 
      5 CA         18.2033  -25.9520  -42.8445 C.3       1 UNK         0.0853 
      6 C6         18.5708  -27.4473  -43.0133 C.3       10 UNK        -0.0849 
      7 S7         17.5285  -28.5414  -41.9908 S.3       10 UNK        -0.2776 
      8 C8         16.5871  -29.4688  -43.2486 C.3       10 UNK         0.0316 
      9 C9         17.4869  -30.3477  -44.1085 C.ar      10 UNK        -0.0863 
     10 C10        18.1538  -31.4377  -43.5410 C.ar      10 UNK        -0.1009 
     11 C11        18.9951  -32.2371  -44.3195 C.ar      10 UNK        -0.0712 
     12 C12        19.1714  -31.9397  -45.6731 C.ar      10 UNK        -0.0894 
     13 C13        18.5052  -30.8579  -46.2562 C.ar      10 UNK        -0.0745 
     14 C14        17.6532  -30.0733  -45.4705 C.ar      10 UNK        -0.0972 
     15 C15        18.7092  -30.5534  -47.7367 C.3       10 UNK         0.0209 
     16 S16        19.1772  -28.8218  -48.0640 S.3       10 UNK        -0.2568 
     17 C17        20.6854  -28.6355  -47.0504 C.3       10 UNK        -0.0983 
     18 CA         21.2018  -27.1741  -47.0232 C.3       3 UNK         0.0876 
     19 N          20.1441  -26.2434  -46.6179 N.am      3 UNK        -0.4424 
     20 C          20.1310  -24.9191  -46.8150 C.2       2 UNK         0.4918 
     21 O          20.9995  -24.3073  -47.4360 O.2       2 UNK        -0.4875 
     22 CA         18.9625  -24.1442  -46.1726 C.3       2 UNK         0.0481 
     23 CB         17.8798  -23.8444  -47.2211 C.3       2 UNK        -0.1831 
     24 N          18.3520  -24.8380  -45.0281 N.am      2 UNK        -0.4498 
     25 C          18.9843  -25.1183  -43.8783 C.2       1 UNK         0.5027 
     26 O          20.1542  -24.8031  -43.6492 O.2       1 UNK        -0.4969 
     27 C          22.4711  -27.0625  -46.1432 C.2       3 UNK         0.5005 
     28 O          23.4830  -27.6776  -46.4842 O.2       3 UNK        -0.5279 
     29 N          22.4056  -26.2915  -45.0440 N.am      4 UNK        -0.4463 
     30 CA         23.4550  -26.0568  -44.0509 C.3       4 UNK         0.0283 
     31 CB         24.6841  -25.3596  -44.6809 C.3       4 UNK        -0.1875 
     32 C          23.7703  -27.3312  -43.2455 C.2       4 UNK         0.4949 
     33 O          22.8381  -27.9761  -42.7598 O.2       4 UNK        -0.5039 
     34 N          25.0652  -27.6306  -43.0502 N.am      5 UNK        -0.4663 
     35 CA         25.6145  -28.7470  -42.2606 C.3       5 UNK         0.0242 
     36 CB         25.2961  -30.0957  -42.9424 C.3       5 UNK        -0.1982 
     37 C          25.1806  -28.7288  -40.7793 C.2       5 UNK         0.5017 
     38 O          25.1083  -29.7846  -40.1495 O.2       5 UNK        -0.5012 
     39 N          24.8375  -27.5343  -40.2681 N.am      6 UNK        -0.4439 
     40 CA         24.2475  -27.2542  -38.9505 C.3       6 UNK         0.0297 
     41 CB         25.2892  -27.4984  -37.8379 C.3       6 UNK        -0.2006 
     42 C          22.9223  -28.0032  -38.6761 C.2       6 UNK         0.4892 
     43 O          22.5445  -28.1429  -37.5120 O.2       6 UNK        -0.5089 
     44 N          22.2634  -28.4988  -39.7392 N.am      7 UNK        -0.4243 
     45 CA         21.1245  -29.4267  -39.7289 C.3       7 UNK         0.0196 
     46 CB         19.8657  -28.7442  -39.1541 C.3       7 UNK        -0.2007 
     47 C          21.4292  -30.7765  -39.0385 C.2       7 UNK         0.5020 
     48 O          20.4983  -31.4639  -38.6152 O.2       7 UNK        -0.5147 
     49 N          22.7156  -31.1538  -38.9389 N.am      8 UNK        -0.4734 
     50 CA         23.1896  -32.3451  -38.2202 C.3       8 UNK         0.0238 
     51 CB         24.7211  -32.2920  -38.1019 C.3       8 UNK        -0.1912 
     52 C          22.7437  -33.6772  -38.8465 C.2       8 UNK         0.5038 
     53 O          22.7083  -34.6912  -38.1480 O.2       8 UNK        -0.5046 
     54 N          22.3978  -33.6444  -40.1377 N.am      9 UNK        -0.4200 
     55 CA         21.7593  -34.7393  -40.8762 C.3       9 UNK         0.0839 
     56 C          20.2803  -35.0224  -40.4749 C.2       9 UNK         0.5513 
     57 N          19.6151  -34.1698  -39.7026 N.am      9 UNK        -0.7519 
     58 O          19.7284  -36.0459  -40.8702 O.2       9 UNK        -0.4960 
     59 C59        21.9271  -34.5538  -42.4075 C.3       10 UNK        -0.0876 
     60 S60        21.3262  -32.9420  -43.0281 S.3       10 UNK        -0.2414 
     61 C61        19.7097  -33.4262  -43.7018 C.3       10 UNK         0.0169 
     62 H62        16.8313  -22.5828  -41.0272 H         1 UNK         0.0903 
     63 H63        16.4041  -23.8293  -42.1849 H         1 UNK         0.0903 
     64 H64        17.8307  -22.8101  -42.4565 H         1 UNK         0.0903 
     65 H65        19.0456  -26.1103  -40.9313 H         1 UNK         0.3096 
     66 H66        17.1351  -25.8424  -43.0409 H         1 UNK         0.1121 
     67 H67        19.6150  -27.6227  -42.7431 H         1 UNK         0.0849 
     68 H68        18.4827  -27.7498  -44.0576 H         1 UNK         0.0849 
     69 H69        15.8513  -30.0977  -42.7456 H         1 UNK         0.0865 
     70 H70        16.0194  -28.7677  -43.8625 H         1 UNK         0.0865 
     71 H71        18.0265  -31.6562  -42.4892 H         1 UNK         0.1346 
     72 H72        19.8294  -32.5549  -46.2717 H         1 UNK         0.1412 
     73 H73        17.1341  -29.2381  -45.9205 H         1 UNK         0.1426 
     74 H74        19.4745  -31.2028  -48.1647 H         1 UNK         0.0716 
     75 H75        17.7845  -30.7742  -48.2713 H         1 UNK         0.0716 
     76 H76        21.4480  -29.3066  -47.4504 H         1 UNK         0.0695 
     77 H77        20.4755  -28.9772  -46.0350 H         1 UNK         0.0695 
     78 H78        21.5056  -26.9063  -48.0377 H         1 UNK         0.0983 
     79 H79        19.3576  -26.6596  -46.1446 H         1 UNK         0.3095 
     80 H80        19.3606  -23.1936  -45.8118 H         1 UNK         0.0454 
     81 H81        17.0842  -23.2252  -46.8064 H         1 UNK         0.0851 
     82 H82        17.4286  -24.7579  -47.6106 H         1 UNK         0.0851 
     83 H83        18.2986  -23.3018  -48.0699 H         1 UNK         0.0851 
     84 H84        17.3924  -25.1321  -45.1475 H         1 UNK         0.2976 
     85 H85        21.5201  -25.8495  -44.8236 H         1 UNK         0.3116 
     86 H86        23.0238  -25.3573  -43.3332 H         1 UNK         0.0646 
     87 H87        24.3840  -24.4725  -45.2390 H         1 UNK         0.0847 
     88 H88        25.3868  -25.0255  -43.9168 H         1 UNK         0.0847 
     89 H89        25.2240  -26.0111  -45.3690 H         1 UNK         0.0847 
     90 H90        25.7518  -27.0289  -43.4849 H         1 UNK         0.3040 
     91 H91        26.6987  -28.6242  -42.2566 H         1 UNK         0.1015 
     92 H92        25.6112  -30.0968  -43.9859 H         1 UNK         0.0786 
     93 H93        24.2294  -30.3222  -42.9151 H         1 UNK         0.0786 
     94 H94        25.8146  -30.9185  -42.4485 H         1 UNK         0.0786 
     95 H95        24.9266  -26.7362  -40.8814 H         1 UNK         0.3172 
     96 H96        23.9992  -26.1920  -38.9471 H         1 UNK         0.0595 
     97 H97        26.2151  -26.9579  -38.0342 H         1 UNK         0.0839 
     98 H98        25.5331  -28.5567  -37.7385 H         1 UNK         0.0839 
     99 H99        24.9188  -27.1589  -36.8698 H         1 UNK         0.0839 
    100 H100       22.6471  -28.3109  -40.6601 H         1 UNK         0.2998 
    101 H101       20.9217  -29.6641  -40.7748 H         1 UNK         0.0822 
    102 H102       19.6658  -27.7963  -39.6523 H         1 UNK         0.0787 
    103 H103       18.9843  -29.3717  -39.2920 H         1 UNK         0.0787 
    104 H104       19.9604  -28.5497  -38.0856 H         1 UNK         0.0787 
    105 H105       23.4349  -30.5536  -39.3333 H         1 UNK         0.3055 
    106 H106       22.7676  -32.3104  -37.2134 H         1 UNK         0.1106 
    107 H107       25.0499  -31.3798  -37.6035 H         1 UNK         0.0828 
    108 H108       25.0985  -33.1337  -37.5197 H         1 UNK         0.0828 
    109 H109       25.2018  -32.3303  -39.0803 H         1 UNK         0.0828 
    110 H110       22.4488  -32.7605  -40.6224 H         1 UNK         0.2931 
    111 H111       22.3035  -35.6487  -40.6139 H         1 UNK         0.0412 
    112 H112       20.0454  -33.3140  -39.3700 H         1 UNK         0.3472 
    113 H113       18.6618  -34.3775  -39.4515 H         1 UNK         0.3472 
    114 H114       22.9862  -34.6233  -42.6597 H         1 UNK         0.0970 
    115 H115       21.4511  -35.3700  -42.9545 H         1 UNK         0.0970 
    116 H116       19.8466  -34.2097  -44.4487 H         1 UNK         0.0612 
    117 H117       19.0955  -33.8567  -42.9099 H         1 UNK         0.0612 
@<TRIPOS>BOND
     1    1    2 1    
     2    1   62 1    
     3    1   63 1    
     4    1   64 1    
     5    2    3 2    
     6    2    4 am   BACKBONE|DICT|INTERRES
     7    4    5 1    
     8    4   65 1    
     9    5    6 1    
    10    5   25 1    
    11    5   66 1    
    12    6    7 1    
    13    6   67 1    
    14    6   68 1    
    15    7    8 1    
    16    8    9 1    
    17    8   69 1    
    18    8   70 1    
    19    9   10 ar   
    20    9   14 ar   
    21   10   11 ar   
    22   10   71 1    
    23   11   12 ar   
    24   11   61 1    
    25   12   13 ar   
    26   12   72 1    
    27   13   14 ar   
    28   13   15 1    
    29   14   73 1    
    30   15   16 1    
    31   15   74 1    
    32   15   75 1    
    33   16   17 1    
    34   17   18 1    
    35   17   76 1    
    36   17   77 1    
    37   18   19 1    
    38   18   27 1    
    39   18   78 1    
    40   19   20 am   BACKBONE|DICT|INTERRES
    41   19   79 1    
    42   20   21 2    
    43   20   22 1    
    44   22   23 1    
    45   22   24 1    
    46   22   80 1    
    47   23   81 1    
    48   23   82 1    
    49   23   83 1    
    50   24   25 am   BACKBONE|DICT|INTERRES
    51   24   84 1    
    52   25   26 2    
    53   27   28 2    
    54   27   29 am   BACKBONE|DICT|INTERRES
    55   29   30 1    
    56   29   85 1    
    57   30   31 1    
    58   30   32 1    
    59   30   86 1    
    60   31   87 1    
    61   31   88 1    
    62   31   89 1    
    63   32   33 2    
    64   32   34 am   BACKBONE|DICT|INTERRES
    65   34   35 1    
    66   34   90 1    
    67   35   36 1    
    68   35   37 1    
    69   35   91 1    
    70   36   92 1    
    71   36   93 1    
    72   36   94 1    
    73   37   38 2    
    74   37   39 am   BACKBONE|DICT|INTERRES
    75   39   40 1    
    76   39   95 1    
    77   40   41 1    
    78   40   42 1    
    79   40   96 1    
    80   41   97 1    
    81   41   98 1    
    82   41   99 1    
    83   42   43 2    
    84   42   44 am   BACKBONE|DICT|INTERRES
    85   44   45 1    
    86   44  100 1    
    87   45   46 1    
    88   45   47 1    
    89   45  101 1    
    90   46  102 1    
    91   46  103 1    
    92   46  104 1    
    93   47   48 2    
    94   47   49 am   BACKBONE|DICT|INTERRES
    95   49   50 1    
    96   49  105 1    
    97   50   51 1    
    98   50   52 1    
    99   50  106 1    
   100   51  107 1    
   101   51  108 1    
   102   51  109 1    
   103   52   53 2    
   104   52   54 am   BACKBONE|DICT|INTERRES
   105   54   55 1    
   106   54  110 1    
   107   55   56 1    
   108   55   59 1    
   109   55  111 1    
   110   56   57 am   BACKBONE|DICT|INTERRES
   111   56   58 2    
   112   57  112 1    
   113   57  113 1    
   114   59   60 1    
   115   59  114 1    
   116   59  115 1    
   117   60   61 1    
   118   61  116 1    
   119   61  117 1    
@<TRIPOS>SUBSTRUCTURE
     1 UNK         1 GROUP             0       ****    0 ROOT    
