@<TRIPOS>MOLECULE
3R8
117   119    1
SMALL
USER_CHARGES


@<TRIPOS>ATOM
      1 CA         15.1673  -22.9700  -42.1467 C.3       0 UNK        -0.2013 
      2 C          15.8105  -23.7140  -43.3076 C.2       0 UNK         0.4866 
      3 O          15.4445  -23.4836  -44.4608 O.2       0 UNK        -0.5176 
      4 N          16.7592  -24.6112  -43.0125 N.am      1 UNK        -0.4884 
      5 CA         17.5188  -25.3836  -44.0003 C.3       1 UNK         0.0853 
      6 C6         18.3228  -26.5292  -43.3341 C.3       10 UNK        -0.0849 
      7 S7         17.2363  -27.8354  -42.6765 S.3       10 UNK        -0.2776 
      8 C8         17.2045  -29.0120  -44.0681 C.3       10 UNK         0.0316 
      9 C9         18.4225  -29.9261  -44.0753 C.ar      10 UNK        -0.0863 
     10 C10        18.3990  -31.1163  -43.3448 C.ar      10 UNK        -0.1009 
     11 C11        19.4879  -31.9899  -43.3746 C.ar      10 UNK        -0.0712 
     12 C12        20.6204  -31.6482  -44.1199 C.ar      10 UNK        -0.0894 
     13 C13        20.6702  -30.4561  -44.8521 C.ar      10 UNK        -0.0745 
     14 C14        19.5530  -29.6085  -44.8359 C.ar      10 UNK        -0.0972 
     15 C15        21.9373  -30.1613  -45.6638 C.3       10 UNK         0.0209 
     16 S16        22.0172  -28.5359  -46.5010 S.3       10 UNK        -0.2568 
     17 C17        22.4318  -27.4346  -45.1090 C.3       10 UNK        -0.0983 
     18 CA         22.4952  -25.9409  -45.5183 C.3       3 UNK         0.0876 
     19 N          21.2134  -25.4914  -46.0681 N.am      3 UNK        -0.4424 
     20 C          20.9811  -24.3372  -46.7067 C.2       2 UNK         0.4918 
     21 O          21.8577  -23.5277  -47.0080 O.2       2 UNK        -0.4875 
     22 CA         19.5054  -24.0182  -47.0204 C.3       2 UNK         0.0481 
     23 CB         19.1753  -24.3913  -48.4742 C.3       2 UNK        -0.1831 
     24 N          18.5554  -24.6863  -46.1171 N.am      2 UNK        -0.4498 
     25 C          18.4765  -24.4749  -44.7937 C.2       1 UNK         0.5027 
     26 O          19.1855  -23.6683  -44.1878 O.2       1 UNK        -0.4969 
     27 C          22.9692  -25.0882  -44.3168 C.2       3 UNK         0.5005 
     28 O          24.1472  -25.1662  -43.9645 O.2       3 UNK        -0.5279 
     29 N          22.0581  -24.3241  -43.6874 N.am      4 UNK        -0.4463 
     30 CA         22.2219  -23.4550  -42.5123 C.3       4 UNK         0.0283 
     31 CB         23.2513  -22.3358  -42.7648 C.3       4 UNK        -0.1875 
     32 C          22.5208  -24.2157  -41.2095 C.2       4 UNK         0.4949 
     33 O          21.7795  -24.0704  -40.2382 O.2       4 UNK        -0.5039 
     34 N          23.5837  -25.0257  -41.2180 N.am      5 UNK        -0.4663 
     35 CA         24.0132  -25.8758  -40.1047 C.3       5 UNK         0.0242 
     36 CB         25.5437  -26.0186  -40.1665 C.3       5 UNK        -0.1982 
     37 C          23.3422  -27.2626  -40.1122 C.2       5 UNK         0.5017 
     38 O          23.5541  -28.0275  -39.1705 O.2       5 UNK        -0.5012 
     39 N          22.5761  -27.5688  -41.1716 N.am      6 UNK        -0.4439 
     40 CA         21.9945  -28.8763  -41.4969 C.3       6 UNK         0.0297 
     41 CB         20.9342  -29.2990  -40.4552 C.3       6 UNK        -0.2006 
     42 C          23.1080  -29.9122  -41.7546 C.2       6 UNK         0.4892 
     43 O          24.0549  -29.5985  -42.4791 O.2       6 UNK        -0.5089 
     44 N          22.9883  -31.1100  -41.1768 N.am      7 UNK        -0.4243 
     45 CA         23.9624  -32.1953  -41.2438 C.3       7 UNK         0.0196 
     46 CB         23.8540  -32.9227  -42.6017 C.3       7 UNK        -0.2007 
     47 C          23.7057  -33.1416  -40.0627 C.2       7 UNK         0.5020 
     48 O          22.9073  -32.8235  -39.1763 O.2       7 UNK        -0.5147 
     49 N          24.3394  -34.3202  -40.0869 N.am      8 UNK        -0.4734 
     50 CA         24.0225  -35.4509  -39.2096 C.3       8 UNK         0.0238 
     51 CB         25.2403  -36.3915  -39.1417 C.3       8 UNK        -0.1912 
     52 C          22.7494  -36.1602  -39.7141 C.2       8 UNK         0.5038 
     53 O          22.8284  -37.2700  -40.2442 O.2       8 UNK        -0.5046 
     54 N          21.6110  -35.4653  -39.5982 N.am      9 UNK        -0.4200 
     55 CA         20.3042  -35.8548  -40.1516 C.3       9 UNK         0.0839 
     56 C          19.6537  -37.1132  -39.5056 C.2       9 UNK         0.5513 
     57 N          20.1058  -37.5777  -38.3469 N.am      9 UNK        -0.7519 
     58 O          18.7194  -37.6767  -40.0696 O.2       9 UNK        -0.4960 
     59 C59        19.3013  -34.6689  -40.1524 C.3       10 UNK        -0.0876 
     60 S60        19.9497  -33.1341  -40.9037 S.3       10 UNK        -0.2414 
     61 C61        19.4148  -33.3147  -42.6292 C.3       10 UNK         0.0169 
     62 H62        14.0939  -23.1567  -42.1300 H         1 UNK         0.0903 
     63 H63        15.5799  -23.2776  -41.1860 H         1 UNK         0.0903 
     64 H64        15.3252  -21.8973  -42.2555 H         1 UNK         0.0903 
     65 H65        17.0238  -24.7571  -42.0488 H         1 UNK         0.3096 
     66 H66        16.8033  -25.8185  -44.7022 H         1 UNK         0.1121 
     67 H67        18.9323  -26.1445  -42.5136 H         1 UNK         0.0849 
     68 H68        19.0276  -26.9779  -44.0327 H         1 UNK         0.0849 
     69 H69        16.2983  -29.6148  -43.9913 H         1 UNK         0.0865 
     70 H70        17.1219  -28.4728  -45.0130 H         1 UNK         0.0865 
     71 H71        17.5230  -31.3730  -42.7645 H         1 UNK         0.1346 
     72 H72        21.4626  -32.3244  -44.1455 H         1 UNK         0.1412 
     73 H73        19.5486  -28.7035  -45.4233 H         1 UNK         0.1426 
     74 H74        22.0330  -30.9320  -46.4298 H         1 UNK         0.0716 
     75 H75        22.8108  -30.2633  -45.0178 H         1 UNK         0.0716 
     76 H76        23.3867  -27.7650  -44.6941 H         1 UNK         0.0695 
     77 H77        21.6862  -27.5761  -44.3274 H         1 UNK         0.0695 
     78 H78        23.2499  -25.8281  -46.2998 H         1 UNK         0.0983 
     79 H79        20.4347  -26.1158  -45.9311 H         1 UNK         0.3095 
     80 H80        19.3718  -22.9406  -46.9051 H         1 UNK         0.0454 
     81 H81        19.8478  -23.8857  -49.1687 H         1 UNK         0.0851 
     82 H82        18.1599  -24.0968  -48.7399 H         1 UNK         0.0851 
     83 H83        19.2728  -25.4633  -48.6503 H         1 UNK         0.0851 
     84 H84        17.9329  -25.3586  -46.5434 H         1 UNK         0.2976 
     85 H85        21.1137  -24.3190  -44.0587 H         1 UNK         0.3116 
     86 H86        21.2530  -22.9721  -42.3739 H         1 UNK         0.0646 
     87 H87        24.2595  -22.7247  -42.9093 H         1 UNK         0.0847 
     88 H88        22.9895  -21.7511  -43.6467 H         1 UNK         0.0847 
     89 H89        23.2901  -21.6473  -41.9198 H         1 UNK         0.0847 
     90 H90        24.1042  -25.0986  -42.0906 H         1 UNK         0.3040 
     91 H91        23.7513  -25.3948  -39.1594 H         1 UNK         0.1015 
     92 H92        25.9173  -26.6115  -39.3305 H         1 UNK         0.0786 
     93 H93        26.0351  -25.0467  -40.1167 H         1 UNK         0.0786 
     94 H94        25.8649  -26.5113  -41.0854 H         1 UNK         0.0786 
     95 H95        22.5072  -26.8646  -41.8900 H         1 UNK         0.3172 
     96 H96        21.4694  -28.7584  -42.4435 H         1 UNK         0.0595 
     97 H97        21.3735  -29.5395  -39.4865 H         1 UNK         0.0839 
     98 H98        20.2020  -28.5066  -40.2997 H         1 UNK         0.0839 
     99 H99        20.3793  -30.1729  -40.7973 H         1 UNK         0.0839 
    100 H100       22.2153  -31.2899  -40.5467 H         1 UNK         0.2998 
    101 H101       24.9651  -31.7788  -41.1274 H         1 UNK         0.0822 
    102 H102       24.6616  -33.6428  -42.7345 H         1 UNK         0.0787 
    103 H103       23.9166  -32.2265  -43.4380 H         1 UNK         0.0787 
    104 H104       22.9125  -33.4670  -42.6870 H         1 UNK         0.0787 
    105 H105       24.9619  -34.5150  -40.8583 H         1 UNK         0.3055 
    106 H106       23.8236  -35.0858  -38.1990 H         1 UNK         0.1106 
    107 H107       26.1135  -35.8801  -38.7363 H         1 UNK         0.0828 
    108 H108       25.0369  -37.2454  -38.4940 H         1 UNK         0.0828 
    109 H109       25.5078  -36.7840  -40.1237 H         1 UNK         0.0828 
    110 H110       21.6662  -34.5314  -39.2082 H         1 UNK         0.2931 
    111 H111       20.4845  -36.1189  -41.1955 H         1 UNK         0.0412 
    112 H112       19.6780  -38.3948  -37.9398 H         1 UNK         0.3472 
    113 H113       20.8728  -37.1222  -37.8787 H         1 UNK         0.3472 
    114 H114       18.3766  -34.9497  -40.6601 H         1 UNK         0.0970 
    115 H115       19.0117  -34.4292  -39.1276 H         1 UNK         0.0970 
    116 H116       20.0360  -34.0654  -43.1200 H         1 UNK         0.0612 
    117 H117       18.3914  -33.6913  -42.6607 H         1 UNK         0.0612 
@<TRIPOS>BOND
     1    1    2 1    
     2    1   62 1    
     3    1   63 1    
     4    1   64 1    
     5    2    3 2    
     6    2    4 am   BACKBONE|DICT|INTERRES
     7    4    5 1    
     8    4   65 1    
     9    5    6 1    
    10    5   25 1    
    11    5   66 1    
    12    6    7 1    
    13    6   67 1    
    14    6   68 1    
    15    7    8 1    
    16    8    9 1    
    17    8   69 1    
    18    8   70 1    
    19    9   10 ar   
    20    9   14 ar   
    21   10   11 ar   
    22   10   71 1    
    23   11   12 ar   
    24   11   61 1    
    25   12   13 ar   
    26   12   72 1    
    27   13   14 ar   
    28   13   15 1    
    29   14   73 1    
    30   15   16 1    
    31   15   74 1    
    32   15   75 1    
    33   16   17 1    
    34   17   18 1    
    35   17   76 1    
    36   17   77 1    
    37   18   19 1    
    38   18   27 1    
    39   18   78 1    
    40   19   20 am   BACKBONE|DICT|INTERRES
    41   19   79 1    
    42   20   21 2    
    43   20   22 1    
    44   22   23 1    
    45   22   24 1    
    46   22   80 1    
    47   23   81 1    
    48   23   82 1    
    49   23   83 1    
    50   24   25 am   BACKBONE|DICT|INTERRES
    51   24   84 1    
    52   25   26 2    
    53   27   28 2    
    54   27   29 am   BACKBONE|DICT|INTERRES
    55   29   30 1    
    56   29   85 1    
    57   30   31 1    
    58   30   32 1    
    59   30   86 1    
    60   31   87 1    
    61   31   88 1    
    62   31   89 1    
    63   32   33 2    
    64   32   34 am   BACKBONE|DICT|INTERRES
    65   34   35 1    
    66   34   90 1    
    67   35   36 1    
    68   35   37 1    
    69   35   91 1    
    70   36   92 1    
    71   36   93 1    
    72   36   94 1    
    73   37   38 2    
    74   37   39 am   BACKBONE|DICT|INTERRES
    75   39   40 1    
    76   39   95 1    
    77   40   41 1    
    78   40   42 1    
    79   40   96 1    
    80   41   97 1    
    81   41   98 1    
    82   41   99 1    
    83   42   43 2    
    84   42   44 am   BACKBONE|DICT|INTERRES
    85   44   45 1    
    86   44  100 1    
    87   45   46 1    
    88   45   47 1    
    89   45  101 1    
    90   46  102 1    
    91   46  103 1    
    92   46  104 1    
    93   47   48 2    
    94   47   49 am   BACKBONE|DICT|INTERRES
    95   49   50 1    
    96   49  105 1    
    97   50   51 1    
    98   50   52 1    
    99   50  106 1    
   100   51  107 1    
   101   51  108 1    
   102   51  109 1    
   103   52   53 2    
   104   52   54 am   BACKBONE|DICT|INTERRES
   105   54   55 1    
   106   54  110 1    
   107   55   56 1    
   108   55   59 1    
   109   55  111 1    
   110   56   57 am   BACKBONE|DICT|INTERRES
   111   56   58 2    
   112   57  112 1    
   113   57  113 1    
   114   59   60 1    
   115   59  114 1    
   116   59  115 1    
   117   60   61 1    
   118   61  116 1    
   119   61  117 1    
@<TRIPOS>SUBSTRUCTURE
     1 UNK         1 GROUP             0       ****    0 ROOT    
