@<TRIPOS>MOLECULE
3R8
117   119    1
SMALL
USER_CHARGES


@<TRIPOS>ATOM
      1 CA         17.7504  -27.4678  -41.9388 C.3       0 UNK        -0.2013 
      2 C          16.8810  -26.4367  -42.6356 C.2       0 UNK         0.4866 
      3 O          16.5851  -25.3846  -42.0670 O.2       0 UNK        -0.5176 
      4 N          16.4690  -26.7281  -43.8739 N.am      1 UNK        -0.4884 
      5 CA         15.5540  -25.9145  -44.6845 C.3       1 UNK         0.0853 
      6 C6         14.7866  -26.7812  -45.7195 C.3       10 UNK        -0.0849 
      7 S7         13.9812  -28.2380  -44.9648 S.3       10 UNK        -0.2776 
      8 C8         14.7817  -29.6203  -45.8458 C.3       10 UNK         0.0316 
      9 C9         16.2779  -29.7291  -45.5682 C.ar      10 UNK        -0.0863 
     10 C10        16.7371  -30.2885  -44.3709 C.ar      10 UNK        -0.1009 
     11 C11        18.1074  -30.4568  -44.1401 C.ar      10 UNK        -0.0712 
     12 C12        19.0174  -30.0658  -45.1297 C.ar      10 UNK        -0.0894 
     13 C13        18.5762  -29.4773  -46.3176 C.ar      10 UNK        -0.0745 
     14 C14        17.2041  -29.3172  -46.5323 C.ar      10 UNK        -0.0972 
     15 C15        19.5783  -29.0224  -47.3752 C.3       10 UNK         0.0209 
     16 S16        20.8526  -27.8874  -46.7237 S.3       10 UNK        -0.2568 
     17 C17        19.8198  -26.5490  -46.0410 C.3       10 UNK        -0.0983 
     18 CA         20.5608  -25.5358  -45.1254 C.3       3 UNK         0.0876 
     19 N          19.6317  -24.5002  -44.6965 N.am      3 UNK        -0.4424 
     20 C          19.1477  -23.5001  -45.4361 C.2       2 UNK         0.4918 
     21 O          19.5989  -23.1693  -46.5339 O.2       2 UNK        -0.4875 
     22 CA         17.8833  -22.8309  -44.8607 C.3       2 UNK         0.0481 
     23 CB         17.2918  -21.7430  -45.7817 C.3       2 UNK        -0.1831 
     24 N          16.8802  -23.8524  -44.5161 N.am      2 UNK        -0.4498 
     25 C          16.3143  -24.7441  -45.3478 C.2       1 UNK         0.5027 
     26 O          16.4254  -24.7034  -46.5746 O.2       1 UNK        -0.4969 
     27 C          21.1095  -26.1752  -43.8335 C.2       3 UNK         0.5005 
     28 O          20.4809  -26.0477  -42.7780 O.2       3 UNK        -0.5279 
     29 N          22.2620  -26.8434  -43.9268 N.am      4 UNK        -0.4463 
     30 CA         22.9014  -27.5898  -42.8477 C.3       4 UNK         0.0283 
     31 CB         23.6173  -26.6314  -41.8766 C.3       4 UNK        -0.1875 
     32 C          23.8918  -28.5809  -43.4669 C.2       4 UNK         0.4949 
     33 O          24.3651  -28.3528  -44.5833 O.2       4 UNK        -0.5039 
     34 N          24.2123  -29.6407  -42.7199 N.am      5 UNK        -0.4663 
     35 CA         25.2094  -30.6446  -43.0791 C.3       5 UNK         0.0242 
     36 CB         24.5762  -31.7419  -43.9561 C.3       5 UNK        -0.1982 
     37 C          25.7861  -31.2099  -41.7788 C.2       5 UNK         0.5017 
     38 O          25.0787  -31.9328  -41.0757 O.2       5 UNK        -0.5012 
     39 N          27.0307  -30.8280  -41.4544 N.am      6 UNK        -0.4439 
     40 CA         27.7991  -31.2423  -40.2684 C.3       6 UNK         0.0297 
     41 CB         28.2346  -32.7170  -40.4074 C.3       6 UNK        -0.2006 
     42 C          27.0814  -30.9657  -38.9286 C.2       6 UNK         0.4892 
     43 O          27.1802  -31.7717  -38.0019 O.2       6 UNK        -0.5089 
     44 N          26.3337  -29.8522  -38.8718 N.am      7 UNK        -0.4243 
     45 CA         25.4644  -29.3675  -37.7859 C.3       7 UNK         0.0196 
     46 CB         26.2667  -29.0999  -36.4974 C.3       7 UNK        -0.2007 
     47 C          24.2285  -30.2437  -37.4933 C.2       7 UNK         0.5020 
     48 O          23.1657  -29.6953  -37.2025 O.2       7 UNK        -0.5147 
     49 N          24.3717  -31.5719  -37.5748 N.am      8 UNK        -0.4734 
     50 CA         23.3144  -32.5617  -37.3456 C.3       8 UNK         0.0238 
     51 CB         23.9527  -33.9549  -37.2242 C.3       8 UNK        -0.1912 
     52 C          22.2210  -32.5676  -38.4292 C.2       8 UNK         0.5038 
     53 O          21.0788  -32.9122  -38.1218 O.2       8 UNK        -0.5046 
     54 N          22.5876  -32.1807  -39.6579 N.am      9 UNK        -0.4200 
     55 CA         21.7585  -32.1723  -40.8702 C.3       9 UNK         0.0839 
     56 C          21.5319  -33.5879  -41.4737 C.2       9 UNK         0.5513 
     57 N          21.0726  -33.6577  -42.7150 N.am      9 UNK        -0.7519 
     58 O          21.7736  -34.6193  -40.8497 O.2       9 UNK        -0.4960 
     59 C59        20.4450  -31.3486  -40.7106 C.3       10 UNK        -0.0876 
     60 S60        20.0951  -30.3153  -42.1694 S.3       10 UNK        -0.2414 
     61 C61        18.5864  -31.0952  -42.8378 C.3       10 UNK         0.0169 
     62 H62        18.3663  -26.9981  -41.1723 H         1 UNK         0.0903 
     63 H63        17.1350  -28.2328  -41.4667 H         1 UNK         0.0903 
     64 H64        18.4190  -27.9487  -42.6514 H         1 UNK         0.0903 
     65 H65        16.7356  -27.6113  -44.2895 H         1 UNK         0.3096 
     66 H66        14.8084  -25.4708  -44.0204 H         1 UNK         0.1121 
     67 H67        14.0129  -26.1839  -46.2054 H         1 UNK         0.0849 
     68 H68        15.4505  -27.1104  -46.5195 H         1 UNK         0.0849 
     69 H69        14.2955  -30.5505  -45.5479 H         1 UNK         0.0865 
     70 H70        14.5950  -29.5178  -46.9161 H         1 UNK         0.0865 
     71 H71        16.0219  -30.6089  -43.6251 H         1 UNK         0.1346 
     72 H72        20.0785  -30.2029  -44.9740 H         1 UNK         0.1412 
     73 H73        16.8558  -28.8846  -47.4605 H         1 UNK         0.1426 
     74 H74        19.0685  -28.5294  -48.2044 H         1 UNK         0.0716 
     75 H75        20.0708  -29.9005  -47.7946 H         1 UNK         0.0716 
     76 H76        18.9841  -26.9846  -45.4919 H         1 UNK         0.0695 
     77 H77        19.3747  -26.0278  -46.8901 H         1 UNK         0.0695 
     78 H78        21.3872  -25.0717  -45.6679 H         1 UNK         0.0983 
     79 H79        19.2669  -24.6658  -43.7659 H         1 UNK         0.3095 
     80 H80        18.1766  -22.3516  -43.9256 H         1 UNK         0.0454 
     81 H81        16.4004  -21.2946  -45.3437 H         1 UNK         0.0851 
     82 H82        17.0222  -22.1364  -46.7621 H         1 UNK         0.0851 
     83 H83        18.0122  -20.9407  -45.9443 H         1 UNK         0.0851 
     84 H84        16.7516  -24.0282  -43.5231 H         1 UNK         0.2976 
     85 H85        22.7086  -26.9633  -44.8294 H         1 UNK         0.3116 
     86 H86        22.1385  -28.1531  -42.3072 H         1 UNK         0.0646 
     87 H87        24.3781  -26.0386  -42.3859 H         1 UNK         0.0847 
     88 H88        24.1123  -27.1802  -41.0747 H         1 UNK         0.0847 
     89 H89        22.9162  -25.9421  -41.4061 H         1 UNK         0.0847 
     90 H90        23.7935  -29.7506  -41.8062 H         1 UNK         0.3040 
     91 H91        26.0158  -30.1736  -43.6464 H         1 UNK         0.1015 
     92 H92        23.7502  -32.2437  -43.4526 H         1 UNK         0.0786 
     93 H93        25.3115  -32.5051  -44.2136 H         1 UNK         0.0786 
     94 H94        24.1950  -31.3308  -44.8910 H         1 UNK         0.0786 
     95 H95        27.5133  -30.1991  -42.0825 H         1 UNK         0.3172 
     96 H96        28.7026  -30.6309  -40.2571 H         1 UNK         0.0595 
     97 H97        27.3801  -33.3941  -40.3768 H         1 UNK         0.0839 
     98 H98        28.9079  -33.0064  -39.5995 H         1 UNK         0.0839 
     99 H99        28.7649  -32.8886  -41.3440 H         1 UNK         0.0839 
    100 H100       26.3188  -29.2842  -39.7071 H         1 UNK         0.2998 
    101 H101       25.0795  -28.4066  -38.1320 H         1 UNK         0.0822 
    102 H102       27.1004  -28.4226  -36.6825 H         1 UNK         0.0787 
    103 H103       25.6361  -28.6373  -35.7369 H         1 UNK         0.0787 
    104 H104       26.6686  -30.0176  -36.0670 H         1 UNK         0.0787 
    105 H105       25.3032  -31.9216  -37.7851 H         1 UNK         0.3055 
    106 H106       22.8287  -32.3207  -36.3974 H         1 UNK         0.1106 
    107 H107       23.1956  -34.7161  -37.0304 H         1 UNK         0.0828 
    108 H108       24.4744  -34.2392  -38.1391 H         1 UNK         0.0828 
    109 H109       24.6686  -33.9941  -36.4029 H         1 UNK         0.0828 
    110 H110       23.5723  -31.9996  -39.8264 H         1 UNK         0.2931 
    111 H111       22.3952  -31.6541  -41.5864 H         1 UNK         0.0412 
    112 H112       20.9222  -34.5623  -43.1335 H         1 UNK         0.3472 
    113 H113       20.8796  -32.8195  -43.2398 H         1 UNK         0.3472 
    114 H114       20.5299  -30.6578  -39.8702 H         1 UNK         0.0970 
    115 H115       19.5938  -31.9891  -40.4718 H         1 UNK         0.0970 
    116 H116       17.8056  -31.0322  -42.0782 H         1 UNK         0.0612 
    117 H117       18.7656  -32.1552  -43.0154 H         1 UNK         0.0612 
@<TRIPOS>BOND
     1    1    2 1    
     2    1   62 1    
     3    1   63 1    
     4    1   64 1    
     5    2    3 2    
     6    2    4 am   BACKBONE|DICT|INTERRES
     7    4    5 1    
     8    4   65 1    
     9    5    6 1    
    10    5   25 1    
    11    5   66 1    
    12    6    7 1    
    13    6   67 1    
    14    6   68 1    
    15    7    8 1    
    16    8    9 1    
    17    8   69 1    
    18    8   70 1    
    19    9   10 ar   
    20    9   14 ar   
    21   10   11 ar   
    22   10   71 1    
    23   11   12 ar   
    24   11   61 1    
    25   12   13 ar   
    26   12   72 1    
    27   13   14 ar   
    28   13   15 1    
    29   14   73 1    
    30   15   16 1    
    31   15   74 1    
    32   15   75 1    
    33   16   17 1    
    34   17   18 1    
    35   17   76 1    
    36   17   77 1    
    37   18   19 1    
    38   18   27 1    
    39   18   78 1    
    40   19   20 am   BACKBONE|DICT|INTERRES
    41   19   79 1    
    42   20   21 2    
    43   20   22 1    
    44   22   23 1    
    45   22   24 1    
    46   22   80 1    
    47   23   81 1    
    48   23   82 1    
    49   23   83 1    
    50   24   25 am   BACKBONE|DICT|INTERRES
    51   24   84 1    
    52   25   26 2    
    53   27   28 2    
    54   27   29 am   BACKBONE|DICT|INTERRES
    55   29   30 1    
    56   29   85 1    
    57   30   31 1    
    58   30   32 1    
    59   30   86 1    
    60   31   87 1    
    61   31   88 1    
    62   31   89 1    
    63   32   33 2    
    64   32   34 am   BACKBONE|DICT|INTERRES
    65   34   35 1    
    66   34   90 1    
    67   35   36 1    
    68   35   37 1    
    69   35   91 1    
    70   36   92 1    
    71   36   93 1    
    72   36   94 1    
    73   37   38 2    
    74   37   39 am   BACKBONE|DICT|INTERRES
    75   39   40 1    
    76   39   95 1    
    77   40   41 1    
    78   40   42 1    
    79   40   96 1    
    80   41   97 1    
    81   41   98 1    
    82   41   99 1    
    83   42   43 2    
    84   42   44 am   BACKBONE|DICT|INTERRES
    85   44   45 1    
    86   44  100 1    
    87   45   46 1    
    88   45   47 1    
    89   45  101 1    
    90   46  102 1    
    91   46  103 1    
    92   46  104 1    
    93   47   48 2    
    94   47   49 am   BACKBONE|DICT|INTERRES
    95   49   50 1    
    96   49  105 1    
    97   50   51 1    
    98   50   52 1    
    99   50  106 1    
   100   51  107 1    
   101   51  108 1    
   102   51  109 1    
   103   52   53 2    
   104   52   54 am   BACKBONE|DICT|INTERRES
   105   54   55 1    
   106   54  110 1    
   107   55   56 1    
   108   55   59 1    
   109   55  111 1    
   110   56   57 am   BACKBONE|DICT|INTERRES
   111   56   58 2    
   112   57  112 1    
   113   57  113 1    
   114   59   60 1    
   115   59  114 1    
   116   59  115 1    
   117   60   61 1    
   118   61  116 1    
   119   61  117 1    
@<TRIPOS>SUBSTRUCTURE
     1 UNK         1 GROUP             0       ****    0 ROOT    
