@<TRIPOS>MOLECULE
3R8
117   119    1
SMALL
USER_CHARGES


@<TRIPOS>ATOM
      1 CA         14.0258  -22.4363  -44.3522 C.3       0 UNK        -0.2013 
      2 C          14.9355  -23.3868  -45.1162 C.2       0 UNK         0.4866 
      3 O          14.7052  -23.6376  -46.2994 O.2       0 UNK        -0.5176 
      4 N          15.9667  -23.9164  -44.4517 N.am      1 UNK        -0.4884 
      5 CA         16.9663  -24.8206  -45.0155 C.3       1 UNK         0.0853 
      6 C6         16.4611  -26.2854  -45.0557 C.3       10 UNK        -0.0849 
      7 S7         17.3910  -27.3232  -46.2336 S.3       10 UNK        -0.2776 
      8 C8         16.4961  -28.9038  -46.0944 C.3       10 UNK         0.0316 
      9 C9         17.1014  -29.8152  -45.0344 C.ar      10 UNK        -0.0863 
     10 C10        17.9283  -30.8785  -45.4132 C.ar      10 UNK        -0.1009 
     11 C11        18.4520  -31.7480  -44.4518 C.ar      10 UNK        -0.0712 
     12 C12        18.1625  -31.5358  -43.1010 C.ar      10 UNK        -0.0894 
     13 C13        17.3444  -30.4734  -42.7085 C.ar      10 UNK        -0.0745 
     14 C14        16.8072  -29.6242  -43.6804 C.ar      10 UNK        -0.0972 
     15 C15        17.0104  -30.2699  -41.2375 C.3       10 UNK         0.0209 
     16 S16        18.4384  -29.6705  -40.2800 S.3       10 UNK        -0.2568 
     17 C17        18.6791  -27.9859  -40.9411 C.3       10 UNK        -0.0983 
     18 CA         20.0441  -27.7976  -41.6515 C.3       3 UNK         0.0876 
     19 N          20.0382  -26.5877  -42.4814 N.am      3 UNK        -0.4424 
     20 C          21.0275  -26.1550  -43.2747 C.2       2 UNK         0.4918 
     21 O          22.1346  -26.6907  -43.3330 O.2       2 UNK        -0.4875 
     22 CA         20.7283  -24.9146  -44.1458 C.3       2 UNK         0.0481 
     23 CB         21.7798  -24.7075  -45.2516 C.3       2 UNK        -0.1831 
     24 N          19.4024  -24.9637  -44.7715 N.am      2 UNK        -0.4498 
     25 C          18.2416  -24.6799  -44.1695 C.2       1 UNK         0.5027 
     26 O          18.1530  -24.3627  -42.9792 O.2       1 UNK        -0.4969 
     27 C          21.2174  -27.8266  -40.6492 C.2       3 UNK         0.5005 
     28 O          21.9004  -28.8462  -40.5394 O.2       3 UNK        -0.5279 
     29 N          21.4484  -26.6975  -39.9629 N.am      4 UNK        -0.4463 
     30 CA         22.5201  -26.5335  -38.9777 C.3       4 UNK         0.0283 
     31 CB         22.3012  -25.2343  -38.1863 C.3       4 UNK        -0.1875 
     32 C          23.9232  -26.5549  -39.6049 C.2       4 UNK         0.4949 
     33 O          24.8320  -27.1485  -39.0257 O.2       4 UNK        -0.5039 
     34 N          24.0709  -25.9303  -40.7820 N.am      5 UNK        -0.4663 
     35 CA         25.3245  -25.8913  -41.5420 C.3       5 UNK         0.0242 
     36 CB         25.2458  -24.7938  -42.6136 C.3       5 UNK        -0.1982 
     37 C          25.6616  -27.2498  -42.1761 C.2       5 UNK         0.5017 
     38 O          26.8288  -27.6408  -42.1886 O.2       5 UNK        -0.5012 
     39 N          24.6289  -27.9551  -42.6575 N.am      6 UNK        -0.4439 
     40 CA         24.7140  -29.3174  -43.1858 C.3       6 UNK         0.0297 
     41 CB         23.4390  -29.6167  -43.9932 C.3       6 UNK        -0.2006 
     42 C          24.9122  -30.3898  -42.0983 C.2       6 UNK         0.4892 
     43 O          25.2139  -31.5298  -42.4491 O.2       6 UNK        -0.5089 
     44 N          24.6952  -30.0317  -40.8220 N.am      7 UNK        -0.4243 
     45 CA         24.6775  -30.9028  -39.6391 C.3       7 UNK         0.0196 
     46 CB         26.0884  -31.4484  -39.3346 C.3       7 UNK        -0.2007 
     47 C          23.6126  -32.0081  -39.7715 C.2       7 UNK         0.5020 
     48 O          23.9125  -33.1911  -39.5986 O.2       7 UNK        -0.5147 
     49 N          22.3970  -31.5916  -40.1583 N.am      8 UNK        -0.4734 
     50 CA         21.2375  -32.4219  -40.5143 C.3       8 UNK         0.0238 
     51 CB         20.6843  -33.1555  -39.2753 C.3       8 UNK        -0.1912 
     52 C          21.4939  -33.3702  -41.7051 C.2       8 UNK         0.5038 
     53 O          20.8069  -34.3842  -41.8367 O.2       8 UNK        -0.5046 
     54 N          22.4739  -33.0148  -42.5464 N.am      9 UNK        -0.4200 
     55 CA         22.9696  -33.7710  -43.7061 C.3       9 UNK         0.0839 
     56 C          23.7455  -35.0692  -43.3294 C.2       9 UNK         0.5513 
     57 N          24.1926  -35.2389  -42.0894 N.am      9 UNK        -0.7519 
     58 O          23.9706  -35.9280  -44.1785 O.2       9 UNK        -0.4960 
     59 C59        21.9032  -33.9967  -44.8177 C.3       10 UNK        -0.0876 
     60 S60        21.0028  -32.4679  -45.2660 S.3       10 UNK        -0.2414 
     61 C61        19.2924  -32.9442  -44.8689 C.3       10 UNK         0.0169 
     62 H62        13.0049  -22.8175  -44.3465 H         1 UNK         0.0903 
     63 H63        14.3455  -22.3087  -43.3180 H         1 UNK         0.0903 
     64 H64        14.0212  -21.4565  -44.8291 H         1 UNK         0.0903 
     65 H65        16.1543  -23.6573  -43.4896 H         1 UNK         0.3096 
     66 H66        17.1939  -24.4813  -46.0292 H         1 UNK         0.1121 
     67 H67        15.4158  -26.3077  -45.3684 H         1 UNK         0.0849 
     68 H68        16.4853  -26.7299  -44.0606 H         1 UNK         0.0849 
     69 H69        15.4418  -28.7252  -45.8776 H         1 UNK         0.0865 
     70 H70        16.5183  -29.3979  -47.0670 H         1 UNK         0.0865 
     71 H71        18.1526  -31.0435  -46.4584 H         1 UNK         0.1346 
     72 H72        18.5590  -32.2084  -42.3531 H         1 UNK         0.1412 
     73 H73        16.1488  -28.8222  -43.3806 H         1 UNK         0.1426 
     74 H74        16.1777  -29.5753  -41.1160 H         1 UNK         0.0716 
     75 H75        16.6784  -31.2185  -40.8130 H         1 UNK         0.0716 
     76 H76        18.5594  -27.2713  -40.1246 H         1 UNK         0.0695 
     77 H77        17.8678  -27.7696  -41.6375 H         1 UNK         0.0695 
     78 H78        20.1879  -28.6356  -42.3378 H         1 UNK         0.0983 
     79 H79        19.1877  -26.0364  -42.4735 H         1 UNK         0.3095 
     80 H80        20.7688  -24.0462  -43.4853 H         1 UNK         0.0454 
     81 H81        21.5554  -23.8280  -45.8551 H         1 UNK         0.0851 
     82 H82        21.8375  -25.5680  -45.9194 H         1 UNK         0.0851 
     83 H83        22.7724  -24.5563  -44.8296 H         1 UNK         0.0851 
     84 H84        19.3758  -25.2895  -45.7281 H         1 UNK         0.2976 
     85 H85        20.8427  -25.9052  -40.1222 H         1 UNK         0.3116 
     86 H86        22.4599  -27.3698  -38.2775 H         1 UNK         0.0646 
     87 H87        21.3446  -25.2438  -37.6635 H         1 UNK         0.0847 
     88 H88        23.0782  -25.1029  -37.4317 H         1 UNK         0.0847 
     89 H89        22.3235  -24.3554  -38.8318 H         1 UNK         0.0847 
     90 H90        23.2635  -25.4963  -41.2049 H         1 UNK         0.3040 
     91 H91        26.1341  -25.6379  -40.8534 H         1 UNK         0.1015 
     92 H92        24.4639  -25.0016  -43.3429 H         1 UNK         0.0786 
     93 H93        26.1870  -24.7155  -43.1597 H         1 UNK         0.0786 
     94 H94        25.0457  -23.8177  -42.1714 H         1 UNK         0.0786 
     95 H95        23.7087  -27.5207  -42.6732 H         1 UNK         0.3172 
     96 H96        25.5695  -29.3713  -43.8620 H         1 UNK         0.0595 
     97 H97        22.5482  -29.5999  -43.3634 H         1 UNK         0.0839 
     98 H98        23.4904  -30.6010  -44.4598 H         1 UNK         0.0839 
     99 H99        23.2947  -28.8900  -44.7929 H         1 UNK         0.0839 
    100 H100       24.4066  -29.0765  -40.6562 H         1 UNK         0.2998 
    101 H101       24.3730  -30.2771  -38.7985 H         1 UNK         0.0822 
    102 H102       26.0942  -32.0123  -38.4011 H         1 UNK         0.0787 
    103 H103       26.4448  -32.1167  -40.1193 H         1 UNK         0.0787 
    104 H104       26.8108  -30.6389  -39.2298 H         1 UNK         0.0787 
    105 H105       22.2619  -30.5866  -40.2860 H         1 UNK         0.3055 
    106 H106       20.4706  -31.7269  -40.8562 H         1 UNK         0.1106 
    107 H107       19.7434  -33.6571  -39.5045 H         1 UNK         0.0828 
    108 H108       21.3773  -33.9145  -38.9112 H         1 UNK         0.0828 
    109 H109       20.4865  -32.4599  -38.4599 H         1 UNK         0.0828 
    110 H110       23.0219  -32.1991  -42.3127 H         1 UNK         0.2931 
    111 H111       23.7317  -33.1256  -44.1432 H         1 UNK         0.0412 
    112 H112       24.7018  -36.0773  -41.8588 H         1 UNK         0.3472 
    113 H113       24.0361  -34.5322  -41.3816 H         1 UNK         0.3472 
    114 H114       21.2039  -34.7777  -44.5165 H         1 UNK         0.0970 
    115 H115       22.3840  -34.3700  -45.7235 H         1 UNK         0.0970 
    116 H116       18.8461  -33.4283  -45.7387 H         1 UNK         0.0612 
    117 H117       19.2840  -33.6866  -44.0700 H         1 UNK         0.0612 
@<TRIPOS>BOND
     1    1    2 1    
     2    1   62 1    
     3    1   63 1    
     4    1   64 1    
     5    2    3 2    
     6    2    4 am   BACKBONE|DICT|INTERRES
     7    4    5 1    
     8    4   65 1    
     9    5    6 1    
    10    5   25 1    
    11    5   66 1    
    12    6    7 1    
    13    6   67 1    
    14    6   68 1    
    15    7    8 1    
    16    8    9 1    
    17    8   69 1    
    18    8   70 1    
    19    9   10 ar   
    20    9   14 ar   
    21   10   11 ar   
    22   10   71 1    
    23   11   12 ar   
    24   11   61 1    
    25   12   13 ar   
    26   12   72 1    
    27   13   14 ar   
    28   13   15 1    
    29   14   73 1    
    30   15   16 1    
    31   15   74 1    
    32   15   75 1    
    33   16   17 1    
    34   17   18 1    
    35   17   76 1    
    36   17   77 1    
    37   18   19 1    
    38   18   27 1    
    39   18   78 1    
    40   19   20 am   BACKBONE|DICT|INTERRES
    41   19   79 1    
    42   20   21 2    
    43   20   22 1    
    44   22   23 1    
    45   22   24 1    
    46   22   80 1    
    47   23   81 1    
    48   23   82 1    
    49   23   83 1    
    50   24   25 am   BACKBONE|DICT|INTERRES
    51   24   84 1    
    52   25   26 2    
    53   27   28 2    
    54   27   29 am   BACKBONE|DICT|INTERRES
    55   29   30 1    
    56   29   85 1    
    57   30   31 1    
    58   30   32 1    
    59   30   86 1    
    60   31   87 1    
    61   31   88 1    
    62   31   89 1    
    63   32   33 2    
    64   32   34 am   BACKBONE|DICT|INTERRES
    65   34   35 1    
    66   34   90 1    
    67   35   36 1    
    68   35   37 1    
    69   35   91 1    
    70   36   92 1    
    71   36   93 1    
    72   36   94 1    
    73   37   38 2    
    74   37   39 am   BACKBONE|DICT|INTERRES
    75   39   40 1    
    76   39   95 1    
    77   40   41 1    
    78   40   42 1    
    79   40   96 1    
    80   41   97 1    
    81   41   98 1    
    82   41   99 1    
    83   42   43 2    
    84   42   44 am   BACKBONE|DICT|INTERRES
    85   44   45 1    
    86   44  100 1    
    87   45   46 1    
    88   45   47 1    
    89   45  101 1    
    90   46  102 1    
    91   46  103 1    
    92   46  104 1    
    93   47   48 2    
    94   47   49 am   BACKBONE|DICT|INTERRES
    95   49   50 1    
    96   49  105 1    
    97   50   51 1    
    98   50   52 1    
    99   50  106 1    
   100   51  107 1    
   101   51  108 1    
   102   51  109 1    
   103   52   53 2    
   104   52   54 am   BACKBONE|DICT|INTERRES
   105   54   55 1    
   106   54  110 1    
   107   55   56 1    
   108   55   59 1    
   109   55  111 1    
   110   56   57 am   BACKBONE|DICT|INTERRES
   111   56   58 2    
   112   57  112 1    
   113   57  113 1    
   114   59   60 1    
   115   59  114 1    
   116   59  115 1    
   117   60   61 1    
   118   61  116 1    
   119   61  117 1    
@<TRIPOS>SUBSTRUCTURE
     1 UNK         1 GROUP             0       ****    0 ROOT    
