@<TRIPOS>MOLECULE
3R8
117   119    1
SMALL
USER_CHARGES


@<TRIPOS>ATOM
      1 CA         14.4723  -23.3117  -46.0985 C.3       0 UNK        -0.2013 
      2 C          15.3033  -24.5167  -45.6854 C.2       0 UNK         0.4866 
      3 O          16.5325  -24.4604  -45.7367 O.2       0 UNK        -0.5176 
      4 N          14.6456  -25.6062  -45.2683 N.am      1 UNK        -0.4884 
      5 CA         15.2649  -26.8627  -44.8287 C.3       1 UNK         0.0853 
      6 C6         14.2861  -28.0594  -44.9753 C.3       10 UNK        -0.0849 
      7 S7         14.2115  -28.6238  -46.7090 S.3       10 UNK        -0.2776 
      8 C8         15.3479  -30.0548  -46.6787 C.3       10 UNK         0.0316 
      9 C9         16.7156  -29.6951  -46.1090 C.ar      10 UNK        -0.0863 
     10 C10        17.0653  -30.0908  -44.8136 C.ar      10 UNK        -0.1009 
     11 C11        18.2959  -29.7271  -44.2594 C.ar      10 UNK        -0.0712 
     12 C12        19.1867  -28.9708  -45.0298 C.ar      10 UNK        -0.0894 
     13 C13        18.8519  -28.5628  -46.3245 C.ar      10 UNK        -0.0745 
     14 C14        17.6165  -28.9367  -46.8619 C.ar      10 UNK        -0.0972 
     15 C15        19.8218  -27.7250  -47.1481 C.3       10 UNK         0.0209 
     16 S16        19.9747  -26.0186  -46.5190 S.3       10 UNK        -0.2568 
     17 C17        21.3349  -26.1882  -45.3109 C.3       10 UNK        -0.0983 
     18 CA         21.0493  -25.5717  -43.9132 C.3       3 UNK         0.0876 
     19 N          19.7081  -25.8924  -43.3990 N.am      3 UNK        -0.4424 
     20 C          19.0916  -25.2186  -42.4162 C.2       2 UNK         0.4918 
     21 O          19.6094  -24.2794  -41.8108 O.2       2 UNK        -0.4875 
     22 CA         17.6627  -25.6634  -42.0657 C.3       2 UNK         0.0481 
     23 CB         16.9132  -24.6494  -41.1776 C.3       2 UNK        -0.1831 
     24 N          16.9083  -25.9186  -43.2896 N.am      2 UNK        -0.4498 
     25 C          15.8564  -26.7349  -43.4089 C.2       1 UNK         0.5027 
     26 O          15.3588  -27.3520  -42.4651 O.2       1 UNK        -0.4969 
     27 C          22.1880  -25.9645  -42.9430 C.2       3 UNK         0.5005 
     28 O          23.3371  -25.5947  -43.1910 O.2       3 UNK        -0.5279 
     29 N          21.8764  -26.7615  -41.9077 N.am      4 UNK        -0.4463 
     30 CA         22.7674  -27.4148  -40.9356 C.3       4 UNK         0.0283 
     31 CB         23.6632  -26.4116  -40.1834 C.3       4 UNK        -0.1875 
     32 C          23.5922  -28.5596  -41.5470 C.2       4 UNK         0.4949 
     33 O          23.6405  -29.6402  -40.9582 O.2       4 UNK        -0.5039 
     34 N          24.1933  -28.3088  -42.7195 N.am      5 UNK        -0.4663 
     35 CA         24.9050  -29.2547  -43.5877 C.3       5 UNK         0.0242 
     36 CB         23.8966  -30.2315  -44.2300 C.3       5 UNK        -0.1982 
     37 C          26.0660  -29.9704  -42.8724 C.2       5 UNK         0.5017 
     38 O          26.1706  -31.1945  -42.9386 O.2       5 UNK        -0.5012 
     39 N          26.8906  -29.1905  -42.1558 N.am      6 UNK        -0.4439 
     40 CA         27.9930  -29.6450  -41.2930 C.3       6 UNK         0.0297 
     41 CB         29.1382  -30.2521  -42.1320 C.3       6 UNK        -0.2006 
     42 C          27.5132  -30.5798  -40.1610 C.2       6 UNK         0.4892 
     43 O          28.1812  -31.5646  -39.8429 O.2       6 UNK        -0.5089 
     44 N          26.3451  -30.2415  -39.5960 N.am      7 UNK        -0.4243 
     45 CA         25.5915  -30.9468  -38.5540 C.3       7 UNK         0.0196 
     46 CB         26.4311  -31.1527  -37.2748 C.3       7 UNK        -0.2007 
     47 C          24.9051  -32.2434  -39.0262 C.2       7 UNK         0.5020 
     48 O          24.3607  -32.9618  -38.1862 O.2       7 UNK        -0.5147 
     49 N          24.8703  -32.5142  -40.3413 N.am      8 UNK        -0.4734 
     50 CA         24.1474  -33.6548  -40.9212 C.3       8 UNK         0.0238 
     51 CB         24.5476  -33.8486  -42.3912 C.3       8 UNK        -0.1912 
     52 C          22.6176  -33.5426  -40.7865 C.2       8 UNK         0.5038 
     53 O          21.9447  -34.5745  -40.7866 O.2       8 UNK        -0.5046 
     54 N          22.0997  -32.3146  -40.6389 N.am      9 UNK        -0.4200 
     55 CA         20.7004  -32.0457  -40.2693 C.3       9 UNK         0.0839 
     56 C          20.3547  -32.3851  -38.7872 C.2       9 UNK         0.5513 
     57 N          21.3105  -32.7049  -37.9211 N.am      9 UNK        -0.7519 
     58 O          19.1843  -32.3626  -38.4155 O.2       9 UNK        -0.4960 
     59 C59        20.2828  -30.5923  -40.6099 C.3       10 UNK        -0.0876 
     60 S60        20.3711  -30.2306  -42.3959 S.3       10 UNK        -0.2414 
     61 C61        18.5972  -30.1172  -42.8120 C.3       10 UNK         0.0169 
     62 H62        14.7234  -22.4526  -45.4769 H         1 UNK         0.0903 
     63 H63        14.6787  -23.0531  -47.1367 H         1 UNK         0.0903 
     64 H64        13.4032  -23.5000  -46.0019 H         1 UNK         0.0903 
     65 H65        13.6360  -25.5867  -45.2336 H         1 UNK         0.3096 
     66 H66        16.1238  -27.0509  -45.4754 H         1 UNK         0.1121 
     67 H67        14.5763  -28.9074  -44.3533 H         1 UNK         0.0849 
     68 H68        13.2838  -27.7867  -44.6410 H         1 UNK         0.0849 
     69 H69        14.8911  -30.8613  -46.1027 H         1 UNK         0.0865 
     70 H70        15.4656  -30.4374  -47.6936 H         1 UNK         0.0865 
     71 H71        16.3646  -30.6645  -44.2220 H         1 UNK         0.1346 
     72 H72        20.1415  -28.6896  -44.6169 H         1 UNK         0.1412 
     73 H73        17.3427  -28.6208  -47.8597 H         1 UNK         0.1426 
     74 H74        19.4843  -27.6724  -48.1843 H         1 UNK         0.0716 
     75 H75        20.7990  -28.2089  -47.1798 H         1 UNK         0.0716 
     76 H76        22.2082  -25.7008  -45.7489 H         1 UNK         0.0695 
     77 H77        21.6176  -27.2372  -45.2232 H         1 UNK         0.0695 
     78 H78        21.0992  -24.4857  -44.0216 H         1 UNK         0.0983 
     79 H79        19.2094  -26.6289  -43.8773 H         1 UNK         0.3095 
     80 H80        17.7602  -26.5999  -41.5126 H         1 UNK         0.0454 
     81 H81        17.4530  -24.4663  -40.2476 H         1 UNK         0.0851 
     82 H82        15.9223  -25.0120  -40.9049 H         1 UNK         0.0851 
     83 H83        16.7918  -23.6898  -41.6812 H         1 UNK         0.0851 
     84 H84        17.1891  -25.3934  -44.1153 H         1 UNK         0.2976 
     85 H85        20.9061  -27.0318  -41.8334 H         1 UNK         0.3116 
     86 H86        22.1062  -27.8651  -40.1948 H         1 UNK         0.0646 
     87 H87        24.4032  -25.9461  -40.8345 H         1 UNK         0.0847 
     88 H88        23.0716  -25.6175  -39.7281 H         1 UNK         0.0847 
     89 H89        24.2096  -26.9086  -39.3809 H         1 UNK         0.0847 
     90 H90        24.0946  -27.3611  -43.0763 H         1 UNK         0.3040 
     91 H91        25.3569  -28.6707  -44.3910 H         1 UNK         0.1015 
     92 H92        24.3919  -30.9132  -44.9225 H         1 UNK         0.0786 
     93 H93        23.1327  -29.6961  -44.7938 H         1 UNK         0.0786 
     94 H94        23.3878  -30.8372  -43.4796 H         1 UNK         0.0786 
     95 H95        26.7110  -28.1954  -42.1573 H         1 UNK         0.3172 
     96 H96        28.3849  -28.7531  -40.8018 H         1 UNK         0.0595 
     97 H97        28.8413  -31.1867  -42.6090 H         1 UNK         0.0839 
     98 H98        30.0061  -30.4694  -41.5082 H         1 UNK         0.0839 
     99 H99        29.4659  -29.5661  -42.9129 H         1 UNK         0.0839 
    100 H100       25.8595  -29.4492  -39.9938 H         1 UNK         0.2998 
    101 H101       24.7733  -30.2737  -38.2932 H         1 UNK         0.0822 
    102 H102       25.8077  -31.5036  -36.4515 H         1 UNK         0.0787 
    103 H103       26.8981  -30.2227  -36.9510 H         1 UNK         0.0787 
    104 H104       27.2179  -31.8935  -37.4187 H         1 UNK         0.0787 
    105 H105       25.3163  -31.8760  -40.9905 H         1 UNK         0.3055 
    106 H106       24.4506  -34.5489  -40.3717 H         1 UNK         0.1106 
    107 H107       25.6277  -33.9476  -42.5012 H         1 UNK         0.0828 
    108 H108       24.0956  -34.7526  -42.8012 H         1 UNK         0.0828 
    109 H109       24.2209  -33.0151  -43.0119 H         1 UNK         0.0828 
    110 H110       22.7172  -31.5108  -40.6813 H         1 UNK         0.2931 
    111 H111       20.0751  -32.7071  -40.8725 H         1 UNK         0.0412 
    112 H112       21.0541  -32.9228  -36.9712 H         1 UNK         0.3472 
    113 H113       22.2833  -32.7529  -38.1986 H         1 UNK         0.3472 
    114 H114       20.9228  -29.8872  -40.0794 H         1 UNK         0.0970 
    115 H115       19.2684  -30.3897  -40.2609 H         1 UNK         0.0970 
    116 H116       18.1273  -29.3792  -42.1602 H         1 UNK         0.0612 
    117 H117       18.1344  -31.0791  -42.5852 H         1 UNK         0.0612 
@<TRIPOS>BOND
     1    1    2 1    
     2    1   62 1    
     3    1   63 1    
     4    1   64 1    
     5    2    3 2    
     6    2    4 am   BACKBONE|DICT|INTERRES
     7    4    5 1    
     8    4   65 1    
     9    5    6 1    
    10    5   25 1    
    11    5   66 1    
    12    6    7 1    
    13    6   67 1    
    14    6   68 1    
    15    7    8 1    
    16    8    9 1    
    17    8   69 1    
    18    8   70 1    
    19    9   10 ar   
    20    9   14 ar   
    21   10   11 ar   
    22   10   71 1    
    23   11   12 ar   
    24   11   61 1    
    25   12   13 ar   
    26   12   72 1    
    27   13   14 ar   
    28   13   15 1    
    29   14   73 1    
    30   15   16 1    
    31   15   74 1    
    32   15   75 1    
    33   16   17 1    
    34   17   18 1    
    35   17   76 1    
    36   17   77 1    
    37   18   19 1    
    38   18   27 1    
    39   18   78 1    
    40   19   20 am   BACKBONE|DICT|INTERRES
    41   19   79 1    
    42   20   21 2    
    43   20   22 1    
    44   22   23 1    
    45   22   24 1    
    46   22   80 1    
    47   23   81 1    
    48   23   82 1    
    49   23   83 1    
    50   24   25 am   BACKBONE|DICT|INTERRES
    51   24   84 1    
    52   25   26 2    
    53   27   28 2    
    54   27   29 am   BACKBONE|DICT|INTERRES
    55   29   30 1    
    56   29   85 1    
    57   30   31 1    
    58   30   32 1    
    59   30   86 1    
    60   31   87 1    
    61   31   88 1    
    62   31   89 1    
    63   32   33 2    
    64   32   34 am   BACKBONE|DICT|INTERRES
    65   34   35 1    
    66   34   90 1    
    67   35   36 1    
    68   35   37 1    
    69   35   91 1    
    70   36   92 1    
    71   36   93 1    
    72   36   94 1    
    73   37   38 2    
    74   37   39 am   BACKBONE|DICT|INTERRES
    75   39   40 1    
    76   39   95 1    
    77   40   41 1    
    78   40   42 1    
    79   40   96 1    
    80   41   97 1    
    81   41   98 1    
    82   41   99 1    
    83   42   43 2    
    84   42   44 am   BACKBONE|DICT|INTERRES
    85   44   45 1    
    86   44  100 1    
    87   45   46 1    
    88   45   47 1    
    89   45  101 1    
    90   46  102 1    
    91   46  103 1    
    92   46  104 1    
    93   47   48 2    
    94   47   49 am   BACKBONE|DICT|INTERRES
    95   49   50 1    
    96   49  105 1    
    97   50   51 1    
    98   50   52 1    
    99   50  106 1    
   100   51  107 1    
   101   51  108 1    
   102   51  109 1    
   103   52   53 2    
   104   52   54 am   BACKBONE|DICT|INTERRES
   105   54   55 1    
   106   54  110 1    
   107   55   56 1    
   108   55   59 1    
   109   55  111 1    
   110   56   57 am   BACKBONE|DICT|INTERRES
   111   56   58 2    
   112   57  112 1    
   113   57  113 1    
   114   59   60 1    
   115   59  114 1    
   116   59  115 1    
   117   60   61 1    
   118   61  116 1    
   119   61  117 1    
@<TRIPOS>SUBSTRUCTURE
     1 UNK         1 GROUP             0       ****    0 ROOT    
