@<TRIPOS>MOLECULE
3R8
117   119    1
SMALL
USER_CHARGES


@<TRIPOS>ATOM
      1 CA         16.4928  -27.3629  -49.2461 C.3       0 UNK        -0.2013 
      2 C          17.9856  -27.2837  -48.9619 C.2       0 UNK         0.4866 
      3 O          18.7134  -26.6163  -49.6981 O.2       0 UNK        -0.5176 
      4 N          18.4445  -27.9662  -47.9052 N.am      1 UNK        -0.4884 
      5 CA         19.8325  -27.9469  -47.4292 C.3       1 UNK         0.0853 
      6 C6         20.2470  -29.3362  -46.8504 C.3       10 UNK        -0.0849 
      7 S7         19.9987  -29.5962  -45.0591 S.3       10 UNK        -0.2776 
      8 C8         18.2866  -30.2028  -45.0017 C.3       10 UNK         0.0316 
      9 C9         17.7484  -30.0236  -43.5958 C.ar      10 UNK        -0.0863 
     10 C10        18.0096  -30.9877  -42.6200 C.ar      10 UNK        -0.1009 
     11 C11        17.6420  -30.7622  -41.2908 C.ar      10 UNK        -0.0712 
     12 C12        16.9547  -29.5951  -40.9527 C.ar      10 UNK        -0.0894 
     13 C13        16.6817  -28.6291  -41.9245 C.ar      10 UNK        -0.0745 
     14 C14        17.0717  -28.8508  -43.2481 C.ar      10 UNK        -0.0972 
     15 C15        16.0414  -27.3130  -41.5196 C.3       10 UNK         0.0209 
     16 S16        17.2079  -26.2998  -40.5553 S.3       10 UNK        -0.2568 
     17 C17        18.4427  -25.8195  -41.8148 C.3       10 UNK        -0.0983 
     18 CA         19.6941  -26.7486  -41.9186 C.3       3 UNK         0.0876 
     19 N          20.3714  -26.6156  -43.2181 N.am      3 UNK        -0.4424 
     20 C          20.9392  -25.4953  -43.6962 C.2       2 UNK         0.4918 
     21 O          20.8745  -24.3975  -43.1407 O.2       2 UNK        -0.4875 
     22 CA         21.7348  -25.5981  -45.0130 C.3       2 UNK         0.0481 
     23 CB         23.2280  -25.7880  -44.6999 C.3       2 UNK        -0.1831 
     24 N          21.2934  -26.6559  -45.9283 N.am      2 UNK        -0.4498 
     25 C          20.0810  -26.7325  -46.4973 C.2       1 UNK         0.5027 
     26 O          19.1891  -25.9014  -46.3026 O.2       1 UNK        -0.4969 
     27 C          20.7090  -26.5979  -40.7558 C.2       3 UNK         0.5005 
     28 O          21.9123  -26.7515  -40.9738 O.2       3 UNK        -0.5279 
     29 N          20.2169  -26.3239  -39.5384 N.am      4 UNK        -0.4463 
     30 CA         20.9701  -25.9478  -38.3309 C.3       4 UNK         0.0283 
     31 CB         21.4402  -24.4833  -38.4568 C.3       4 UNK        -0.1875 
     32 C          22.1263  -26.9033  -37.9611 C.2       4 UNK         0.4949 
     33 O          23.1979  -26.4438  -37.5627 O.2       4 UNK        -0.5039 
     34 N          21.8872  -28.2143  -38.1158 N.am      5 UNK        -0.4663 
     35 CA         22.8379  -29.3164  -37.9004 C.3       5 UNK         0.0242 
     36 CB         23.2769  -29.3925  -36.4215 C.3       5 UNK        -0.1982 
     37 C          24.0359  -29.3262  -38.8794 C.2       5 UNK         0.5017 
     38 O          25.0582  -29.9384  -38.5652 O.2       5 UNK        -0.5012 
     39 N          23.8955  -28.6767  -40.0436 N.am      6 UNK        -0.4439 
     40 CA         24.8700  -28.6616  -41.1341 C.3       6 UNK         0.0297 
     41 CB         25.2804  -27.2031  -41.4058 C.3       6 UNK        -0.2006 
     42 C          24.2699  -29.3028  -42.3960 C.2       6 UNK         0.4892 
     43 O          23.0611  -29.5440  -42.4633 O.2       6 UNK        -0.5089 
     44 N          25.1420  -29.5519  -43.3846 N.am      7 UNK        -0.4243 
     45 CA         24.8594  -30.1872  -44.6767 C.3       7 UNK         0.0196 
     46 CB         23.9808  -29.2756  -45.5627 C.3       7 UNK        -0.2007 
     47 C          24.3108  -31.6133  -44.4886 C.2       7 UNK         0.5020 
     48 O          25.0457  -32.4710  -43.9980 O.2       7 UNK        -0.5147 
     49 N          23.0495  -31.8494  -44.8730 N.am      8 UNK        -0.4734 
     50 CA         22.3626  -33.1309  -44.6895 C.3       8 UNK         0.0238 
     51 CB         21.1949  -33.2283  -45.6852 C.3       8 UNK        -0.1912 
     52 C          21.8662  -33.3485  -43.2482 C.2       8 UNK         0.5038 
     53 O          21.5703  -34.4894  -42.8898 O.2       8 UNK        -0.5046 
     54 N          21.7677  -32.2710  -42.4586 N.am      9 UNK        -0.4200 
     55 CA         21.3952  -32.3052  -41.0409 C.3       9 UNK         0.0839 
     56 C          22.5725  -32.7436  -40.1247 C.2       9 UNK         0.5513 
     57 N          22.2845  -33.0969  -38.8798 N.am      9 UNK        -0.7519 
     58 O          23.7380  -32.7503  -40.5139 O.2       9 UNK        -0.4960 
     59 C59        20.7756  -30.9491  -40.6128 C.3       10 UNK        -0.0876 
     60 S60        19.5236  -31.1153  -39.2912 S.3       10 UNK        -0.2414 
     61 C61        18.0679  -31.7341  -40.2042 C.3       10 UNK         0.0169 
     62 H62        16.3215  -27.7660  -50.2439 H         1 UNK         0.0903 
     63 H63        15.9732  -27.9992  -48.5300 H         1 UNK         0.0903 
     64 H64        16.0497  -26.3685  -49.1996 H         1 UNK         0.0903 
     65 H65        17.7883  -28.4559  -47.3162 H         1 UNK         0.3096 
     66 H66        20.4717  -27.7747  -48.2987 H         1 UNK         0.1121 
     67 H67        19.7599  -30.1436  -47.4004 H         1 UNK         0.0849 
     68 H68        21.3106  -29.4869  -47.0375 H         1 UNK         0.0849 
     69 H69        17.6650  -29.6563  -45.7107 H         1 UNK         0.0865 
     70 H70        18.2517  -31.2521  -45.2981 H         1 UNK         0.0865 
     71 H71        18.5672  -31.8772  -42.8812 H         1 UNK         0.1346 
     72 H72        16.6890  -29.4089  -39.9209 H         1 UNK         0.1412 
     73 H73        16.8971  -28.0886  -43.9955 H         1 UNK         0.1426 
     74 H74        15.1575  -27.5132  -40.9124 H         1 UNK         0.0716 
     75 H75        15.6974  -26.7535  -42.3910 H         1 UNK         0.0716 
     76 H76        18.7449  -24.7907  -41.6119 H         1 UNK         0.0695 
     77 H77        17.9330  -25.7841  -42.7791 H         1 UNK         0.0695 
     78 H78        19.3589  -27.7853  -41.8769 H         1 UNK         0.0983 
     79 H79        20.5048  -27.4759  -43.7320 H         1 UNK         0.3095 
     80 H80        21.6183  -24.6482  -45.5387 H         1 UNK         0.0454 
     81 H81        23.4086  -26.7122  -44.1497 H         1 UNK         0.0851 
     82 H82        23.6015  -24.9706  -44.0814 H         1 UNK         0.0851 
     83 H83        23.8313  -25.8055  -45.6074 H         1 UNK         0.0851 
     84 H84        21.9661  -27.3792  -46.1318 H         1 UNK         0.2976 
     85 H85        19.2076  -26.2627  -39.4629 H         1 UNK         0.3116 
     86 H86        20.2630  -25.9969  -37.5016 H         1 UNK         0.0646 
     87 H87        22.1769  -24.3670  -39.2528 H         1 UNK         0.0847 
     88 H88        21.9007  -24.1349  -37.5314 H         1 UNK         0.0847 
     89 H89        20.6067  -23.8148  -38.6720 H         1 UNK         0.0847 
     90 H90        20.9730  -28.4830  -38.4541 H         1 UNK         0.3040 
     91 H91        22.2863  -30.2344  -38.1022 H         1 UNK         0.1015 
     92 H92        22.4176  -29.3878  -35.7511 H         1 UNK         0.0786 
     93 H93        23.9248  -28.5603  -36.1452 H         1 UNK         0.0786 
     94 H94        23.8314  -30.3111  -36.2257 H         1 UNK         0.0786 
     95 H95        23.0313  -28.1785  -40.2456 H         1 UNK         0.3172 
     96 H96        25.7602  -29.2319  -40.8616 H         1 UNK         0.0595 
     97 H97        24.4372  -26.6030  -41.7493 H         1 UNK         0.0839 
     98 H98        26.0551  -27.1424  -42.1707 H         1 UNK         0.0839 
     99 H99        25.6778  -26.7315  -40.5068 H         1 UNK         0.0839 
    100 H100       26.1162  -29.3438  -43.2150 H         1 UNK         0.2998 
    101 H101       25.8199  -30.3015  -45.1818 H         1 UNK         0.0822 
    102 H102       24.4834  -28.3282  -45.7555 H         1 UNK         0.0787 
    103 H103       23.7913  -29.7344  -46.5341 H         1 UNK         0.0787 
    104 H104       23.0199  -29.0542  -45.0992 H         1 UNK         0.0787 
    105 H105       22.5002  -31.0827  -45.2345 H         1 UNK         0.3055 
    106 H106       23.0648  -33.9376  -44.9127 H         1 UNK         0.1106 
    107 H107       20.7135  -34.2053  -45.6244 H         1 UNK         0.0828 
    108 H108       20.4294  -32.4795  -45.4864 H         1 UNK         0.0828 
    109 H109       21.5345  -33.0995  -46.7130 H         1 UNK         0.0828 
    110 H110       22.1099  -31.3792  -42.7994 H         1 UNK         0.2931 
    111 H111       20.6264  -33.0740  -40.9458 H         1 UNK         0.0412 
    112 H112       23.0293  -33.3855  -38.2650 H         1 UNK         0.3472 
    113 H113       21.3329  -33.0779  -38.5459 H         1 UNK         0.3472 
    114 H114       21.5487  -30.2539  -40.2932 H         1 UNK         0.0970 
    115 H115       20.3186  -30.4449  -41.4630 H         1 UNK         0.0970 
    116 H116       17.2461  -31.8817  -39.5022 H         1 UNK         0.0612 
    117 H117       18.2888  -32.7148  -40.6275 H         1 UNK         0.0612 
@<TRIPOS>BOND
     1    1    2 1    
     2    1   62 1    
     3    1   63 1    
     4    1   64 1    
     5    2    3 2    
     6    2    4 am   BACKBONE|DICT|INTERRES
     7    4    5 1    
     8    4   65 1    
     9    5    6 1    
    10    5   25 1    
    11    5   66 1    
    12    6    7 1    
    13    6   67 1    
    14    6   68 1    
    15    7    8 1    
    16    8    9 1    
    17    8   69 1    
    18    8   70 1    
    19    9   10 ar   
    20    9   14 ar   
    21   10   11 ar   
    22   10   71 1    
    23   11   12 ar   
    24   11   61 1    
    25   12   13 ar   
    26   12   72 1    
    27   13   14 ar   
    28   13   15 1    
    29   14   73 1    
    30   15   16 1    
    31   15   74 1    
    32   15   75 1    
    33   16   17 1    
    34   17   18 1    
    35   17   76 1    
    36   17   77 1    
    37   18   19 1    
    38   18   27 1    
    39   18   78 1    
    40   19   20 am   BACKBONE|DICT|INTERRES
    41   19   79 1    
    42   20   21 2    
    43   20   22 1    
    44   22   23 1    
    45   22   24 1    
    46   22   80 1    
    47   23   81 1    
    48   23   82 1    
    49   23   83 1    
    50   24   25 am   BACKBONE|DICT|INTERRES
    51   24   84 1    
    52   25   26 2    
    53   27   28 2    
    54   27   29 am   BACKBONE|DICT|INTERRES
    55   29   30 1    
    56   29   85 1    
    57   30   31 1    
    58   30   32 1    
    59   30   86 1    
    60   31   87 1    
    61   31   88 1    
    62   31   89 1    
    63   32   33 2    
    64   32   34 am   BACKBONE|DICT|INTERRES
    65   34   35 1    
    66   34   90 1    
    67   35   36 1    
    68   35   37 1    
    69   35   91 1    
    70   36   92 1    
    71   36   93 1    
    72   36   94 1    
    73   37   38 2    
    74   37   39 am   BACKBONE|DICT|INTERRES
    75   39   40 1    
    76   39   95 1    
    77   40   41 1    
    78   40   42 1    
    79   40   96 1    
    80   41   97 1    
    81   41   98 1    
    82   41   99 1    
    83   42   43 2    
    84   42   44 am   BACKBONE|DICT|INTERRES
    85   44   45 1    
    86   44  100 1    
    87   45   46 1    
    88   45   47 1    
    89   45  101 1    
    90   46  102 1    
    91   46  103 1    
    92   46  104 1    
    93   47   48 2    
    94   47   49 am   BACKBONE|DICT|INTERRES
    95   49   50 1    
    96   49  105 1    
    97   50   51 1    
    98   50   52 1    
    99   50  106 1    
   100   51  107 1    
   101   51  108 1    
   102   51  109 1    
   103   52   53 2    
   104   52   54 am   BACKBONE|DICT|INTERRES
   105   54   55 1    
   106   54  110 1    
   107   55   56 1    
   108   55   59 1    
   109   55  111 1    
   110   56   57 am   BACKBONE|DICT|INTERRES
   111   56   58 2    
   112   57  112 1    
   113   57  113 1    
   114   59   60 1    
   115   59  114 1    
   116   59  115 1    
   117   60   61 1    
   118   61  116 1    
   119   61  117 1    
@<TRIPOS>SUBSTRUCTURE
     1 UNK         1 GROUP             0       ****    0 ROOT    
