@<TRIPOS>MOLECULE
3R8
117   119    1
SMALL
USER_CHARGES


@<TRIPOS>ATOM
      1 CA         20.1502  -25.8828  -48.9323 C.3       0 UNK        -0.2013 
      2 C          19.8074  -26.3190  -47.5163 C.2       0 UNK         0.4866 
      3 O          20.6934  -26.7361  -46.7712 O.2       0 UNK        -0.5176 
      4 N          18.5314  -26.2090  -47.1275 N.am      1 UNK        -0.4884 
      5 CA         17.9773  -26.6179  -45.8269 C.3       1 UNK         0.0853 
      6 C6         16.4564  -26.9109  -45.9378 C.3       10 UNK        -0.0849 
      7 S7         16.1035  -28.2729  -47.1063 S.3       10 UNK        -0.2776 
      8 C8         15.6242  -29.6366  -45.9940 C.3       10 UNK         0.0316 
      9 C9         16.7363  -30.0006  -45.0205 C.ar      10 UNK        -0.0863 
     10 C10        17.8285  -30.7642  -45.4434 C.ar      10 UNK        -0.1009 
     11 C11        18.8601  -31.0805  -44.5535 C.ar      10 UNK        -0.0712 
     12 C12        18.7990  -30.6066  -43.2379 C.ar      10 UNK        -0.0894 
     13 C13        17.7052  -29.8559  -42.7966 C.ar      10 UNK        -0.0745 
     14 C14        16.6703  -29.5713  -43.6923 C.ar      10 UNK        -0.0972 
     15 C15        17.6318  -29.3828  -41.3488 C.3       10 UNK         0.0209 
     16 S16        17.2156  -27.6105  -41.2190 S.3       10 UNK        -0.2568 
     17 C17        18.3966  -27.0471  -39.9523 C.3       10 UNK        -0.0983 
     18 CA         19.7568  -26.6571  -40.5760 C.3       3 UNK         0.0876 
     19 N          19.6150  -25.6196  -41.6113 N.am      3 UNK        -0.4424 
     20 C          20.5844  -25.1376  -42.3992 C.2       2 UNK         0.4918 
     21 O          21.7816  -25.3852  -42.2420 O.2       2 UNK        -0.4875 
     22 CA         20.1270  -24.2964  -43.5988 C.3       2 UNK         0.0481 
     23 CB         21.2813  -23.4856  -44.2149 C.3       2 UNK        -0.1831 
     24 N          19.5778  -25.1870  -44.6198 N.am      2 UNK        -0.4498 
     25 C          18.3078  -25.6027  -44.7036 C.2       1 UNK         0.5027 
     26 O          17.4244  -25.2065  -43.9411 O.2       1 UNK        -0.4969 
     27 C          20.8014  -26.3755  -39.4765 C.2       3 UNK         0.5005 
     28 O          21.2526  -27.3257  -38.8382 O.2       3 UNK        -0.5279 
     29 N          21.2180  -25.1121  -39.3061 N.am      4 UNK        -0.4463 
     30 CA         22.3531  -24.7122  -38.4664 C.3       4 UNK         0.0283 
     31 CB         22.4694  -23.1796  -38.4677 C.3       4 UNK        -0.1875 
     32 C          23.6928  -25.3522  -38.8896 C.2       4 UNK         0.4949 
     33 O          24.5551  -25.5517  -38.0336 O.2       4 UNK        -0.5039 
     34 N          23.8332  -25.6741  -40.1833 N.am      5 UNK        -0.4663 
     35 CA         24.9674  -26.4064  -40.7500 C.3       5 UNK         0.0242 
     36 CB         25.7145  -25.4943  -41.7370 C.3       5 UNK        -0.1982 
     37 C          24.5194  -27.6986  -41.4519 C.2       5 UNK         0.5017 
     38 O          25.2291  -28.7017  -41.3711 O.2       5 UNK        -0.5012 
     39 N          23.3637  -27.6623  -42.1335 N.am      6 UNK        -0.4439 
     40 CA         22.8624  -28.7401  -42.9914 C.3       6 UNK         0.0297 
     41 CB         21.7094  -28.2194  -43.8650 C.3       6 UNK        -0.2006 
     42 C          22.4338  -30.0162  -42.2518 C.2       6 UNK         0.4892 
     43 O          22.3758  -31.0631  -42.8922 O.2       6 UNK        -0.5089 
     44 N          22.1701  -29.9430  -40.9359 N.am      7 UNK        -0.4243 
     45 CA         21.7500  -31.0741  -40.0893 C.3       7 UNK         0.0196 
     46 CB         21.4982  -30.5794  -38.6571 C.3       7 UNK        -0.2007 
     47 C          22.7036  -32.2876  -40.0845 C.2       7 UNK         0.5020 
     48 O          22.2834  -33.3845  -39.7137 O.2       7 UNK        -0.5147 
     49 N          23.9444  -32.0922  -40.5523 N.am      8 UNK        -0.4734 
     50 CA         24.9212  -33.1370  -40.8658 C.3       8 UNK         0.0238 
     51 CB         26.2323  -32.4677  -41.3097 C.3       8 UNK        -0.1912 
     52 C          24.4542  -34.1621  -41.9230 C.2       8 UNK         0.5038 
     53 O          25.0495  -35.2388  -41.9899 O.2       8 UNK        -0.5046 
     54 N          23.4113  -33.8447  -42.7104 N.am      9 UNK        -0.4200 
     55 CA         22.7394  -34.7975  -43.6115 C.3       9 UNK         0.0839 
     56 C          22.0138  -35.9799  -42.8973 C.2       9 UNK         0.5513 
     57 N          21.7424  -35.9102  -41.5978 N.am      9 UNK        -0.7519 
     58 O          21.7040  -36.9823  -43.5363 O.2       9 UNK        -0.4960 
     59 C59        21.8288  -34.0906  -44.6560 C.3       10 UNK        -0.0876 
     60 S60        20.2732  -33.4039  -43.9804 S.3       10 UNK        -0.2414 
     61 C61        20.0452  -31.9206  -45.0158 C.3       10 UNK         0.0169 
     62 H62        20.5839  -26.7155  -49.4852 H         1 UNK         0.0903 
     63 H63        19.2722  -25.5351  -49.4763 H         1 UNK         0.0903 
     64 H64        20.8786  -25.0727  -48.9090 H         1 UNK         0.0903 
     65 H65        17.8527  -25.8448  -47.7814 H         1 UNK         0.3096 
     66 H66        18.4653  -27.5499  -45.5299 H         1 UNK         0.1121 
     67 H67        15.9222  -26.0210  -46.2753 H         1 UNK         0.0849 
     68 H68        16.0307  -27.1570  -44.9641 H         1 UNK         0.0849 
     69 H69        14.7146  -29.3610  -45.4577 H         1 UNK         0.0865 
     70 H70        15.3671  -30.5101  -46.5950 H         1 UNK         0.0865 
     71 H71        17.8749  -31.1062  -46.4685 H         1 UNK         0.1346 
     72 H72        19.6002  -30.8472  -42.5540 H         1 UNK         0.1412 
     73 H73        15.8179  -28.9972  -43.3554 H         1 UNK         0.1426 
     74 H74        18.5789  -29.5783  -40.8434 H         1 UNK         0.0716 
     75 H75        16.8753  -29.9642  -40.8205 H         1 UNK         0.0716 
     76 H76        17.9583  -26.1937  -39.4316 H         1 UNK         0.0695 
     77 H77        18.5115  -27.8341  -39.2037 H         1 UNK         0.0695 
     78 H78        20.1337  -27.5404  -41.0937 H         1 UNK         0.0983 
     79 H79        18.6599  -25.3880  -41.8542 H         1 UNK         0.3095 
     80 H80        19.3624  -23.5950  -43.2587 H         1 UNK         0.0454 
     81 H81        21.7327  -22.8242  -43.4743 H         1 UNK         0.0851 
     82 H82        22.0718  -24.1308  -44.6009 H         1 UNK         0.0851 
     83 H83        20.9306  -22.8608  -45.0363 H         1 UNK         0.0851 
     84 H84        20.2367  -25.5976  -45.2764 H         1 UNK         0.2976 
     85 H85        20.7939  -24.3930  -39.8740 H         1 UNK         0.3116 
     86 H86        22.1412  -25.0404  -37.4467 H         1 UNK         0.0646 
     87 H87        23.2906  -22.8508  -37.8291 H         1 UNK         0.0847 
     88 H88        21.5609  -22.7105  -38.0895 H         1 UNK         0.0847 
     89 H89        22.6599  -22.7894  -39.4684 H         1 UNK         0.0847 
     90 H90        23.0696  -25.4555  -40.8161 H         1 UNK         0.3040 
     91 H91        25.6643  -26.6998  -39.9616 H         1 UNK         0.1015 
     92 H92        26.1053  -24.6085  -41.2359 H         1 UNK         0.0786 
     93 H93        25.0669  -25.1607  -42.5491 H         1 UNK         0.0786 
     94 H94        26.5626  -26.0138  -42.1853 H         1 UNK         0.0786 
     95 H95        22.8444  -26.7876  -42.1723 H         1 UNK         0.3172 
     96 H96        23.6790  -29.0219  -43.6595 H         1 UNK         0.0595 
     97 H97        21.9937  -27.3145  -44.4019 H         1 UNK         0.0839 
     98 H98        20.8156  -28.0020  -43.2820 H         1 UNK         0.0839 
     99 H99        21.4258  -28.9570  -44.6165 H         1 UNK         0.0839 
    100 H100       22.2718  -29.0496  -40.4742 H         1 UNK         0.2998 
    101 H101       20.8018  -31.4380  -40.4895 H         1 UNK         0.0822 
    102 H102       20.6627  -29.8807  -38.6237 H         1 UNK         0.0787 
    103 H103       21.2457  -31.4059  -37.9911 H         1 UNK         0.0787 
    104 H104       22.3744  -30.0799  -38.2419 H         1 UNK         0.0787 
    105 H105       24.1899  -31.1531  -40.8358 H         1 UNK         0.3055 
    106 H106       25.1103  -33.6951  -39.9464 H         1 UNK         0.1106 
    107 H107       26.0937  -31.8715  -42.2128 H         1 UNK         0.0828 
    108 H108       26.6272  -31.8121  -40.5332 H         1 UNK         0.0828 
    109 H109       27.0004  -33.2122  -41.5241 H         1 UNK         0.0828 
    110 H110       22.9846  -32.9261  -42.6292 H         1 UNK         0.2931 
    111 H111       23.5405  -35.2652  -44.1874 H         1 UNK         0.0412 
    112 H112       21.2773  -36.6828  -41.1482 H         1 UNK         0.3472 
    113 H113       21.9774  -35.0822  -41.0648 H         1 UNK         0.3472 
    114 H114       21.5655  -34.7911  -45.4505 H         1 UNK         0.0970 
    115 H115       22.3920  -33.2939  -45.1444 H         1 UNK         0.0970 
    116 H116       19.9126  -32.2390  -46.0508 H         1 UNK         0.0612 
    117 H117       20.9455  -31.3081  -44.9965 H         1 UNK         0.0612 
@<TRIPOS>BOND
     1    1    2 1    
     2    1   62 1    
     3    1   63 1    
     4    1   64 1    
     5    2    3 2    
     6    2    4 am   BACKBONE|DICT|INTERRES
     7    4    5 1    
     8    4   65 1    
     9    5    6 1    
    10    5   25 1    
    11    5   66 1    
    12    6    7 1    
    13    6   67 1    
    14    6   68 1    
    15    7    8 1    
    16    8    9 1    
    17    8   69 1    
    18    8   70 1    
    19    9   10 ar   
    20    9   14 ar   
    21   10   11 ar   
    22   10   71 1    
    23   11   12 ar   
    24   11   61 1    
    25   12   13 ar   
    26   12   72 1    
    27   13   14 ar   
    28   13   15 1    
    29   14   73 1    
    30   15   16 1    
    31   15   74 1    
    32   15   75 1    
    33   16   17 1    
    34   17   18 1    
    35   17   76 1    
    36   17   77 1    
    37   18   19 1    
    38   18   27 1    
    39   18   78 1    
    40   19   20 am   BACKBONE|DICT|INTERRES
    41   19   79 1    
    42   20   21 2    
    43   20   22 1    
    44   22   23 1    
    45   22   24 1    
    46   22   80 1    
    47   23   81 1    
    48   23   82 1    
    49   23   83 1    
    50   24   25 am   BACKBONE|DICT|INTERRES
    51   24   84 1    
    52   25   26 2    
    53   27   28 2    
    54   27   29 am   BACKBONE|DICT|INTERRES
    55   29   30 1    
    56   29   85 1    
    57   30   31 1    
    58   30   32 1    
    59   30   86 1    
    60   31   87 1    
    61   31   88 1    
    62   31   89 1    
    63   32   33 2    
    64   32   34 am   BACKBONE|DICT|INTERRES
    65   34   35 1    
    66   34   90 1    
    67   35   36 1    
    68   35   37 1    
    69   35   91 1    
    70   36   92 1    
    71   36   93 1    
    72   36   94 1    
    73   37   38 2    
    74   37   39 am   BACKBONE|DICT|INTERRES
    75   39   40 1    
    76   39   95 1    
    77   40   41 1    
    78   40   42 1    
    79   40   96 1    
    80   41   97 1    
    81   41   98 1    
    82   41   99 1    
    83   42   43 2    
    84   42   44 am   BACKBONE|DICT|INTERRES
    85   44   45 1    
    86   44  100 1    
    87   45   46 1    
    88   45   47 1    
    89   45  101 1    
    90   46  102 1    
    91   46  103 1    
    92   46  104 1    
    93   47   48 2    
    94   47   49 am   BACKBONE|DICT|INTERRES
    95   49   50 1    
    96   49  105 1    
    97   50   51 1    
    98   50   52 1    
    99   50  106 1    
   100   51  107 1    
   101   51  108 1    
   102   51  109 1    
   103   52   53 2    
   104   52   54 am   BACKBONE|DICT|INTERRES
   105   54   55 1    
   106   54  110 1    
   107   55   56 1    
   108   55   59 1    
   109   55  111 1    
   110   56   57 am   BACKBONE|DICT|INTERRES
   111   56   58 2    
   112   57  112 1    
   113   57  113 1    
   114   59   60 1    
   115   59  114 1    
   116   59  115 1    
   117   60   61 1    
   118   61  116 1    
   119   61  117 1    
@<TRIPOS>SUBSTRUCTURE
     1 UNK         1 GROUP             0       ****    0 ROOT    
