@<TRIPOS>MOLECULE
3R8
117   119    1
SMALL
USER_CHARGES


@<TRIPOS>ATOM
      1 CA         20.9785  -31.0676  -48.1919 C.3       0 UNK        -0.2013 
      2 C          20.0199  -29.9904  -47.7062 C.2       0 UNK         0.4866 
      3 O          19.5895  -29.1558  -48.5028 O.2       0 UNK        -0.5176 
      4 N          19.6806  -30.0116  -46.4105 N.am      1 UNK        -0.4884 
      5 CA         18.8086  -29.0500  -45.7266 C.3       1 UNK         0.0853 
      6 C6         17.3237  -29.1505  -46.1952 C.3       10 UNK        -0.0849 
      7 S7         16.0769  -28.2644  -45.1833 S.3       10 UNK        -0.2776 
      8 C8         15.7132  -29.4147  -43.8195 C.3       10 UNK         0.0316 
      9 C9         16.6692  -29.2162  -42.6516 C.ar      10 UNK        -0.0863 
     10 C10        17.7192  -30.1103  -42.4431 C.ar      10 UNK        -0.1009 
     11 C11        18.6138  -29.9347  -41.3829 C.ar      10 UNK        -0.0712 
     12 C12        18.4342  -28.8544  -40.5119 C.ar      10 UNK        -0.0894 
     13 C13        17.4007  -27.9348  -40.7227 C.ar      10 UNK        -0.0745 
     14 C14        16.5111  -28.1325  -41.7840 C.ar      10 UNK        -0.0972 
     15 C15        17.2537  -26.7137  -39.8233 C.3       10 UNK         0.0209 
     16 S16        17.4994  -25.1556  -40.7429 S.3       10 UNK        -0.2568 
     17 C17        19.3192  -25.0085  -40.8355 C.3       10 UNK        -0.0983 
     18 CA         19.9792  -25.9021  -41.9212 C.3       3 UNK         0.0876 
     19 N          19.3445  -25.8150  -43.2382 N.am      3 UNK        -0.4424 
     20 C          19.4465  -24.8368  -44.1490 C.2       2 UNK         0.4918 
     21 O          19.9722  -23.7450  -43.9299 O.2       2 UNK        -0.4875 
     22 CA         18.9090  -25.1591  -45.5630 C.3       2 UNK         0.0481 
     23 CB         19.8536  -24.6374  -46.6653 C.3       2 UNK        -0.1831 
     24 N          18.6052  -26.5853  -45.7765 N.am      2 UNK        -0.4498 
     25 C          19.4382  -27.6356  -45.6933 C.2       1 UNK         0.5027 
     26 O          20.6487  -27.5212  -45.4809 O.2       1 UNK        -0.4969 
     27 C          21.5181  -25.7545  -41.9825 C.2       3 UNK         0.5005 
     28 O          22.1179  -25.2755  -41.0179 O.2       3 UNK        -0.5279 
     29 N          22.1379  -26.1738  -43.1013 N.am      4 UNK        -0.4463 
     30 CA         23.5743  -26.0619  -43.3729 C.3       4 UNK         0.0283 
     31 CB         23.8724  -26.5563  -44.7959 C.3       4 UNK        -0.1875 
     32 C          24.4115  -26.8069  -42.3214 C.2       4 UNK         0.4949 
     33 O          24.3624  -28.0390  -42.2553 O.2       4 UNK        -0.5039 
     34 N          25.0700  -26.0193  -41.4555 N.am      5 UNK        -0.4663 
     35 CA         25.8098  -26.4127  -40.2449 C.3       5 UNK         0.0242 
     36 CB         27.0929  -27.1754  -40.6361 C.3       5 UNK        -0.1982 
     37 C          24.9691  -27.1931  -39.2086 C.2       5 UNK         0.5017 
     38 O          25.5431  -27.8141  -38.3132 O.2       5 UNK        -0.5012 
     39 N          23.6356  -27.1913  -39.3787 N.am      6 UNK        -0.4439 
     40 CA         22.6466  -28.0837  -38.7610 C.3       6 UNK         0.0297 
     41 CB         22.4348  -27.7085  -37.2802 C.3       6 UNK        -0.2006 
     42 C          22.9608  -29.5868  -38.9573 C.2       6 UNK         0.4892 
     43 O          22.5489  -30.3993  -38.1277 O.2       6 UNK        -0.5089 
     44 N          23.6971  -29.9285  -40.0269 N.am      7 UNK        -0.4243 
     45 CA         24.3056  -31.2469  -40.2253 C.3       7 UNK         0.0196 
     46 CB         25.8303  -31.1101  -40.0750 C.3       7 UNK        -0.2007 
     47 C          23.9652  -31.8841  -41.5784 C.2       7 UNK         0.5020 
     48 O          24.1662  -33.0897  -41.7262 O.2       7 UNK        -0.5147 
     49 N          23.4613  -31.1072  -42.5475 N.am      8 UNK        -0.4734 
     50 CA         23.1079  -31.5732  -43.8963 C.3       8 UNK         0.0238 
     51 CB         23.1188  -30.3669  -44.8510 C.3       8 UNK        -0.1912 
     52 C          21.7726  -32.3474  -43.9423 C.2       8 UNK         0.5038 
     53 O          20.8951  -32.0079  -44.7400 O.2       8 UNK        -0.5046 
     54 N          21.6245  -33.3426  -43.0631 N.am      9 UNK        -0.4200 
     55 CA         20.4395  -34.1876  -42.8863 C.3       9 UNK         0.0839 
     56 C          20.7617  -35.4413  -42.0313 C.2       9 UNK         0.5513 
     57 N          19.8724  -36.4251  -42.0151 N.am      9 UNK        -0.7519 
     58 O          21.8037  -35.5375  -41.3858 O.2       9 UNK        -0.4960 
     59 C59        19.1967  -33.4011  -42.3781 C.3       10 UNK        -0.0876 
     60 S60        19.4032  -32.5623  -40.7609 S.3       10 UNK        -0.2414 
     61 C61        19.8232  -30.8490  -41.2238 C.3       10 UNK         0.0169 
     62 H62        21.1568  -31.8280  -47.4320 H         1 UNK         0.0903 
     63 H63        20.5719  -31.5632  -49.0730 H         1 UNK         0.0903 
     64 H64        21.9360  -30.6230  -48.4615 H         1 UNK         0.0903 
     65 H65        20.0996  -30.7197  -45.8081 H         1 UNK         0.3096 
     66 H66        18.8382  -29.3667  -44.6876 H         1 UNK         0.1121 
     67 H67        17.0290  -30.2002  -46.2385 H         1 UNK         0.0849 
     68 H68        17.2342  -28.7875  -47.2205 H         1 UNK         0.0849 
     69 H69        14.6926  -29.2376  -43.4766 H         1 UNK         0.0865 
     70 H70        15.7343  -30.4448  -44.1787 H         1 UNK         0.0865 
     71 H71        17.8433  -30.9244  -43.1364 H         1 UNK         0.1346 
     72 H72        19.1260  -28.7031  -39.6945 H         1 UNK         0.1412 
     73 H73        15.7099  -27.4248  -41.9504 H         1 UNK         0.1426 
     74 H74        17.9442  -26.7549  -38.9794 H         1 UNK         0.0716 
     75 H75        16.2495  -26.7127  -39.3972 H         1 UNK         0.0716 
     76 H76        19.7309  -25.2337  -39.8499 H         1 UNK         0.0695 
     77 H77        19.5530  -23.9600  -41.0280 H         1 UNK         0.0695 
     78 H78        19.8418  -26.9350  -41.6133 H         1 UNK         0.0983 
     79 H79        18.8389  -26.6414  -43.5189 H         1 UNK         0.3095 
     80 H80        17.9601  -24.6294  -45.6566 H         1 UNK         0.0454 
     81 H81        20.8498  -25.0736  -46.5859 H         1 UNK         0.0851 
     82 H82        19.9689  -23.5546  -46.6036 H         1 UNK         0.0851 
     83 H83        19.4671  -24.8636  -47.6589 H         1 UNK         0.0851 
     84 H84        17.6216  -26.8025  -45.8940 H         1 UNK         0.2976 
     85 H85        21.5780  -26.5835  -43.8421 H         1 UNK         0.3116 
     86 H86        23.8300  -25.0009  -43.3360 H         1 UNK         0.0646 
     87 H87        23.3716  -25.9388  -45.5418 H         1 UNK         0.0847 
     88 H88        24.9416  -26.5218  -45.0089 H         1 UNK         0.0847 
     89 H89        23.5417  -27.5820  -44.9440 H         1 UNK         0.0847 
     90 H90        24.9776  -25.0203  -41.5849 H         1 UNK         0.3040 
     91 H91        26.1085  -25.4878  -39.7489 H         1 UNK         0.1015 
     92 H92        26.8666  -28.1299  -41.1110 H         1 UNK         0.0786 
     93 H93        27.7117  -27.3848  -39.7626 H         1 UNK         0.0786 
     94 H94        27.7024  -26.5947  -41.3285 H         1 UNK         0.0786 
     95 H95        23.2668  -26.5730  -40.0974 H         1 UNK         0.3172 
     96 H96        21.7079  -27.9018  -39.2861 H         1 UNK         0.0595 
     97 H97        23.3218  -27.9171  -36.6812 H         1 UNK         0.0839 
     98 H98        21.6084  -28.2721  -36.8454 H         1 UNK         0.0839 
     99 H99        22.1960  -26.6508  -37.1694 H         1 UNK         0.0839 
    100 H100       23.9820  -29.1984  -40.6738 H         1 UNK         0.2998 
    101 H101       23.9535  -31.9455  -39.4634 H         1 UNK         0.0822 
    102 H102       26.3222  -32.0799  -40.1615 H         1 UNK         0.0787 
    103 H103       26.2520  -30.4602  -40.8424 H         1 UNK         0.0787 
    104 H104       26.0973  -30.6963  -39.1022 H         1 UNK         0.0787 
    105 H105       23.3574  -30.1166  -42.3719 H         1 UNK         0.3055 
    106 H106       23.8804  -32.2666  -44.2368 H         1 UNK         0.1106 
    107 H107       22.9314  -30.6752  -45.8797 H         1 UNK         0.0828 
    108 H108       22.3551  -29.6354  -44.5833 H         1 UNK         0.0828 
    109 H109       24.0878  -29.8680  -44.8390 H         1 UNK         0.0828 
    110 H110       22.4005  -33.5640  -42.4437 H         1 UNK         0.2931 
    111 H111       20.2010  -34.5717  -43.8802 H         1 UNK         0.0412 
    112 H112       20.0640  -37.2477  -41.4642 H         1 UNK         0.3472 
    113 H113       19.0169  -36.3674  -42.5455 H         1 UNK         0.3472 
    114 H114       18.9173  -32.6822  -43.1411 H         1 UNK         0.0970 
    115 H115       18.3361  -34.0668  -42.2983 H         1 UNK         0.0970 
    116 H116       20.3987  -30.8307  -42.1457 H         1 UNK         0.0612 
    117 H117       20.4892  -30.4570  -40.4548 H         1 UNK         0.0612 
@<TRIPOS>BOND
     1    1    2 1    
     2    1   62 1    
     3    1   63 1    
     4    1   64 1    
     5    2    3 2    
     6    2    4 am   BACKBONE|DICT|INTERRES
     7    4    5 1    
     8    4   65 1    
     9    5    6 1    
    10    5   25 1    
    11    5   66 1    
    12    6    7 1    
    13    6   67 1    
    14    6   68 1    
    15    7    8 1    
    16    8    9 1    
    17    8   69 1    
    18    8   70 1    
    19    9   10 ar   
    20    9   14 ar   
    21   10   11 ar   
    22   10   71 1    
    23   11   12 ar   
    24   11   61 1    
    25   12   13 ar   
    26   12   72 1    
    27   13   14 ar   
    28   13   15 1    
    29   14   73 1    
    30   15   16 1    
    31   15   74 1    
    32   15   75 1    
    33   16   17 1    
    34   17   18 1    
    35   17   76 1    
    36   17   77 1    
    37   18   19 1    
    38   18   27 1    
    39   18   78 1    
    40   19   20 am   BACKBONE|DICT|INTERRES
    41   19   79 1    
    42   20   21 2    
    43   20   22 1    
    44   22   23 1    
    45   22   24 1    
    46   22   80 1    
    47   23   81 1    
    48   23   82 1    
    49   23   83 1    
    50   24   25 am   BACKBONE|DICT|INTERRES
    51   24   84 1    
    52   25   26 2    
    53   27   28 2    
    54   27   29 am   BACKBONE|DICT|INTERRES
    55   29   30 1    
    56   29   85 1    
    57   30   31 1    
    58   30   32 1    
    59   30   86 1    
    60   31   87 1    
    61   31   88 1    
    62   31   89 1    
    63   32   33 2    
    64   32   34 am   BACKBONE|DICT|INTERRES
    65   34   35 1    
    66   34   90 1    
    67   35   36 1    
    68   35   37 1    
    69   35   91 1    
    70   36   92 1    
    71   36   93 1    
    72   36   94 1    
    73   37   38 2    
    74   37   39 am   BACKBONE|DICT|INTERRES
    75   39   40 1    
    76   39   95 1    
    77   40   41 1    
    78   40   42 1    
    79   40   96 1    
    80   41   97 1    
    81   41   98 1    
    82   41   99 1    
    83   42   43 2    
    84   42   44 am   BACKBONE|DICT|INTERRES
    85   44   45 1    
    86   44  100 1    
    87   45   46 1    
    88   45   47 1    
    89   45  101 1    
    90   46  102 1    
    91   46  103 1    
    92   46  104 1    
    93   47   48 2    
    94   47   49 am   BACKBONE|DICT|INTERRES
    95   49   50 1    
    96   49  105 1    
    97   50   51 1    
    98   50   52 1    
    99   50  106 1    
   100   51  107 1    
   101   51  108 1    
   102   51  109 1    
   103   52   53 2    
   104   52   54 am   BACKBONE|DICT|INTERRES
   105   54   55 1    
   106   54  110 1    
   107   55   56 1    
   108   55   59 1    
   109   55  111 1    
   110   56   57 am   BACKBONE|DICT|INTERRES
   111   56   58 2    
   112   57  112 1    
   113   57  113 1    
   114   59   60 1    
   115   59  114 1    
   116   59  115 1    
   117   60   61 1    
   118   61  116 1    
   119   61  117 1    
@<TRIPOS>SUBSTRUCTURE
     1 UNK         1 GROUP             0       ****    0 ROOT    
