@<TRIPOS>MOLECULE
3R8
117   119    1
SMALL
USER_CHARGES


@<TRIPOS>ATOM
      1 CA         13.5910  -23.5512  -42.3490 C.3       0 UNK        -0.2013 
      2 C          14.1841  -24.6980  -43.1530 C.2       0 UNK         0.4866 
      3 O          14.0685  -25.8537  -42.7442 O.2       0 UNK        -0.5176 
      4 N          14.8299  -24.3870  -44.2859 N.am      1 UNK        -0.4884 
      5 CA         15.4796  -25.3004  -45.2413 C.3       1 UNK         0.0853 
      6 C6         14.5237  -26.3878  -45.8043 C.3       10 UNK        -0.0849 
      7 S7         15.0303  -26.9857  -47.4526 S.3       10 UNK        -0.2776 
      8 C8         15.2532  -28.7768  -47.1754 C.3       10 UNK         0.0316 
      9 C9         16.6145  -29.1545  -46.5949 C.ar      10 UNK        -0.0863 
     10 C10        16.6954  -29.9682  -45.4585 C.ar      10 UNK        -0.1009 
     11 C11        17.9345  -30.4153  -44.9830 C.ar      10 UNK        -0.0712 
     12 C12        19.0977  -30.0411  -45.6627 C.ar      10 UNK        -0.0894 
     13 C13        19.0391  -29.1939  -46.7704 C.ar      10 UNK        -0.0745 
     14 C14        17.7940  -28.7619  -47.2378 C.ar      10 UNK        -0.0972 
     15 C15        20.3191  -28.7727  -47.4795 C.3       10 UNK         0.0209 
     16 S16        21.0521  -27.2711  -46.7492 S.3       10 UNK        -0.2568 
     17 C17        21.9166  -27.9155  -45.2735 C.3       10 UNK        -0.0983 
     18 CA         21.4132  -27.2787  -43.9506 C.3       3 UNK         0.0876 
     19 N          19.9879  -27.5244  -43.7288 N.am      3 UNK        -0.4424 
     20 C          19.1780  -26.8041  -42.9454 C.2       2 UNK         0.4918 
     21 O          19.5326  -25.8033  -42.3174 O.2       2 UNK        -0.4875 
     22 CA         17.7332  -27.3140  -42.8268 C.3       2 UNK         0.0481 
     23 CB         17.3347  -27.4882  -41.3522 C.3       2 UNK        -0.1831 
     24 N          16.7291  -26.4899  -43.5007 N.am      2 UNK        -0.4498 
     25 C          16.7896  -25.9192  -44.7127 C.2       1 UNK         0.5027 
     26 O          17.7969  -25.8652  -45.4173 O.2       1 UNK        -0.4969 
     27 C          22.2293  -27.7504  -42.7270 C.2       3 UNK         0.5005 
     28 O          23.0115  -28.6978  -42.8270 O.2       3 UNK        -0.5279 
     29 N          22.0280  -27.0849  -41.5795 N.am      4 UNK        -0.4463 
     30 CA         22.6462  -27.3898  -40.2822 C.3       4 UNK         0.0283 
     31 CB         22.1046  -26.4224  -39.2194 C.3       4 UNK        -0.1875 
     32 C          24.1854  -27.3781  -40.2875 C.2       4 UNK         0.4949 
     33 O          24.7932  -28.0882  -39.4854 O.2       4 UNK        -0.5039 
     34 N          24.7795  -26.6335  -41.2325 N.am      5 UNK        -0.4663 
     35 CA         26.2131  -26.5903  -41.5423 C.3       5 UNK         0.0242 
     36 CB         26.4508  -25.5463  -42.6454 C.3       5 UNK        -0.1982 
     37 C          26.8253  -27.9473  -41.9468 C.2       5 UNK         0.5017 
     38 O          28.0444  -28.0962  -41.8662 O.2       5 UNK        -0.5012 
     39 N          25.9850  -28.9259  -42.3188 N.am      6 UNK        -0.4439 
     40 CA         26.3530  -30.3321  -42.5184 C.3       6 UNK         0.0297 
     41 CB         25.2495  -31.0148  -43.3473 C.3       6 UNK        -0.2006 
     42 C          26.6032  -31.1067  -41.2024 C.2       6 UNK         0.4892 
     43 O          26.8035  -32.3200  -41.2645 O.2       6 UNK        -0.5089 
     44 N          26.5679  -30.4118  -40.0528 N.am      7 UNK        -0.4243 
     45 CA         26.6025  -30.9185  -38.6763 C.3       7 UNK         0.0196 
     46 CB         27.8793  -31.7380  -38.3866 C.3       7 UNK        -0.2007 
     47 C          25.2948  -31.6566  -38.3473 C.2       7 UNK         0.5020 
     48 O          25.3276  -32.8026  -37.8971 O.2       7 UNK        -0.5147 
     49 N          24.1780  -30.9554  -38.6021 N.am      8 UNK        -0.4734 
     50 CA         22.7802  -31.4058  -38.5909 C.3       8 UNK         0.0238 
     51 CB         22.3715  -32.0258  -37.2389 C.3       8 UNK        -0.1912 
     52 C          22.4878  -32.3491  -39.7718 C.2       8 UNK         0.5038 
     53 O          23.0129  -33.4626  -39.8214 O.2       8 UNK        -0.5046 
     54 N          21.6512  -31.8822  -40.7061 N.am      9 UNK        -0.4200 
     55 CA         21.2615  -32.6115  -41.9236 C.3       9 UNK         0.0839 
     56 C          20.3202  -33.8349  -41.7097 C.2       9 UNK         0.5513 
     57 N          19.7501  -34.0409  -40.5285 N.am      9 UNK        -0.7519 
     58 O          20.1115  -34.6150  -42.6352 O.2       9 UNK        -0.4960 
     59 C59        20.7264  -31.6427  -43.0086 C.3       10 UNK        -0.0876 
     60 S60        19.2109  -30.7466  -42.5070 S.3       10 UNK        -0.2414 
     61 C61        18.0010  -31.3169  -43.7514 C.3       10 UNK         0.0169 
     62 H62        14.0313  -23.5251  -41.3526 H         1 UNK         0.0903 
     63 H63        13.7661  -22.5855  -42.8228 H         1 UNK         0.0903 
     64 H64        12.5150  -23.6861  -42.2425 H         1 UNK         0.0903 
     65 H65        14.9076  -23.4094  -44.5338 H         1 UNK         0.3096 
     66 H66        15.7669  -24.6550  -46.0738 H         1 UNK         0.1121 
     67 H67        13.5212  -25.9727  -45.9187 H         1 UNK         0.0849 
     68 H68        14.4166  -27.2228  -45.1091 H         1 UNK         0.0849 
     69 H69        14.4401  -29.1512  -46.5515 H         1 UNK         0.0865 
     70 H70        15.1470  -29.2838  -48.1354 H         1 UNK         0.0865 
     71 H71        15.7884  -30.2765  -44.9564 H         1 UNK         0.1346 
     72 H72        20.0572  -30.4012  -45.3269 H         1 UNK         0.1412 
     73 H73        17.7407  -28.1281  -48.1125 H         1 UNK         0.1426 
     74 H74        20.1066  -28.5756  -48.5313 H         1 UNK         0.0716 
     75 H75        21.0481  -29.5844  -47.4693 H         1 UNK         0.0716 
     76 H76        22.9789  -27.7026  -45.4080 H         1 UNK         0.0695 
     77 H77        21.8381  -29.0022  -45.2378 H         1 UNK         0.0695 
     78 H78        21.5623  -26.1997  -44.0331 H         1 UNK         0.0983 
     79 H79        19.5947  -28.3098  -44.2282 H         1 UNK         0.3095 
     80 H80        17.6782  -28.2953  -43.2936 H         1 UNK         0.0454 
     81 H81        16.3619  -27.9708  -41.2576 H         1 UNK         0.0851 
     82 H82        17.2867  -26.5306  -40.8323 H         1 UNK         0.0851 
     83 H83        18.0568  -28.1121  -40.8236 H         1 UNK         0.0851 
     84 H84        15.8275  -26.4207  -43.0351 H         1 UNK         0.2976 
     85 H85        21.3214  -26.3550  -41.5899 H         1 UNK         0.3116 
     86 H86        22.3358  -28.4003  -40.0121 H         1 UNK         0.0646 
     87 H87        22.3540  -25.3864  -39.4522 H         1 UNK         0.0847 
     88 H88        22.5237  -26.6457  -38.2371 H         1 UNK         0.0847 
     89 H89        21.0204  -26.4951  -39.1307 H         1 UNK         0.0847 
     90 H90        24.1782  -26.0912  -41.8352 H         1 UNK         0.3040 
     91 H91        26.7331  -26.2641  -40.6389 H         1 UNK         0.1015 
     92 H92        25.9326  -25.8098  -43.5685 H         1 UNK         0.0786 
     93 H93        27.5127  -25.4606  -42.8812 H         1 UNK         0.0786 
     94 H94        26.1103  -24.5573  -42.3377 H         1 UNK         0.0786 
     95 H95        24.9924  -28.7152  -42.3826 H         1 UNK         0.3172 
     96 H96        27.2800  -30.3649  -43.0943 H         1 UNK         0.0595 
     97 H97        24.3132  -31.0816  -42.7913 H         1 UNK         0.0839 
     98 H98        25.5357  -32.0305  -43.6232 H         1 UNK         0.0839 
     99 H99        25.0510  -30.4733  -44.2725 H         1 UNK         0.0839 
    100 H100       26.3430  -29.4269  -40.1259 H         1 UNK         0.2998 
    101 H101       26.6299  -30.0395  -38.0300 H         1 UNK         0.0822 
    102 H102       28.7773  -31.1803  -38.6520 H         1 UNK         0.0787 
    103 H103       27.9487  -31.9804  -37.3256 H         1 UNK         0.0787 
    104 H104       27.8959  -32.6819  -38.9319 H         1 UNK         0.0787 
    105 H105       24.3173  -30.0109  -38.9487 H         1 UNK         0.3055 
    106 H106       22.1792  -30.5041  -38.7172 H         1 UNK         0.1106 
    107 H107       21.2981  -32.2165  -37.2105 H         1 UNK         0.0828 
    108 H108       22.8690  -32.9783  -37.0547 H         1 UNK         0.0828 
    109 H109       22.6048  -31.3591  -36.4088 H         1 UNK         0.0828 
    110 H110       21.2280  -30.9730  -40.5948 H         1 UNK         0.2931 
    111 H111       22.1829  -33.0358  -42.3281 H         1 UNK         0.0412 
    112 H112       19.1467  -34.8385  -40.4031 H         1 UNK         0.3472 
    113 H113       19.9129  -33.4053  -39.7649 H         1 UNK         0.3472 
    114 H114       20.5564  -32.1873  -43.9387 H         1 UNK         0.0970 
    115 H115       21.4928  -30.9032  -43.2444 H         1 UNK         0.0970 
    116 H116       17.0257  -31.3524  -43.2638 H         1 UNK         0.0612 
    117 H117       18.2233  -32.3402  -44.0562 H         1 UNK         0.0612 
@<TRIPOS>BOND
     1    1    2 1    
     2    1   62 1    
     3    1   63 1    
     4    1   64 1    
     5    2    3 2    
     6    2    4 am   BACKBONE|DICT|INTERRES
     7    4    5 1    
     8    4   65 1    
     9    5    6 1    
    10    5   25 1    
    11    5   66 1    
    12    6    7 1    
    13    6   67 1    
    14    6   68 1    
    15    7    8 1    
    16    8    9 1    
    17    8   69 1    
    18    8   70 1    
    19    9   10 ar   
    20    9   14 ar   
    21   10   11 ar   
    22   10   71 1    
    23   11   12 ar   
    24   11   61 1    
    25   12   13 ar   
    26   12   72 1    
    27   13   14 ar   
    28   13   15 1    
    29   14   73 1    
    30   15   16 1    
    31   15   74 1    
    32   15   75 1    
    33   16   17 1    
    34   17   18 1    
    35   17   76 1    
    36   17   77 1    
    37   18   19 1    
    38   18   27 1    
    39   18   78 1    
    40   19   20 am   BACKBONE|DICT|INTERRES
    41   19   79 1    
    42   20   21 2    
    43   20   22 1    
    44   22   23 1    
    45   22   24 1    
    46   22   80 1    
    47   23   81 1    
    48   23   82 1    
    49   23   83 1    
    50   24   25 am   BACKBONE|DICT|INTERRES
    51   24   84 1    
    52   25   26 2    
    53   27   28 2    
    54   27   29 am   BACKBONE|DICT|INTERRES
    55   29   30 1    
    56   29   85 1    
    57   30   31 1    
    58   30   32 1    
    59   30   86 1    
    60   31   87 1    
    61   31   88 1    
    62   31   89 1    
    63   32   33 2    
    64   32   34 am   BACKBONE|DICT|INTERRES
    65   34   35 1    
    66   34   90 1    
    67   35   36 1    
    68   35   37 1    
    69   35   91 1    
    70   36   92 1    
    71   36   93 1    
    72   36   94 1    
    73   37   38 2    
    74   37   39 am   BACKBONE|DICT|INTERRES
    75   39   40 1    
    76   39   95 1    
    77   40   41 1    
    78   40   42 1    
    79   40   96 1    
    80   41   97 1    
    81   41   98 1    
    82   41   99 1    
    83   42   43 2    
    84   42   44 am   BACKBONE|DICT|INTERRES
    85   44   45 1    
    86   44  100 1    
    87   45   46 1    
    88   45   47 1    
    89   45  101 1    
    90   46  102 1    
    91   46  103 1    
    92   46  104 1    
    93   47   48 2    
    94   47   49 am   BACKBONE|DICT|INTERRES
    95   49   50 1    
    96   49  105 1    
    97   50   51 1    
    98   50   52 1    
    99   50  106 1    
   100   51  107 1    
   101   51  108 1    
   102   51  109 1    
   103   52   53 2    
   104   52   54 am   BACKBONE|DICT|INTERRES
   105   54   55 1    
   106   54  110 1    
   107   55   56 1    
   108   55   59 1    
   109   55  111 1    
   110   56   57 am   BACKBONE|DICT|INTERRES
   111   56   58 2    
   112   57  112 1    
   113   57  113 1    
   114   59   60 1    
   115   59  114 1    
   116   59  115 1    
   117   60   61 1    
   118   61  116 1    
   119   61  117 1    
@<TRIPOS>SUBSTRUCTURE
     1 UNK         1 GROUP             0       ****    0 ROOT    
