@<TRIPOS>MOLECULE
3R8
117   119    1
SMALL
USER_CHARGES


@<TRIPOS>ATOM
      1 CA         23.2155  -28.8269  -44.1172 C.3       0 UNK        -0.2013 
      2 C          21.7822  -28.3724  -44.3432 C.2       0 UNK         0.4866 
      3 O          21.0288  -28.2270  -43.3793 O.2       0 UNK        -0.5176 
      4 N          21.4023  -28.1514  -45.6082 N.am      1 UNK        -0.4884 
      5 CA         20.0626  -27.7227  -46.0201 C.3       1 UNK         0.0853 
      6 C6         19.8942  -27.8456  -47.5607 C.3       10 UNK        -0.0849 
      7 S7         18.2416  -27.3880  -48.2056 S.3       10 UNK        -0.2776 
      8 C8         17.3428  -28.9706  -48.1837 C.3       10 UNK         0.0316 
      9 C9         17.2451  -29.5594  -46.7833 C.ar      10 UNK        -0.0863 
     10 C10        18.0082  -30.6817  -46.4500 C.ar      10 UNK        -0.1009 
     11 C11        17.9215  -31.2471  -45.1765 C.ar      10 UNK        -0.0712 
     12 C12        17.0569  -30.6852  -44.2338 C.ar      10 UNK        -0.0894 
     13 C13        16.2969  -29.5524  -44.5453 C.ar      10 UNK        -0.0745 
     14 C14        16.3917  -28.9959  -45.8265 C.ar      10 UNK        -0.0972 
     15 C15        15.3215  -28.9833  -43.5201 C.3       10 UNK         0.0209 
     16 S16        16.1002  -28.6371  -41.9040 S.3       10 UNK        -0.2568 
     17 C17        16.5422  -26.8695  -42.0152 C.3       10 UNK        -0.0983 
     18 CA         18.0694  -26.6195  -42.1092 C.3       3 UNK         0.0876 
     19 N          18.4062  -25.2079  -42.2878 N.am      3 UNK        -0.4424 
     20 C          18.3373  -24.4022  -43.3560 C.2       2 UNK         0.4918 
     21 O          18.7187  -23.2348  -43.2778 O.2       2 UNK        -0.4875 
     22 CA         17.7667  -24.9140  -44.7000 C.3       2 UNK         0.0481 
     23 CB         17.7645  -23.8295  -45.7993 C.3       2 UNK        -0.1831 
     24 N          18.4161  -26.1259  -45.2003 N.am      2 UNK        -0.4498 
     25 C          19.7123  -26.3146  -45.4879 C.2       1 UNK         0.5027 
     26 O          20.5900  -25.4550  -45.3770 O.2       1 UNK        -0.4969 
     27 C          18.8203  -27.0172  -40.8274 C.2       3 UNK         0.5005 
     28 O          18.7435  -26.2781  -39.8414 O.2       3 UNK        -0.5279 
     29 N          19.5760  -28.1240  -40.8869 N.am      4 UNK        -0.4463 
     30 CA         20.5801  -28.5523  -39.9015 C.3       4 UNK         0.0283 
     31 CB         19.9351  -28.8861  -38.5396 C.3       4 UNK        -0.1875 
     32 C          21.7285  -27.5281  -39.7950 C.2       4 UNK         0.4949 
     33 O          22.1992  -27.2242  -38.6984 O.2       4 UNK        -0.5039 
     34 N          22.1362  -26.9901  -40.9528 N.am      5 UNK        -0.4663 
     35 CA         23.1190  -25.9107  -41.0898 C.3       5 UNK         0.0242 
     36 CB         22.7908  -25.1144  -42.3658 C.3       5 UNK        -0.1982 
     37 C          24.5813  -26.3984  -41.0944 C.2       5 UNK         0.5017 
     38 O          25.4857  -25.5824  -41.2772 O.2       5 UNK        -0.5012 
     39 N          24.7949  -27.7045  -40.9099 N.am      6 UNK        -0.4439 
     40 CA         26.0907  -28.3725  -40.8537 C.3       6 UNK         0.0297 
     41 CB         26.5323  -28.7550  -42.2826 C.3       6 UNK        -0.2006 
     42 C          25.9664  -29.5869  -39.9195 C.2       6 UNK         0.4892 
     43 O          24.9964  -29.6803  -39.1634 O.2       6 UNK        -0.5089 
     44 N          26.9382  -30.5072  -39.9928 N.am      7 UNK        -0.4243 
     45 CA         26.8875  -31.8111  -39.3199 C.3       7 UNK         0.0196 
     46 CB         28.2776  -32.4656  -39.3725 C.3       7 UNK        -0.2007 
     47 C          25.8232  -32.7507  -39.9216 C.2       7 UNK         0.5020 
     48 O          25.3114  -33.6191  -39.2144 O.2       7 UNK        -0.5147 
     49 N          25.5104  -32.5575  -41.2096 N.am      8 UNK        -0.4734 
     50 CA         24.4029  -33.2054  -41.9102 C.3       8 UNK         0.0238 
     51 CB         24.7000  -33.1911  -43.4197 C.3       8 UNK        -0.1912 
     52 C          23.0758  -32.4822  -41.6251 C.2       8 UNK         0.5038 
     53 O          23.0831  -31.2864  -41.3213 O.2       8 UNK        -0.5046 
     54 N          21.9679  -33.2149  -41.7946 N.am      9 UNK        -0.4200 
     55 CA         20.5785  -32.7542  -41.6252 C.3       9 UNK         0.0839 
     56 C          20.1871  -32.4690  -40.1445 C.2       9 UNK         0.5513 
     57 N          18.9351  -32.1112  -39.8910 N.am      9 UNK        -0.7519 
     58 O          20.9786  -32.6098  -39.2150 O.2       9 UNK        -0.4960 
     59 C59        20.2020  -31.5891  -42.5895 C.3       10 UNK        -0.0876 
     60 S60        20.4409  -32.0358  -44.3432 S.3       10 UNK        -0.2414 
     61 C61        18.7475  -32.4786  -44.8379 C.3       10 UNK         0.0169 
     62 H62        23.8064  -28.0165  -43.6938 H         1 UNK         0.0903 
     63 H63        23.2357  -29.6646  -43.4217 H         1 UNK         0.0903 
     64 H64        23.6908  -29.1491  -45.0432 H         1 UNK         0.0903 
     65 H65        22.0783  -28.2535  -46.3512 H         1 UNK         0.3096 
     66 H66        19.3756  -28.4226  -45.5427 H         1 UNK         0.1121 
     67 H67        20.1191  -28.8652  -47.8780 H         1 UNK         0.0849 
     68 H68        20.6271  -27.2115  -48.0631 H         1 UNK         0.0849 
     69 H69        17.8284  -29.6682  -48.8681 H         1 UNK         0.0865 
     70 H70        16.3379  -28.8117  -48.5777 H         1 UNK         0.0865 
     71 H71        18.6732  -31.1201  -47.1820 H         1 UNK         0.1346 
     72 H72        16.9643  -31.1344  -43.2549 H         1 UNK         0.1412 
     73 H73        15.7895  -28.1363  -46.0892 H         1 UNK         0.1426 
     74 H74        14.5321  -29.7196  -43.3638 H         1 UNK         0.0716 
     75 H75        14.8238  -28.0894  -43.8984 H         1 UNK         0.0716 
     76 H76        16.1289  -26.3618  -41.1415 H         1 UNK         0.0695 
     77 H77        16.0267  -26.4360  -42.8691 H         1 UNK         0.0695 
     78 H78        18.4824  -27.2076  -42.9267 H         1 UNK         0.0983 
     79 H79        18.7772  -24.8154  -41.4312 H         1 UNK         0.3095 
     80 H80        16.7239  -25.1714  -44.5227 H         1 UNK         0.0454 
     81 H81        18.7726  -23.4854  -46.0328 H         1 UNK         0.0851 
     82 H82        17.1873  -22.9578  -45.4886 H         1 UNK         0.0851 
     83 H83        17.3169  -24.2006  -46.7213 H         1 UNK         0.0851 
     84 H84        17.7922  -26.9029  -45.3671 H         1 UNK         0.2976 
     85 H85        19.6433  -28.5878  -41.7858 H         1 UNK         0.3116 
     86 H86        21.0243  -29.4696  -40.2896 H         1 UNK         0.0646 
     87 H87        19.5892  -27.9918  -38.0207 H         1 UNK         0.0847 
     88 H88        20.6526  -29.3828  -37.8855 H         1 UNK         0.0847 
     89 H89        19.0832  -29.5546  -38.6556 H         1 UNK         0.0847 
     90 H90        21.7102  -27.3296  -41.8120 H         1 UNK         0.3040 
     91 H91        23.0165  -25.2358  -40.2371 H         1 UNK         0.1015 
     92 H92        22.9097  -25.7187  -43.2652 H         1 UNK         0.0786 
     93 H93        23.4449  -24.2476  -42.4681 H         1 UNK         0.0786 
     94 H94        21.7658  -24.7424  -42.3505 H         1 UNK         0.0786 
     95 H95        24.0083  -28.2940  -40.6661 H         1 UNK         0.3172 
     96 H96        26.8281  -27.6980  -40.4138 H         1 UNK         0.0595 
     97 H97        27.5477  -29.1513  -42.2984 H         1 UNK         0.0839 
     98 H98        26.5261  -27.8879  -42.9433 H         1 UNK         0.0839 
     99 H99        25.8744  -29.5074  -42.7192 H         1 UNK         0.0839 
    100 H100       27.7206  -30.3436  -40.6101 H         1 UNK         0.2998 
    101 H101       26.6253  -31.6456  -38.2725 H         1 UNK         0.0822 
    102 H102       28.2749  -33.4265  -38.8557 H         1 UNK         0.0787 
    103 H103       28.6008  -32.6486  -40.3981 H         1 UNK         0.0787 
    104 H104       29.0292  -31.8417  -38.8883 H         1 UNK         0.0787 
    105 H105       25.9565  -31.7921  -41.6911 H         1 UNK         0.3055 
    106 H106       24.3225  -34.2411  -41.5716 H         1 UNK         0.1106 
    107 H107       23.9103  -33.6937  -43.9801 H         1 UNK         0.0828 
    108 H108       24.7740  -32.1741  -43.8075 H         1 UNK         0.0828 
    109 H109       25.6336  -33.7064  -43.6461 H         1 UNK         0.0828 
    110 H110       22.0668  -34.1883  -42.0419 H         1 UNK         0.2931 
    111 H111       19.9715  -33.6158  -41.9066 H         1 UNK         0.0412 
    112 H112       18.2475  -32.0342  -40.6226 H         1 UNK         0.3472 
    113 H113       18.6630  -31.9521  -38.9339 H         1 UNK         0.3472 
    114 H114       20.8069  -30.7077  -42.3805 H         1 UNK         0.0970 
    115 H115       19.1711  -31.2711  -42.4433 H         1 UNK         0.0970 
    116 H116       18.7994  -33.1323  -45.7098 H         1 UNK         0.0612 
    117 H117       18.2712  -33.0632  -44.0492 H         1 UNK         0.0612 
@<TRIPOS>BOND
     1    1    2 1    
     2    1   62 1    
     3    1   63 1    
     4    1   64 1    
     5    2    3 2    
     6    2    4 am   BACKBONE|DICT|INTERRES
     7    4    5 1    
     8    4   65 1    
     9    5    6 1    
    10    5   25 1    
    11    5   66 1    
    12    6    7 1    
    13    6   67 1    
    14    6   68 1    
    15    7    8 1    
    16    8    9 1    
    17    8   69 1    
    18    8   70 1    
    19    9   10 ar   
    20    9   14 ar   
    21   10   11 ar   
    22   10   71 1    
    23   11   12 ar   
    24   11   61 1    
    25   12   13 ar   
    26   12   72 1    
    27   13   14 ar   
    28   13   15 1    
    29   14   73 1    
    30   15   16 1    
    31   15   74 1    
    32   15   75 1    
    33   16   17 1    
    34   17   18 1    
    35   17   76 1    
    36   17   77 1    
    37   18   19 1    
    38   18   27 1    
    39   18   78 1    
    40   19   20 am   BACKBONE|DICT|INTERRES
    41   19   79 1    
    42   20   21 2    
    43   20   22 1    
    44   22   23 1    
    45   22   24 1    
    46   22   80 1    
    47   23   81 1    
    48   23   82 1    
    49   23   83 1    
    50   24   25 am   BACKBONE|DICT|INTERRES
    51   24   84 1    
    52   25   26 2    
    53   27   28 2    
    54   27   29 am   BACKBONE|DICT|INTERRES
    55   29   30 1    
    56   29   85 1    
    57   30   31 1    
    58   30   32 1    
    59   30   86 1    
    60   31   87 1    
    61   31   88 1    
    62   31   89 1    
    63   32   33 2    
    64   32   34 am   BACKBONE|DICT|INTERRES
    65   34   35 1    
    66   34   90 1    
    67   35   36 1    
    68   35   37 1    
    69   35   91 1    
    70   36   92 1    
    71   36   93 1    
    72   36   94 1    
    73   37   38 2    
    74   37   39 am   BACKBONE|DICT|INTERRES
    75   39   40 1    
    76   39   95 1    
    77   40   41 1    
    78   40   42 1    
    79   40   96 1    
    80   41   97 1    
    81   41   98 1    
    82   41   99 1    
    83   42   43 2    
    84   42   44 am   BACKBONE|DICT|INTERRES
    85   44   45 1    
    86   44  100 1    
    87   45   46 1    
    88   45   47 1    
    89   45  101 1    
    90   46  102 1    
    91   46  103 1    
    92   46  104 1    
    93   47   48 2    
    94   47   49 am   BACKBONE|DICT|INTERRES
    95   49   50 1    
    96   49  105 1    
    97   50   51 1    
    98   50   52 1    
    99   50  106 1    
   100   51  107 1    
   101   51  108 1    
   102   51  109 1    
   103   52   53 2    
   104   52   54 am   BACKBONE|DICT|INTERRES
   105   54   55 1    
   106   54  110 1    
   107   55   56 1    
   108   55   59 1    
   109   55  111 1    
   110   56   57 am   BACKBONE|DICT|INTERRES
   111   56   58 2    
   112   57  112 1    
   113   57  113 1    
   114   59   60 1    
   115   59  114 1    
   116   59  115 1    
   117   60   61 1    
   118   61  116 1    
   119   61  117 1    
@<TRIPOS>SUBSTRUCTURE
     1 UNK         1 GROUP             0       ****    0 ROOT    
