@<TRIPOS>MOLECULE
3R8
117   119    1
SMALL
USER_CHARGES


@<TRIPOS>ATOM
      1 CA         15.9048  -24.1844  -48.5897 C.3       0 UNK        -0.2013 
      2 C          16.4004  -25.5780  -48.2329 C.2       0 UNK         0.4866 
      3 O          17.0211  -26.2388  -49.0666 O.2       0 UNK        -0.5176 
      4 N          16.1250  -26.0327  -47.0037 N.am      1 UNK        -0.4884 
      5 CA         16.5873  -27.3177  -46.4668 C.3       1 UNK         0.0853 
      6 C6         15.7097  -27.7686  -45.2702 C.3       10 UNK        -0.0849 
      7 S7         15.5249  -29.5806  -45.2093 S.3       10 UNK        -0.2776 
      8 C8         14.9558  -29.8236  -43.4968 C.3       10 UNK         0.0316 
      9 C9         16.1024  -29.7082  -42.5038 C.ar      10 UNK        -0.0863 
     10 C10        17.0709  -30.7121  -42.4471 C.ar      10 UNK        -0.1009 
     11 C11        18.1443  -30.6275  -41.5517 C.ar      10 UNK        -0.0712 
     12 C12        18.2134  -29.5304  -40.6860 C.ar      10 UNK        -0.0894 
     13 C13        17.2496  -28.5174  -40.7289 C.ar      10 UNK        -0.0745 
     14 C14        16.1962  -28.6119  -41.6433 C.ar      10 UNK        -0.0972 
     15 C15        17.3357  -27.3174  -39.7907 C.3       10 UNK         0.0209 
     16 S16        18.9265  -26.4270  -39.8872 S.3       10 UNK        -0.2568 
     17 C17        19.0938  -26.1104  -41.6764 C.3       10 UNK        -0.0983 
     18 CA         20.2846  -26.9072  -42.2711 C.3       3 UNK         0.0876 
     19 N          20.0191  -27.3196  -43.6454 N.am      3 UNK        -0.4424 
     20 C          20.5479  -28.3852  -44.2543 C.2       2 UNK         0.4918 
     21 O          21.2930  -29.1927  -43.6920 O.2       2 UNK        -0.4875 
     22 CA         20.1822  -28.5728  -45.7446 C.3       2 UNK         0.0481 
     23 CB         20.6496  -29.9304  -46.2998 C.3       2 UNK        -0.1831 
     24 N          18.7495  -28.4110  -46.0326 N.am      2 UNK        -0.4498 
     25 C          18.0837  -27.2489  -46.0893 C.2       1 UNK         0.5027 
     26 O          18.6018  -26.1595  -45.8254 O.2       1 UNK        -0.4969 
     27 C          21.5912  -26.0937  -42.2063 C.2       3 UNK         0.5005 
     28 O          21.8960  -25.3456  -43.1394 O.2       3 UNK        -0.5279 
     29 N          22.3114  -26.2259  -41.0894 N.am      4 UNK        -0.4463 
     30 CA         23.5494  -25.5336  -40.7400 C.3       4 UNK         0.0283 
     31 CB         24.6956  -25.9295  -41.6977 C.3       4 UNK        -0.1875 
     32 C          23.8832  -25.9025  -39.2869 C.2       4 UNK         0.4949 
     33 O          23.1684  -26.7083  -38.6837 O.2       4 UNK        -0.5039 
     34 N          24.9807  -25.3443  -38.7554 N.am      5 UNK        -0.4663 
     35 CA         25.5428  -25.7129  -37.4464 C.3       5 UNK         0.0242 
     36 CB         26.6874  -24.7509  -37.0894 C.3       5 UNK        -0.1982 
     37 C          26.0257  -27.1765  -37.3941 C.2       5 UNK         0.5017 
     38 O          25.9300  -27.8147  -36.3456 O.2       5 UNK        -0.5012 
     39 N          26.4873  -27.6801  -38.5440 N.am      6 UNK        -0.4439 
     40 CA         26.7110  -29.0894  -38.8380 C.3       6 UNK         0.0297 
     41 CB         28.2134  -29.3347  -39.0703 C.3       6 UNK        -0.2006 
     42 C          25.8582  -29.3946  -40.0758 C.2       6 UNK         0.4892 
     43 O          26.3564  -29.3095  -41.1997 O.2       6 UNK        -0.5089 
     44 N          24.5611  -29.6385  -39.8429 N.am      7 UNK        -0.4243 
     45 CA         23.5367  -29.8605  -40.8688 C.3       7 UNK         0.0196 
     46 CB         22.1652  -29.9405  -40.1844 C.3       7 UNK        -0.2007 
     47 C          23.8156  -31.1113  -41.7239 C.2       7 UNK         0.5020 
     48 O          24.4038  -32.0749  -41.2269 O.2       7 UNK        -0.5147 
     49 N          23.4021  -31.0649  -42.9954 N.am      8 UNK        -0.4734 
     50 CA         23.8580  -31.9877  -44.0420 C.3       8 UNK         0.0238 
     51 CB         24.6609  -31.1801  -45.0800 C.3       8 UNK        -0.1912 
     52 C          22.7223  -32.7878  -44.7018 C.2       8 UNK         0.5038 
     53 O          22.9481  -33.3769  -45.7607 O.2       8 UNK        -0.5046 
     54 N          21.5292  -32.8002  -44.0944 N.am      9 UNK        -0.4200 
     55 CA         20.3759  -33.5841  -44.5639 C.3       9 UNK         0.0839 
     56 C          20.5625  -35.1224  -44.4170 C.2       9 UNK         0.5513 
     57 N          19.8088  -35.9096  -45.1731 N.am      9 UNK        -0.7519 
     58 O          21.3600  -35.6085  -43.6168 O.2       9 UNK        -0.4960 
     59 C59        19.0443  -33.0743  -43.9543 C.3       10 UNK        -0.0876 
     60 S60        18.8715  -33.3203  -42.1498 S.3       10 UNK        -0.2414 
     61 C61        19.2721  -31.6604  -41.5115 C.3       10 UNK         0.0169 
     62 H62        15.3591  -23.7219  -47.7674 H         1 UNK         0.0903 
     63 H63        16.7469  -23.5406  -48.8420 H         1 UNK         0.0903 
     64 H64        15.2410  -24.2315  -49.4526 H         1 UNK         0.0903 
     65 H65        15.6467  -25.4293  -46.3498 H         1 UNK         0.3096 
     66 H66        16.4866  -28.0487  -47.2731 H         1 UNK         0.1121 
     67 H67        16.0956  -27.3913  -44.3208 H         1 UNK         0.0849 
     68 H68        14.7010  -27.3617  -45.3614 H         1 UNK         0.0849 
     69 H69        14.1610  -29.1118  -43.2679 H         1 UNK         0.0865 
     70 H70        14.5089  -30.8152  -43.4111 H         1 UNK         0.0865 
     71 H71        16.9766  -31.5493  -43.1212 H         1 UNK         0.1346 
     72 H72        19.0322  -29.4508  -39.9842 H         1 UNK         0.1412 
     73 H73        15.4471  -27.8329  -41.6844 H         1 UNK         0.1426 
     74 H74        17.1862  -27.6595  -38.7659 H         1 UNK         0.0716 
     75 H75        16.5329  -26.6076  -39.9967 H         1 UNK         0.0716 
     76 H76        19.1928  -25.0357  -41.8437 H         1 UNK         0.0695 
     77 H77        18.1611  -26.3883  -42.1694 H         1 UNK         0.0695 
     78 H78        20.4224  -27.8211  -41.6905 H         1 UNK         0.0983 
     79 H79        19.4828  -26.6760  -44.2192 H         1 UNK         0.3095 
     80 H80        20.7232  -27.7980  -46.2916 H         1 UNK         0.0454 
     81 H81        20.1560  -30.7615  -45.7987 H         1 UNK         0.0851 
     82 H82        21.7236  -30.0610  -46.1681 H         1 UNK         0.0851 
     83 H83        20.4479  -30.0146  -47.3676 H         1 UNK         0.0851 
     84 H84        18.2298  -29.2628  -46.1926 H         1 UNK         0.2976 
     85 H85        21.9696  -26.8082  -40.3316 H         1 UNK         0.3116 
     86 H86        23.3768  -24.4570  -40.7910 H         1 UNK         0.0646 
     87 H87        24.8805  -27.0027  -41.6853 H         1 UNK         0.0847 
     88 H88        25.6300  -25.4341  -41.4335 H         1 UNK         0.0847 
     89 H89        24.4784  -25.6461  -42.7271 H         1 UNK         0.0847 
     90 H90        25.4972  -24.6657  -39.2975 H         1 UNK         0.3040 
     91 H91        24.7540  -25.6036  -36.6985 H         1 UNK         0.1015 
     92 H92        26.3392  -23.7187  -37.0451 H         1 UNK         0.0786 
     93 H93        27.5011  -24.8014  -37.8141 H         1 UNK         0.0786 
     94 H94        27.1070  -24.9912  -36.1114 H         1 UNK         0.0786 
     95 H95        26.5050  -27.0652  -39.3454 H         1 UNK         0.3172 
     96 H96        26.3732  -29.7255  -38.0169 H         1 UNK         0.0595 
     97 H97        28.6114  -28.7097  -39.8709 H         1 UNK         0.0839 
     98 H98        28.3993  -30.3741  -39.3434 H         1 UNK         0.0839 
     99 H99        28.7897  -29.1269  -38.1687 H         1 UNK         0.0839 
    100 H100       24.2450  -29.6656  -38.8844 H         1 UNK         0.2998 
    101 H101       23.5428  -28.9887  -41.5258 H         1 UNK         0.0822 
    102 H102       22.0137  -29.1182  -39.4850 H         1 UNK         0.0787 
    103 H103       21.3723  -29.8719  -40.9242 H         1 UNK         0.0787 
    104 H104       22.0369  -30.8754  -39.6371 H         1 UNK         0.0787 
    105 H105       22.8182  -30.2878  -43.3004 H         1 UNK         0.3055 
    106 H106       24.5309  -32.7372  -43.6196 H         1 UNK         0.1106 
    107 H107       25.0721  -31.8263  -45.8567 H         1 UNK         0.0828 
    108 H108       24.0444  -30.4276  -45.5717 H         1 UNK         0.0828 
    109 H109       25.5030  -30.6679  -44.6138 H         1 UNK         0.0828 
    110 H110       21.4330  -32.3315  -43.2072 H         1 UNK         0.2931 
    111 H111       20.3070  -33.3950  -45.6375 H         1 UNK         0.0412 
    112 H112       19.1496  -35.5271  -45.8332 H         1 UNK         0.3472 
    113 H113       19.9064  -36.9096  -45.0873 H         1 UNK         0.3472 
    114 H114       18.9280  -32.0165  -44.1907 H         1 UNK         0.0970 
    115 H115       18.2005  -33.5690  -44.4384 H         1 UNK         0.0970 
    116 H116       19.6159  -31.7797  -40.4830 H         1 UNK         0.0612 
    117 H117       20.1137  -31.2710  -42.0823 H         1 UNK         0.0612 
@<TRIPOS>BOND
     1    1    2 1    
     2    1   62 1    
     3    1   63 1    
     4    1   64 1    
     5    2    3 2    
     6    2    4 am   BACKBONE|DICT|INTERRES
     7    4    5 1    
     8    4   65 1    
     9    5    6 1    
    10    5   25 1    
    11    5   66 1    
    12    6    7 1    
    13    6   67 1    
    14    6   68 1    
    15    7    8 1    
    16    8    9 1    
    17    8   69 1    
    18    8   70 1    
    19    9   10 ar   
    20    9   14 ar   
    21   10   11 ar   
    22   10   71 1    
    23   11   12 ar   
    24   11   61 1    
    25   12   13 ar   
    26   12   72 1    
    27   13   14 ar   
    28   13   15 1    
    29   14   73 1    
    30   15   16 1    
    31   15   74 1    
    32   15   75 1    
    33   16   17 1    
    34   17   18 1    
    35   17   76 1    
    36   17   77 1    
    37   18   19 1    
    38   18   27 1    
    39   18   78 1    
    40   19   20 am   BACKBONE|DICT|INTERRES
    41   19   79 1    
    42   20   21 2    
    43   20   22 1    
    44   22   23 1    
    45   22   24 1    
    46   22   80 1    
    47   23   81 1    
    48   23   82 1    
    49   23   83 1    
    50   24   25 am   BACKBONE|DICT|INTERRES
    51   24   84 1    
    52   25   26 2    
    53   27   28 2    
    54   27   29 am   BACKBONE|DICT|INTERRES
    55   29   30 1    
    56   29   85 1    
    57   30   31 1    
    58   30   32 1    
    59   30   86 1    
    60   31   87 1    
    61   31   88 1    
    62   31   89 1    
    63   32   33 2    
    64   32   34 am   BACKBONE|DICT|INTERRES
    65   34   35 1    
    66   34   90 1    
    67   35   36 1    
    68   35   37 1    
    69   35   91 1    
    70   36   92 1    
    71   36   93 1    
    72   36   94 1    
    73   37   38 2    
    74   37   39 am   BACKBONE|DICT|INTERRES
    75   39   40 1    
    76   39   95 1    
    77   40   41 1    
    78   40   42 1    
    79   40   96 1    
    80   41   97 1    
    81   41   98 1    
    82   41   99 1    
    83   42   43 2    
    84   42   44 am   BACKBONE|DICT|INTERRES
    85   44   45 1    
    86   44  100 1    
    87   45   46 1    
    88   45   47 1    
    89   45  101 1    
    90   46  102 1    
    91   46  103 1    
    92   46  104 1    
    93   47   48 2    
    94   47   49 am   BACKBONE|DICT|INTERRES
    95   49   50 1    
    96   49  105 1    
    97   50   51 1    
    98   50   52 1    
    99   50  106 1    
   100   51  107 1    
   101   51  108 1    
   102   51  109 1    
   103   52   53 2    
   104   52   54 am   BACKBONE|DICT|INTERRES
   105   54   55 1    
   106   54  110 1    
   107   55   56 1    
   108   55   59 1    
   109   55  111 1    
   110   56   57 am   BACKBONE|DICT|INTERRES
   111   56   58 2    
   112   57  112 1    
   113   57  113 1    
   114   59   60 1    
   115   59  114 1    
   116   59  115 1    
   117   60   61 1    
   118   61  116 1    
   119   61  117 1    
@<TRIPOS>SUBSTRUCTURE
     1 UNK         1 GROUP             0       ****    0 ROOT    
