@<TRIPOS>MOLECULE
3R8
117   119    1
SMALL
USER_CHARGES


@<TRIPOS>ATOM
      1 CA         14.7985  -23.3308  -45.7377 C.3       0 UNK        -0.2013 
      2 C          15.9763  -24.2865  -45.6265 C.2       0 UNK         0.4866 
      3 O          16.7583  -24.4111  -46.5699 O.2       0 UNK        -0.5176 
      4 N          16.1233  -24.9558  -44.4764 N.am      1 UNK        -0.4884 
      5 CA         17.1703  -25.9435  -44.1815 C.3       1 UNK         0.0853 
      6 C6         16.7442  -26.9057  -43.0396 C.3       10 UNK        -0.0849 
      7 S7         15.1936  -27.8222  -43.3511 S.3       10 UNK        -0.2776 
      8 C8         15.6705  -29.0837  -44.5839 C.3       10 UNK         0.0316 
      9 C9         16.9858  -29.7807  -44.2591 C.ar      10 UNK        -0.0863 
     10 C10        17.0818  -30.6605  -43.1776 C.ar      10 UNK        -0.1009 
     11 C11        18.2989  -31.2790  -42.8747 C.ar      10 UNK        -0.0712 
     12 C12        19.4247  -31.0069  -43.6592 C.ar      10 UNK        -0.0894 
     13 C13        19.3441  -30.1339  -44.7498 C.ar      10 UNK        -0.0745 
     14 C14        18.1126  -29.5365  -45.0477 C.ar      10 UNK        -0.0972 
     15 C15        20.5957  -29.8821  -45.5922 C.3       10 UNK         0.0209 
     16 S16        20.5900  -28.2977  -46.5008 S.3       10 UNK        -0.2568 
     17 C17        22.3162  -27.7287  -46.3106 C.3       10 UNK        -0.0983 
     18 CA         22.5116  -26.6971  -45.1686 C.3       3 UNK         0.0876 
     19 N          21.4860  -25.6522  -45.1985 N.am      3 UNK        -0.4424 
     20 C          21.5140  -24.4996  -44.5202 C.2       2 UNK         0.4918 
     21 O          22.4560  -24.1438  -43.8122 O.2       2 UNK        -0.4875 
     22 CA         20.2523  -23.6206  -44.6189 C.3       2 UNK         0.0481 
     23 CB         20.3795  -22.6260  -45.7828 C.3       2 UNK        -0.1831 
     24 N          19.0030  -24.3830  -44.7630 N.am      2 UNK        -0.4498 
     25 C          18.5346  -25.2755  -43.8786 C.2       1 UNK         0.5027 
     26 O          19.1479  -25.5734  -42.8537 O.2       1 UNK        -0.4969 
     27 C          22.6477  -27.3883  -43.7948 C.2       3 UNK         0.5005 
     28 O          23.7336  -27.8830  -43.4874 O.2       3 UNK        -0.5279 
     29 N          21.5896  -27.3854  -42.9662 N.am      4 UNK        -0.4463 
     30 CA         21.5712  -27.9989  -41.6298 C.3       4 UNK         0.0283 
     31 CB         20.1212  -28.1576  -41.1449 C.3       4 UNK        -0.1875 
     32 C          22.4325  -27.2615  -40.5832 C.2       4 UNK         0.4949 
     33 O          22.5430  -27.7320  -39.4517 O.2       4 UNK        -0.5039 
     34 N          23.0510  -26.1369  -40.9699 N.am      5 UNK        -0.4663 
     35 CA         24.1356  -25.4943  -40.2273 C.3       5 UNK         0.0242 
     36 CB         24.3406  -24.0727  -40.7745 C.3       5 UNK        -0.1982 
     37 C          25.4539  -26.2932  -40.2931 C.2       5 UNK         0.5017 
     38 O          26.2892  -26.1293  -39.4031 O.2       5 UNK        -0.5012 
     39 N          25.6211  -27.1250  -41.3329 N.am      6 UNK        -0.4439 
     40 CA         26.7886  -27.9814  -41.5529 C.3       6 UNK         0.0297 
     41 CB         27.4480  -27.6067  -42.8910 C.3       6 UNK        -0.2006 
     42 C          26.4053  -29.4694  -41.5392 C.2       6 UNK         0.4892 
     43 O          27.1160  -30.2670  -40.9257 O.2       6 UNK        -0.5089 
     44 N          25.3038  -29.8206  -42.2156 N.am      7 UNK        -0.4243 
     45 CA         24.7477  -31.1732  -42.2771 C.3       7 UNK         0.0196 
     46 CB         23.8564  -31.2713  -43.5270 C.3       7 UNK        -0.2007 
     47 C          23.9385  -31.5176  -41.0148 C.2       7 UNK         0.5020 
     48 O          23.6671  -30.6462  -40.1878 O.2       7 UNK        -0.5147 
     49 N          23.5266  -32.7836  -40.9095 N.am      8 UNK        -0.4734 
     50 CA         22.6276  -33.2833  -39.8731 C.3       8 UNK         0.0238 
     51 CB         23.4475  -33.8160  -38.6846 C.3       8 UNK        -0.1912 
     52 C          21.7481  -34.3830  -40.4769 C.2       8 UNK         0.5038 
     53 O          22.1973  -35.0833  -41.3887 O.2       8 UNK        -0.5046 
     54 N          20.5306  -34.5187  -39.9421 N.am      9 UNK        -0.4200 
     55 CA         19.5404  -35.5407  -40.3231 C.3       9 UNK         0.0839 
     56 C          19.3598  -36.6452  -39.2402 C.2       9 UNK         0.5513 
     57 N          20.1215  -36.6482  -38.1519 N.am      9 UNK        -0.7519 
     58 O          18.5237  -37.5314  -39.3963 O.2       9 UNK        -0.4960 
     59 C59        18.1851  -34.8908  -40.7149 C.3       10 UNK        -0.0876 
     60 S60        18.2832  -33.9654  -42.2844 S.3       10 UNK        -0.2414 
     61 C61        18.3969  -32.2459  -41.7048 C.3       10 UNK         0.0169 
     62 H62        15.1540  -22.3166  -45.9176 H         1 UNK         0.0903 
     63 H63        14.1587  -23.6207  -46.5708 H         1 UNK         0.0903 
     64 H64        14.1926  -23.3228  -44.8318 H         1 UNK         0.0903 
     65 H65        15.4570  -24.8047  -43.7318 H         1 UNK         0.3096 
     66 H66        17.3259  -26.5480  -45.0773 H         1 UNK         0.1121 
     67 H67        16.6072  -26.3440  -42.1136 H         1 UNK         0.0849 
     68 H68        17.5337  -27.6256  -42.8220 H         1 UNK         0.0849 
     69 H69        14.8765  -29.8288  -44.6509 H         1 UNK         0.0865 
     70 H70        15.7184  -28.6092  -45.5654 H         1 UNK         0.0865 
     71 H71        16.2087  -30.8590  -42.5707 H         1 UNK         0.1346 
     72 H72        20.3640  -31.4886  -43.4235 H         1 UNK         0.1412 
     73 H73        18.0218  -28.8734  -45.8957 H         1 UNK         0.1426 
     74 H74        20.7137  -30.6973  -46.3070 H         1 UNK         0.0716 
     75 H75        21.4685  -29.9112  -44.9429 H         1 UNK         0.0716 
     76 H76        22.5977  -27.2616  -47.2556 H         1 UNK         0.0695 
     77 H77        22.9891  -28.5824  -46.2043 H         1 UNK         0.0695 
     78 H78        23.4700  -26.2020  -45.3414 H         1 UNK         0.0983 
     79 H79        20.6689  -25.8651  -45.7528 H         1 UNK         0.3095 
     80 H80        20.1806  -23.0500  -43.6908 H         1 UNK         0.0454 
     81 H81        21.2883  -22.0297  -45.6896 H         1 UNK         0.0851 
     82 H82        19.5397  -21.9315  -45.8051 H         1 UNK         0.0851 
     83 H83        20.4202  -23.1345  -46.7469 H         1 UNK         0.0851 
     84 H84        18.4275  -24.1954  -45.5798 H         1 UNK         0.2976 
     85 H85        20.7488  -26.8893  -43.2397 H         1 UNK         0.3116 
     86 H86        21.9920  -29.0012  -41.7288 H         1 UNK         0.0646 
     87 H87        19.5038  -28.6603  -41.8883 H         1 UNK         0.0847 
     88 H88        19.6628  -27.1961  -40.9145 H         1 UNK         0.0847 
     89 H89        20.0814  -28.7582  -40.2354 H         1 UNK         0.0847 
     90 H90        22.8632  -25.7820  -41.8979 H         1 UNK         0.3040 
     91 H91        23.8445  -25.4226  -39.1768 H         1 UNK         0.1015 
     92 H92        25.1240  -23.5508  -40.2230 H         1 UNK         0.0786 
     93 H93        23.4310  -23.4781  -40.6858 H         1 UNK         0.0786 
     94 H94        24.6320  -24.0826  -41.8258 H         1 UNK         0.0786 
     95 H95        24.8646  -27.2175  -42.0035 H         1 UNK         0.3172 
     96 H96        27.5263  -27.8299  -40.7623 H         1 UNK         0.0595 
     97 H97        26.7601  -27.7232  -43.7297 H         1 UNK         0.0839 
     98 H98        28.3158  -28.2374  -43.0891 H         1 UNK         0.0839 
     99 H99        27.7940  -26.5730  -42.8842 H         1 UNK         0.0839 
    100 H100       24.7625  -29.0996  -42.6882 H         1 UNK         0.2998 
    101 H101       25.5679  -31.8886  -42.3684 H         1 UNK         0.0822 
    102 H102       22.9788  -30.6335  -43.4299 H         1 UNK         0.0787 
    103 H103       24.3934  -30.9690  -44.4264 H         1 UNK         0.0787 
    104 H104       23.5038  -32.2906  -43.6886 H         1 UNK         0.0787 
    105 H105       23.7286  -33.4492  -41.6459 H         1 UNK         0.3055 
    106 H106       21.9780  -32.4732  -39.5318 H         1 UNK         0.1106 
    107 H107       24.1018  -34.6365  -38.9822 H         1 UNK         0.0828 
    108 H108       22.7972  -34.1860  -37.8913 H         1 UNK         0.0828 
    109 H109       24.0701  -33.0329  -38.2513 H         1 UNK         0.0828 
    110 H110       20.2589  -33.9158  -39.1791 H         1 UNK         0.2931 
    111 H111       19.9016  -36.0817  -41.1997 H         1 UNK         0.0412 
    112 H112       19.9942  -37.3758  -37.4655 H         1 UNK         0.3472 
    113 H113       20.8339  -35.9496  -38.0175 H         1 UNK         0.3472 
    114 H114       17.4181  -35.6543  -40.8585 H         1 UNK         0.0970 
    115 H115       17.8153  -34.2467  -39.9154 H         1 UNK         0.0970 
    116 H116       19.3407  -32.0989  -41.1777 H         1 UNK         0.0612 
    117 H117       17.6014  -32.0486  -40.9846 H         1 UNK         0.0612 
@<TRIPOS>BOND
     1    1    2 1    
     2    1   62 1    
     3    1   63 1    
     4    1   64 1    
     5    2    3 2    
     6    2    4 am   BACKBONE|DICT|INTERRES
     7    4    5 1    
     8    4   65 1    
     9    5    6 1    
    10    5   25 1    
    11    5   66 1    
    12    6    7 1    
    13    6   67 1    
    14    6   68 1    
    15    7    8 1    
    16    8    9 1    
    17    8   69 1    
    18    8   70 1    
    19    9   10 ar   
    20    9   14 ar   
    21   10   11 ar   
    22   10   71 1    
    23   11   12 ar   
    24   11   61 1    
    25   12   13 ar   
    26   12   72 1    
    27   13   14 ar   
    28   13   15 1    
    29   14   73 1    
    30   15   16 1    
    31   15   74 1    
    32   15   75 1    
    33   16   17 1    
    34   17   18 1    
    35   17   76 1    
    36   17   77 1    
    37   18   19 1    
    38   18   27 1    
    39   18   78 1    
    40   19   20 am   BACKBONE|DICT|INTERRES
    41   19   79 1    
    42   20   21 2    
    43   20   22 1    
    44   22   23 1    
    45   22   24 1    
    46   22   80 1    
    47   23   81 1    
    48   23   82 1    
    49   23   83 1    
    50   24   25 am   BACKBONE|DICT|INTERRES
    51   24   84 1    
    52   25   26 2    
    53   27   28 2    
    54   27   29 am   BACKBONE|DICT|INTERRES
    55   29   30 1    
    56   29   85 1    
    57   30   31 1    
    58   30   32 1    
    59   30   86 1    
    60   31   87 1    
    61   31   88 1    
    62   31   89 1    
    63   32   33 2    
    64   32   34 am   BACKBONE|DICT|INTERRES
    65   34   35 1    
    66   34   90 1    
    67   35   36 1    
    68   35   37 1    
    69   35   91 1    
    70   36   92 1    
    71   36   93 1    
    72   36   94 1    
    73   37   38 2    
    74   37   39 am   BACKBONE|DICT|INTERRES
    75   39   40 1    
    76   39   95 1    
    77   40   41 1    
    78   40   42 1    
    79   40   96 1    
    80   41   97 1    
    81   41   98 1    
    82   41   99 1    
    83   42   43 2    
    84   42   44 am   BACKBONE|DICT|INTERRES
    85   44   45 1    
    86   44  100 1    
    87   45   46 1    
    88   45   47 1    
    89   45  101 1    
    90   46  102 1    
    91   46  103 1    
    92   46  104 1    
    93   47   48 2    
    94   47   49 am   BACKBONE|DICT|INTERRES
    95   49   50 1    
    96   49  105 1    
    97   50   51 1    
    98   50   52 1    
    99   50  106 1    
   100   51  107 1    
   101   51  108 1    
   102   51  109 1    
   103   52   53 2    
   104   52   54 am   BACKBONE|DICT|INTERRES
   105   54   55 1    
   106   54  110 1    
   107   55   56 1    
   108   55   59 1    
   109   55  111 1    
   110   56   57 am   BACKBONE|DICT|INTERRES
   111   56   58 2    
   112   57  112 1    
   113   57  113 1    
   114   59   60 1    
   115   59  114 1    
   116   59  115 1    
   117   60   61 1    
   118   61  116 1    
   119   61  117 1    
@<TRIPOS>SUBSTRUCTURE
     1 UNK         1 GROUP             0       ****    0 ROOT    
