@<TRIPOS>MOLECULE
3R8
117   119    1
SMALL
USER_CHARGES


@<TRIPOS>ATOM
      1 CA         20.1460  -25.5368  -48.7599 C.3       0 UNK        -0.2013 
      2 C          18.9646  -25.6882  -47.8133 C.2       0 UNK         0.4866 
      3 O          18.1419  -24.7775  -47.7172 O.2       0 UNK        -0.5176 
      4 N          18.8846  -26.8297  -47.1144 N.am      1 UNK        -0.4884 
      5 CA         17.8258  -27.2011  -46.1599 C.3       1 UNK         0.0853 
      6 C6         16.4335  -27.4084  -46.8208 C.3       10 UNK        -0.0849 
      7 S7         16.4650  -28.7600  -48.0484 S.3       10 UNK        -0.2776 
      8 C8         15.7329  -30.1405  -47.1058 C.3       10 UNK         0.0316 
      9 C9         16.5067  -30.4450  -45.8289 C.ar      10 UNK        -0.0863 
     10 C10        17.7894  -30.9963  -45.8953 C.ar      10 UNK        -0.1009 
     11 C11        18.5123  -31.2571  -44.7272 C.ar      10 UNK        -0.0712 
     12 C12        17.9413  -30.9689  -43.4836 C.ar      10 UNK        -0.0894 
     13 C13        16.6527  -30.4323  -43.4036 C.ar      10 UNK        -0.0745 
     14 C14        15.9411  -30.1736  -44.5793 C.ar      10 UNK        -0.0972 
     15 C15        16.0115  -30.1580  -42.0509 C.3       10 UNK         0.0209 
     16 S16        15.8079  -28.3723  -41.7631 S.3       10 UNK        -0.2568 
     17 C17        16.7536  -28.1052  -40.2248 C.3       10 UNK        -0.0983 
     18 CA         18.2270  -27.6759  -40.4646 C.3       3 UNK         0.0876 
     19 N          18.3142  -26.5499  -41.4089 N.am      3 UNK        -0.4424 
     20 C          19.3799  -26.2181  -42.1449 C.2       2 UNK         0.4918 
     21 O          20.4806  -26.7559  -42.0345 O.2       2 UNK        -0.4875 
     22 CA         19.1749  -25.1371  -43.2131 C.3       2 UNK         0.0481 
     23 CB         20.3948  -24.2058  -43.3241 C.3       2 UNK        -0.1831 
     24 N          18.9633  -25.8103  -44.4905 N.am      2 UNK        -0.4498 
     25 C          17.7839  -26.2804  -44.9194 C.2       1 UNK         0.5027 
     26 O          16.7136  -26.0312  -44.3616 O.2       1 UNK        -0.4969 
     27 C          18.9763  -27.4292  -39.1282 C.2       3 UNK         0.5005 
     28 O          18.5041  -27.8528  -38.0705 O.2       3 UNK        -0.5279 
     29 N          20.1210  -26.7426  -39.1863 N.am      4 UNK        -0.4463 
     30 CA         21.0108  -26.4283  -38.0694 C.3       4 UNK         0.0283 
     31 CB         20.4293  -25.2747  -37.2252 C.3       4 UNK        -0.1875 
     32 C          22.4230  -26.1272  -38.6004 C.2       4 UNK         0.4949 
     33 O          23.1097  -25.2581  -38.0604 O.2       4 UNK        -0.5039 
     34 N          22.8187  -26.8232  -39.6726 N.am      5 UNK        -0.4663 
     35 CA         24.1033  -26.6665  -40.3530 C.3       5 UNK         0.0242 
     36 CB         23.8390  -26.6374  -41.8710 C.3       5 UNK        -0.1982 
     37 C          25.0685  -27.7985  -39.9590 C.2       5 UNK         0.5017 
     38 O          24.7968  -28.5574  -39.0239 O.2       5 UNK        -0.5012 
     39 N          26.1889  -27.8852  -40.6845 N.am      6 UNK        -0.4439 
     40 CA         27.1452  -28.9890  -40.6159 C.3       6 UNK         0.0297 
     41 CB         28.5154  -28.4821  -41.0986 C.3       6 UNK        -0.2006 
     42 C          26.6771  -30.1778  -41.4749 C.2       6 UNK         0.4892 
     43 O          25.8313  -30.0104  -42.3585 O.2       6 UNK        -0.5089 
     44 N          27.2820  -31.3464  -41.2205 N.am      7 UNK        -0.4243 
     45 CA         27.0516  -32.6253  -41.9023 C.3       7 UNK         0.0196 
     46 CB         27.5180  -32.5555  -43.3761 C.3       7 UNK        -0.2007 
     47 C          25.6064  -33.1282  -41.7133 C.2       7 UNK         0.5020 
     48 O          25.0827  -33.0442  -40.6008 O.2       7 UNK        -0.5147 
     49 N          24.9929  -33.6609  -42.7794 N.am      8 UNK        -0.4734 
     50 CA         23.6626  -34.2825  -42.7729 C.3       8 UNK         0.0238 
     51 CB         23.3774  -34.8818  -44.1599 C.3       8 UNK        -0.1912 
     52 C          22.5157  -33.3464  -42.3532 C.2       8 UNK         0.5038 
     53 O          21.5315  -33.8275  -41.7903 O.2       8 UNK        -0.5046 
     54 N          22.6624  -32.0450  -42.6291 N.am      9 UNK        -0.4200 
     55 CA         21.7143  -30.9927  -42.2305 C.3       9 UNK         0.0839 
     56 C          22.1030  -30.3024  -40.8908 C.2       9 UNK         0.5513 
     57 N          23.1165  -30.7631  -40.1688 N.am      9 UNK        -0.7519 
     58 O          21.4740  -29.3262  -40.4946 O.2       9 UNK        -0.4960 
     59 C59        21.4683  -29.9544  -43.3641 C.3       10 UNK        -0.0876 
     60 S60        21.2048  -30.6404  -45.0414 S.3       10 UNK        -0.2414 
     61 C61        19.8938  -31.8849  -44.8170 C.3       10 UNK         0.0169 
     62 H62        19.7919  -25.3942  -49.7806 H         1 UNK         0.0903 
     63 H63        20.7412  -24.6675  -48.4812 H         1 UNK         0.0903 
     64 H64        20.7962  -26.4114  -48.7465 H         1 UNK         0.0903 
     65 H65        19.5932  -27.5369  -47.2562 H         1 UNK         0.3096 
     66 H66        18.1321  -28.1647  -45.7511 H         1 UNK         0.1121 
     67 H67        16.0996  -26.4939  -47.3128 H         1 UNK         0.0849 
     68 H68        15.6716  -27.6378  -46.0738 H         1 UNK         0.0849 
     69 H69        14.6905  -29.9072  -46.8828 H         1 UNK         0.0865 
     70 H70        15.7161  -31.0306  -47.7364 H         1 UNK         0.0865 
     71 H71        18.2290  -31.2136  -46.8596 H         1 UNK         0.1346 
     72 H72        18.4922  -31.1790  -42.5780 H         1 UNK         0.1412 
     73 H73        14.9464  -29.7532  -44.5158 H         1 UNK         0.1426 
     74 H74        16.5976  -30.6129  -41.2514 H         1 UNK         0.0716 
     75 H75        15.0305  -30.6337  -42.0150 H         1 UNK         0.0716 
     76 H76        16.7045  -29.0090  -39.6148 H         1 UNK         0.0695 
     77 H77        16.2299  -27.3349  -39.6553 H         1 UNK         0.0695 
     78 H78        18.7353  -28.5237  -40.9301 H         1 UNK         0.0983 
     79 H79        17.4414  -26.0758  -41.5936 H         1 UNK         0.3095 
     80 H80        18.3047  -24.5298  -42.9548 H         1 UNK         0.0454 
     81 H81        21.2979  -24.7452  -43.6123 H         1 UNK         0.0851 
     82 H82        20.5986  -23.7165  -42.3709 H         1 UNK         0.0851 
     83 H83        20.2260  -23.4213  -44.0619 H         1 UNK         0.0851 
     84 H84        19.7928  -26.0746  -45.0022 H         1 UNK         0.2976 
     85 H85        20.4678  -26.5040  -40.1121 H         1 UNK         0.3116 
     86 H86        21.0994  -27.3140  -37.4371 H         1 UNK         0.0646 
     87 H87        20.3328  -24.3602  -37.8113 H         1 UNK         0.0847 
     88 H88        21.0696  -25.0511  -36.3711 H         1 UNK         0.0847 
     89 H89        19.4454  -25.5237  -36.8282 H         1 UNK         0.0847 
     90 H90        22.2401  -27.5952  -39.9973 H         1 UNK         0.3040 
     91 H91        24.5708  -25.7221  -40.0657 H         1 UNK         0.1015 
     92 H92        23.4626  -27.5960  -42.2282 H         1 UNK         0.0786 
     93 H93        24.7401  -26.4039  -42.4381 H         1 UNK         0.0786 
     94 H94        23.1014  -25.8767  -42.1265 H         1 UNK         0.0786 
     95 H95        26.3045  -27.2482  -41.4589 H         1 UNK         0.3172 
     96 H96        27.2388  -29.3210  -39.5795 H         1 UNK         0.0595 
     97 H97        29.2748  -29.2612  -41.0209 H         1 UNK         0.0839 
     98 H98        28.8601  -27.6387  -40.4998 H         1 UNK         0.0839 
     99 H99        28.4844  -28.1630  -42.1413 H         1 UNK         0.0839 
    100 H100       27.9401  -31.3803  -40.4543 H         1 UNK         0.2998 
    101 H101       27.6853  -33.3543  -41.3950 H         1 UNK         0.0822 
    102 H102       27.5173  -33.5418  -43.8417 H         1 UNK         0.0787 
    103 H103       26.8862  -31.9008  -43.9778 H         1 UNK         0.0787 
    104 H104       28.5385  -32.1781  -43.4445 H         1 UNK         0.0787 
    105 H105       25.4958  -33.6783  -43.6552 H         1 UNK         0.3055 
    106 H106       23.6878  -35.0975  -42.0460 H         1 UNK         0.1106 
    107 H107       22.4054  -35.3772  -44.1788 H         1 UNK         0.0828 
    108 H108       23.3659  -34.1156  -44.9363 H         1 UNK         0.0828 
    109 H109       24.1231  -35.6286  -44.4330 H         1 UNK         0.0828 
    110 H110       23.5185  -31.7326  -43.0643 H         1 UNK         0.2931 
    111 H111       20.7508  -31.4558  -42.0187 H         1 UNK         0.0412 
    112 H112       23.6555  -31.5677  -40.4654 H         1 UNK         0.3472 
    113 H113       23.4017  -30.2474  -39.3484 H         1 UNK         0.3472 
    114 H114       22.3187  -29.2750  -43.4347 H         1 UNK         0.0970 
    115 H115       20.6099  -29.3267  -43.1166 H         1 UNK         0.0970 
    116 H116       19.9240  -32.5634  -45.6708 H         1 UNK         0.0612 
    117 H117       20.0908  -32.5083  -43.9460 H         1 UNK         0.0612 
@<TRIPOS>BOND
     1    1    2 1    
     2    1   62 1    
     3    1   63 1    
     4    1   64 1    
     5    2    3 2    
     6    2    4 am   BACKBONE|DICT|INTERRES
     7    4    5 1    
     8    4   65 1    
     9    5    6 1    
    10    5   25 1    
    11    5   66 1    
    12    6    7 1    
    13    6   67 1    
    14    6   68 1    
    15    7    8 1    
    16    8    9 1    
    17    8   69 1    
    18    8   70 1    
    19    9   10 ar   
    20    9   14 ar   
    21   10   11 ar   
    22   10   71 1    
    23   11   12 ar   
    24   11   61 1    
    25   12   13 ar   
    26   12   72 1    
    27   13   14 ar   
    28   13   15 1    
    29   14   73 1    
    30   15   16 1    
    31   15   74 1    
    32   15   75 1    
    33   16   17 1    
    34   17   18 1    
    35   17   76 1    
    36   17   77 1    
    37   18   19 1    
    38   18   27 1    
    39   18   78 1    
    40   19   20 am   BACKBONE|DICT|INTERRES
    41   19   79 1    
    42   20   21 2    
    43   20   22 1    
    44   22   23 1    
    45   22   24 1    
    46   22   80 1    
    47   23   81 1    
    48   23   82 1    
    49   23   83 1    
    50   24   25 am   BACKBONE|DICT|INTERRES
    51   24   84 1    
    52   25   26 2    
    53   27   28 2    
    54   27   29 am   BACKBONE|DICT|INTERRES
    55   29   30 1    
    56   29   85 1    
    57   30   31 1    
    58   30   32 1    
    59   30   86 1    
    60   31   87 1    
    61   31   88 1    
    62   31   89 1    
    63   32   33 2    
    64   32   34 am   BACKBONE|DICT|INTERRES
    65   34   35 1    
    66   34   90 1    
    67   35   36 1    
    68   35   37 1    
    69   35   91 1    
    70   36   92 1    
    71   36   93 1    
    72   36   94 1    
    73   37   38 2    
    74   37   39 am   BACKBONE|DICT|INTERRES
    75   39   40 1    
    76   39   95 1    
    77   40   41 1    
    78   40   42 1    
    79   40   96 1    
    80   41   97 1    
    81   41   98 1    
    82   41   99 1    
    83   42   43 2    
    84   42   44 am   BACKBONE|DICT|INTERRES
    85   44   45 1    
    86   44  100 1    
    87   45   46 1    
    88   45   47 1    
    89   45  101 1    
    90   46  102 1    
    91   46  103 1    
    92   46  104 1    
    93   47   48 2    
    94   47   49 am   BACKBONE|DICT|INTERRES
    95   49   50 1    
    96   49  105 1    
    97   50   51 1    
    98   50   52 1    
    99   50  106 1    
   100   51  107 1    
   101   51  108 1    
   102   51  109 1    
   103   52   53 2    
   104   52   54 am   BACKBONE|DICT|INTERRES
   105   54   55 1    
   106   54  110 1    
   107   55   56 1    
   108   55   59 1    
   109   55  111 1    
   110   56   57 am   BACKBONE|DICT|INTERRES
   111   56   58 2    
   112   57  112 1    
   113   57  113 1    
   114   59   60 1    
   115   59  114 1    
   116   59  115 1    
   117   60   61 1    
   118   61  116 1    
   119   61  117 1    
@<TRIPOS>SUBSTRUCTURE
     1 UNK         1 GROUP             0       ****    0 ROOT    
