@<TRIPOS>MOLECULE
3R8
117   119    1
SMALL
USER_CHARGES


@<TRIPOS>ATOM
      1 CA         16.7117  -27.6250  -41.3864 C.3       0 UNK        -0.2013 
      2 C          16.1256  -26.5538  -42.2902 C.2       0 UNK         0.4866 
      3 O          15.9480  -25.4133  -41.8617 O.2       0 UNK        -0.5176 
      4 N          15.8241  -26.9144  -43.5448 N.am      1 UNK        -0.4884 
      5 CA         15.3336  -25.9897  -44.5768 C.3       1 UNK         0.0853 
      6 C6         14.5721  -26.7443  -45.6972 C.3       10 UNK        -0.0849 
      7 S7         15.6059  -27.7733  -46.8049 S.3       10 UNK        -0.2776 
      8 C8         15.5003  -29.4365  -46.0661 C.3       10 UNK         0.0316 
      9 C9         16.7799  -29.8303  -45.3356 C.ar      10 UNK        -0.0863 
     10 C10        16.7474  -30.1869  -43.9826 C.ar      10 UNK        -0.1009 
     11 C11        17.9062  -30.6285  -43.3333 C.ar      10 UNK        -0.0712 
     12 C12        19.1032  -30.7134  -44.0541 C.ar      10 UNK        -0.0894 
     13 C13        19.1537  -30.3524  -45.4019 C.ar      10 UNK        -0.0745 
     14 C14        17.9888  -29.9122  -46.0366 C.ar      10 UNK        -0.0972 
     15 C15        20.4526  -30.4977  -46.1837 C.3       10 UNK         0.0209 
     16 S16        21.2490  -28.8999  -46.5346 S.3       10 UNK        -0.2568 
     17 C17        21.8505  -28.3925  -44.8860 C.3       10 UNK        -0.0983 
     18 CA         22.2789  -26.8974  -44.8685 C.3       3 UNK         0.0876 
     19 N          21.2050  -25.9906  -45.3003 N.am      3 UNK        -0.4424 
     20 C          20.0432  -25.7890  -44.6632 C.2       2 UNK         0.4918 
     21 O          19.7801  -26.2512  -43.5498 O.2       2 UNK        -0.4875 
     22 CA         18.9643  -24.9748  -45.3982 C.3       2 UNK         0.0481 
     23 CB         19.1215  -24.9583  -46.9350 C.3       2 UNK        -0.1831 
     24 N          17.6970  -25.5819  -45.0230 N.am      2 UNK        -0.4498 
     25 C          16.4611  -25.0875  -45.1306 C.2       1 UNK         0.5027 
     26 O          16.1919  -23.9910  -45.6236 O.2       1 UNK        -0.4969 
     27 C          22.8764  -26.4482  -43.5171 C.2       3 UNK         0.5005 
     28 O          22.8628  -27.2016  -42.5408 O.2       3 UNK        -0.5279 
     29 N          23.3799  -25.2031  -43.4964 N.am      4 UNK        -0.4463 
     30 CA         23.8654  -24.4540  -42.3264 C.3       4 UNK         0.0283 
     31 CB         24.3309  -23.0625  -42.7871 C.3       4 UNK        -0.1875 
     32 C          24.9626  -25.1295  -41.4790 C.2       4 UNK         0.4949 
     33 O          25.1807  -24.7087  -40.3426 O.2       4 UNK        -0.5039 
     34 N          25.6126  -26.1707  -42.0168 N.am      5 UNK        -0.4663 
     35 CA         26.5115  -27.0680  -41.2858 C.3       5 UNK         0.0242 
     36 CB         27.2143  -27.9983  -42.2881 C.3       5 UNK        -0.1982 
     37 C          25.8027  -27.8980  -40.1958 C.2       5 UNK         0.5017 
     38 O          26.4794  -28.3781  -39.2863 O.2       5 UNK        -0.5012 
     39 N          24.4747  -28.0725  -40.3100 N.am      6 UNK        -0.4439 
     40 CA         23.5378  -28.7405  -39.3918 C.3       6 UNK         0.0297 
     41 CB         23.5342  -28.0673  -38.0062 C.3       6 UNK        -0.2006 
     42 C          23.7084  -30.2650  -39.2623 C.2       6 UNK         0.4892 
     43 O          22.7074  -30.9649  -39.1135 O.2       6 UNK        -0.5089 
     44 N          24.9472  -30.7643  -39.3598 N.am      7 UNK        -0.4243 
     45 CA         25.3252  -32.1814  -39.2975 C.3       7 UNK         0.0196 
     46 CB         26.8589  -32.2844  -39.3250 C.3       7 UNK        -0.2007 
     47 C          24.7070  -33.0602  -40.4026 C.2       7 UNK         0.5020 
     48 O          24.6765  -34.2818  -40.2534 O.2       7 UNK        -0.5147 
     49 N          24.2209  -32.4334  -41.4825 N.am      8 UNK        -0.4734 
     50 CA         23.4614  -33.0777  -42.5545 C.3       8 UNK         0.0238 
     51 CB         23.3571  -32.1100  -43.7445 C.3       8 UNK        -0.1912 
     52 C          22.0572  -33.5377  -42.1181 C.2       8 UNK         0.5038 
     53 O          21.5232  -34.4635  -42.7305 O.2       8 UNK        -0.5046 
     54 N          21.4791  -32.8895  -41.0968 N.am      9 UNK        -0.4200 
     55 CA         20.1683  -33.2383  -40.5340 C.3       9 UNK         0.0839 
     56 C          20.2586  -34.4670  -39.5921 C.2       9 UNK         0.5513 
     57 N          19.2410  -35.3173  -39.5849 N.am      9 UNK        -0.7519 
     58 O          21.2154  -34.6344  -38.8391 O.2       9 UNK        -0.4960 
     59 C59        19.4996  -32.0370  -39.8125 C.3       10 UNK        -0.0876 
     60 S60        19.2887  -30.5817  -40.8935 S.3       10 UNK        -0.2414 
     61 C61        17.8369  -31.0871  -41.8793 C.3       10 UNK         0.0169 
     62 H62        17.6361  -28.0166  -41.8112 H         1 UNK         0.0903 
     63 H63        16.9418  -27.2186  -40.4017 H         1 UNK         0.0903 
     64 H64        16.0064  -28.4450  -41.2574 H         1 UNK         0.0903 
     65 H65        16.0065  -27.8590  -43.8548 H         1 UNK         0.3096 
     66 H66        14.6156  -25.3172  -44.1009 H         1 UNK         0.1121 
     67 H67        13.7771  -27.3530  -45.2640 H         1 UNK         0.0849 
     68 H68        14.0560  -26.0176  -46.3276 H         1 UNK         0.0849 
     69 H69        14.6317  -29.5090  -45.4103 H         1 UNK         0.0865 
     70 H70        15.3278  -30.1569  -46.8670 H         1 UNK         0.0865 
     71 H71        15.8115  -30.1585  -43.4408 H         1 UNK         0.1346 
     72 H72        19.9974  -31.0800  -43.5691 H         1 UNK         0.1412 
     73 H73        18.0193  -29.6514  -47.0861 H         1 UNK         0.1426 
     74 H74        21.1564  -31.1400  -45.6536 H         1 UNK         0.0716 
     75 H75        20.2433  -30.9971  -47.1307 H         1 UNK         0.0716 
     76 H76        21.0725  -28.5799  -44.1442 H         1 UNK         0.0695 
     77 H77        22.6928  -29.0333  -44.6208 H         1 UNK         0.0695 
     78 H78        23.0832  -26.7889  -45.5983 H         1 UNK         0.0983 
     79 H79        21.3250  -25.5763  -46.2130 H         1 UNK         0.3095 
     80 H80        18.9939  -23.9532  -45.0158 H         1 UNK         0.0454 
     81 H81        19.1605  -25.9683  -47.3463 H         1 UNK         0.0851 
     82 H82        18.2899  -24.4419  -47.4142 H         1 UNK         0.0851 
     83 H83        20.0284  -24.4351  -47.2389 H         1 UNK         0.0851 
     84 H84        17.8035  -26.4620  -44.5342 H         1 UNK         0.2976 
     85 H85        23.3414  -24.6785  -44.3588 H         1 UNK         0.3116 
     86 H86        23.0068  -24.3202  -41.6653 H         1 UNK         0.0646 
     87 H87        24.6639  -22.4593  -41.9411 H         1 UNK         0.0847 
     88 H88        23.5251  -22.5117  -43.2727 H         1 UNK         0.0847 
     89 H89        25.1651  -23.1281  -43.4868 H         1 UNK         0.0847 
     90 H90        25.3696  -26.4388  -42.9591 H         1 UNK         0.3040 
     91 H91        27.2679  -26.4577  -40.7874 H         1 UNK         0.1015 
     92 H92        27.7853  -27.4311  -43.0235 H         1 UNK         0.0786 
     93 H93        26.5022  -28.6263  -42.8253 H         1 UNK         0.0786 
     94 H94        27.9152  -28.6623  -41.7798 H         1 UNK         0.0786 
     95 H95        24.0250  -27.6760  -41.1348 H         1 UNK         0.3172 
     96 H96        22.5513  -28.5823  -39.8315 H         1 UNK         0.0595 
     97 H97        22.7574  -28.4936  -37.3699 H         1 UNK         0.0839 
     98 H98        23.3374  -26.9981  -38.0861 H         1 UNK         0.0839 
     99 H99        24.4839  -28.1961  -37.4863 H         1 UNK         0.0839 
    100 H100       25.7035  -30.0886  -39.4265 H         1 UNK         0.2998 
    101 H101       24.9688  -32.5726  -38.3424 H         1 UNK         0.0822 
    102 H102       27.3084  -31.7421  -38.4927 H         1 UNK         0.0787 
    103 H103       27.1839  -33.3230  -39.2461 H         1 UNK         0.0787 
    104 H104       27.2724  -31.8817  -40.2506 H         1 UNK         0.0787 
    105 H105       24.3052  -31.4283  -41.5207 H         1 UNK         0.3055 
    106 H106       24.0114  -33.9653  -42.8759 H         1 UNK         0.1106 
    107 H107       24.3415  -31.8034  -44.0985 H         1 UNK         0.0828 
    108 H108       22.8467  -32.5833  -44.5842 H         1 UNK         0.0828 
    109 H109       22.7960  -31.2116  -43.4844 H         1 UNK         0.0828 
    110 H110       21.9984  -32.1787  -40.5934 H         1 UNK         0.2931 
    111 H111       19.5233  -33.5183  -41.3687 H         1 UNK         0.0412 
    112 H112       18.4465  -35.1870  -40.1921 H         1 UNK         0.3472 
    113 H113       19.2726  -36.1139  -38.9673 H         1 UNK         0.3472 
    114 H114       20.0959  -31.7333  -38.9501 H         1 UNK         0.0970 
    115 H115       18.5217  -32.3188  -39.4171 H         1 UNK         0.0970 
    116 H116       16.9410  -30.7015  -41.3918 H         1 UNK         0.0612 
    117 H117       17.7388  -32.1723  -41.8791 H         1 UNK         0.0612 
@<TRIPOS>BOND
     1    1    2 1    
     2    1   62 1    
     3    1   63 1    
     4    1   64 1    
     5    2    3 2    
     6    2    4 am   BACKBONE|DICT|INTERRES
     7    4    5 1    
     8    4   65 1    
     9    5    6 1    
    10    5   25 1    
    11    5   66 1    
    12    6    7 1    
    13    6   67 1    
    14    6   68 1    
    15    7    8 1    
    16    8    9 1    
    17    8   69 1    
    18    8   70 1    
    19    9   10 ar   
    20    9   14 ar   
    21   10   11 ar   
    22   10   71 1    
    23   11   12 ar   
    24   11   61 1    
    25   12   13 ar   
    26   12   72 1    
    27   13   14 ar   
    28   13   15 1    
    29   14   73 1    
    30   15   16 1    
    31   15   74 1    
    32   15   75 1    
    33   16   17 1    
    34   17   18 1    
    35   17   76 1    
    36   17   77 1    
    37   18   19 1    
    38   18   27 1    
    39   18   78 1    
    40   19   20 am   BACKBONE|DICT|INTERRES
    41   19   79 1    
    42   20   21 2    
    43   20   22 1    
    44   22   23 1    
    45   22   24 1    
    46   22   80 1    
    47   23   81 1    
    48   23   82 1    
    49   23   83 1    
    50   24   25 am   BACKBONE|DICT|INTERRES
    51   24   84 1    
    52   25   26 2    
    53   27   28 2    
    54   27   29 am   BACKBONE|DICT|INTERRES
    55   29   30 1    
    56   29   85 1    
    57   30   31 1    
    58   30   32 1    
    59   30   86 1    
    60   31   87 1    
    61   31   88 1    
    62   31   89 1    
    63   32   33 2    
    64   32   34 am   BACKBONE|DICT|INTERRES
    65   34   35 1    
    66   34   90 1    
    67   35   36 1    
    68   35   37 1    
    69   35   91 1    
    70   36   92 1    
    71   36   93 1    
    72   36   94 1    
    73   37   38 2    
    74   37   39 am   BACKBONE|DICT|INTERRES
    75   39   40 1    
    76   39   95 1    
    77   40   41 1    
    78   40   42 1    
    79   40   96 1    
    80   41   97 1    
    81   41   98 1    
    82   41   99 1    
    83   42   43 2    
    84   42   44 am   BACKBONE|DICT|INTERRES
    85   44   45 1    
    86   44  100 1    
    87   45   46 1    
    88   45   47 1    
    89   45  101 1    
    90   46  102 1    
    91   46  103 1    
    92   46  104 1    
    93   47   48 2    
    94   47   49 am   BACKBONE|DICT|INTERRES
    95   49   50 1    
    96   49  105 1    
    97   50   51 1    
    98   50   52 1    
    99   50  106 1    
   100   51  107 1    
   101   51  108 1    
   102   51  109 1    
   103   52   53 2    
   104   52   54 am   BACKBONE|DICT|INTERRES
   105   54   55 1    
   106   54  110 1    
   107   55   56 1    
   108   55   59 1    
   109   55  111 1    
   110   56   57 am   BACKBONE|DICT|INTERRES
   111   56   58 2    
   112   57  112 1    
   113   57  113 1    
   114   59   60 1    
   115   59  114 1    
   116   59  115 1    
   117   60   61 1    
   118   61  116 1    
   119   61  117 1    
@<TRIPOS>SUBSTRUCTURE
     1 UNK         1 GROUP             0       ****    0 ROOT    
