@<TRIPOS>MOLECULE
3R8
117   119    1
SMALL
USER_CHARGES


@<TRIPOS>ATOM
      1 CA         17.2351  -23.0526  -49.0325 C.3       0 UNK        -0.2013 
      2 C          17.9011  -24.3349  -48.5559 C.2       0 UNK         0.4866 
      3 O          18.7570  -24.8774  -49.2559 O.2       0 UNK        -0.5176 
      4 N          17.5090  -24.8292  -47.3755 N.am      1 UNK        -0.4884 
      5 CA         18.0744  -26.0238  -46.7419 C.3       1 UNK         0.0853 
      6 C6         17.2351  -26.4810  -45.5239 C.3       10 UNK        -0.0849 
      7 S7         15.5728  -27.0929  -45.9544 S.3       10 UNK        -0.2776 
      8 C8         15.6872  -28.8606  -45.4820 C.3       10 UNK         0.0316 
      9 C9         16.1272  -29.1428  -44.0400 C.ar      10 UNK        -0.0863 
     10 C10        16.7360  -30.3699  -43.7504 C.ar      10 UNK        -0.1009 
     11 C11        17.1680  -30.6669  -42.4542 C.ar      10 UNK        -0.0712 
     12 C12        16.9794  -29.7312  -41.4353 C.ar      10 UNK        -0.0894 
     13 C13        16.4141  -28.4841  -41.7134 C.ar      10 UNK        -0.0745 
     14 C14        15.9605  -28.2096  -43.0067 C.ar      10 UNK        -0.0972 
     15 C15        16.3248  -27.4194  -40.6275 C.3       10 UNK         0.0209 
     16 S16        17.9444  -27.0687  -39.8580 S.3       10 UNK        -0.2568 
     17 C17        18.9529  -26.4556  -41.2575 C.3       10 UNK        -0.0983 
     18 CA         19.8509  -27.5294  -41.9337 C.3       3 UNK         0.0876 
     19 N          20.4206  -27.0132  -43.1823 N.am      3 UNK        -0.4424 
     20 C          20.9528  -27.7727  -44.1487 C.2       2 UNK         0.4918 
     21 O          20.9512  -29.0030  -44.1407 O.2       2 UNK        -0.4875 
     22 CA         21.4679  -27.0261  -45.3888 C.3       2 UNK         0.0481 
     23 CB         22.5703  -27.8058  -46.1286 C.3       2 UNK        -0.1831 
     24 N          20.3144  -26.8559  -46.2671 N.am      2 UNK        -0.4498 
     25 C          19.5149  -25.7832  -46.2518 C.2       1 UNK         0.5027 
     26 O          19.8261  -24.6964  -45.7571 O.2       1 UNK        -0.4969 
     27 C          20.9646  -28.0700  -41.0072 C.2       3 UNK         0.5005 
     28 O          22.1211  -27.6617  -41.1382 O.2       3 UNK        -0.5279 
     29 N          20.5790  -28.9545  -40.0747 N.am      4 UNK        -0.4463 
     30 CA         21.4221  -29.7639  -39.1835 C.3       4 UNK         0.0283 
     31 CB         20.5180  -30.5304  -38.2055 C.3       4 UNK        -0.1875 
     32 C          22.5282  -29.0179  -38.4155 C.2       4 UNK         0.4949 
     33 O          23.5523  -29.6254  -38.1023 O.2       4 UNK        -0.5039 
     34 N          22.3377  -27.7158  -38.1619 N.am      5 UNK        -0.4663 
     35 CA         23.3497  -26.8108  -37.6047 C.3       5 UNK         0.0242 
     36 CB         22.7022  -25.4433  -37.3341 C.3       5 UNK        -0.1982 
     37 C          24.6000  -26.6477  -38.4953 C.2       5 UNK         0.5017 
     38 O          25.6700  -26.3369  -37.9714 O.2       5 UNK        -0.5012 
     39 N          24.4503  -26.8789  -39.8065 N.am      6 UNK        -0.4439 
     40 CA         25.5149  -26.8926  -40.8098 C.3       6 UNK         0.0297 
     41 CB         25.1175  -25.9457  -41.9580 C.3       6 UNK        -0.2006 
     42 C          25.7864  -28.3233  -41.3198 C.2       6 UNK         0.4892 
     43 O          26.3200  -28.4741  -42.4202 O.2       6 UNK        -0.5089 
     44 N          25.4246  -29.3420  -40.5217 N.am      7 UNK        -0.4243 
     45 CA         25.4850  -30.7761  -40.8257 C.3       7 UNK         0.0196 
     46 CB         26.9442  -31.2543  -41.0115 C.3       7 UNK        -0.2007 
     47 C          24.5325  -31.1389  -41.9815 C.2       7 UNK         0.5020 
     48 O          23.3704  -30.7411  -41.9338 O.2       7 UNK        -0.5147 
     49 N          25.0087  -31.9129  -42.9677 N.am      8 UNK        -0.4734 
     50 CA         24.3295  -32.3690  -44.1951 C.3       8 UNK         0.0238 
     51 CB         23.8910  -31.1756  -45.0666 C.3       8 UNK        -0.1912 
     52 C          23.1611  -33.3554  -43.9904 C.2       8 UNK         0.5038 
     53 O          23.0209  -34.2790  -44.7932 O.2       8 UNK        -0.5046 
     54 N          22.3591  -33.1644  -42.9373 N.am      9 UNK        -0.4200 
     55 CA         21.2155  -34.0127  -42.5579 C.3       9 UNK         0.0839 
     56 C          21.5929  -35.4425  -42.0700 C.2       9 UNK         0.5513 
     57 N          22.8473  -35.7279  -41.7411 N.am      9 UNK        -0.7519 
     58 O          20.7267  -36.3097  -41.9897 O.2       9 UNK        -0.4960 
     59 C59        20.3009  -33.3135  -41.5174 C.3       10 UNK        -0.0876 
     60 S60        19.6818  -31.6969  -42.0892 S.3       10 UNK        -0.2414 
     61 C61        17.8856  -31.9727  -42.1529 C.3       10 UNK         0.0169 
     62 H62        17.9817  -22.2705  -49.1681 H         1 UNK         0.0903 
     63 H63        16.7392  -23.2200  -49.9883 H         1 UNK         0.0903 
     64 H64        16.4906  -22.6913  -48.3233 H         1 UNK         0.0903 
     65 H65        16.8063  -24.3415  -46.8382 H         1 UNK         0.3096 
     66 H66        18.0889  -26.8249  -47.4848 H         1 UNK         0.1121 
     67 H67        17.7624  -27.2664  -44.9793 H         1 UNK         0.0849 
     68 H68        17.1185  -25.6627  -44.8101 H         1 UNK         0.0849 
     69 H69        14.7130  -29.3243  -45.6418 H         1 UNK         0.0865 
     70 H70        16.3749  -29.3474  -46.1755 H         1 UNK         0.0865 
     71 H71        16.8901  -31.0928  -44.5401 H         1 UNK         0.1346 
     72 H72        17.3235  -29.9539  -40.4347 H         1 UNK         0.1412 
     73 H73        15.5025  -27.2520  -43.2101 H         1 UNK         0.1426 
     74 H74        15.6334  -27.7596  -39.8556 H         1 UNK         0.0716 
     75 H75        15.9139  -26.4889  -41.0224 H         1 UNK         0.0716 
     76 H76        18.2737  -26.0251  -41.9955 H         1 UNK         0.0695 
     77 H77        19.5635  -25.6254  -40.8974 H         1 UNK         0.0695 
     78 H78        19.2245  -28.3786  -42.2109 H         1 UNK         0.0983 
     79 H79        20.4645  -26.0090  -43.2750 H         1 UNK         0.3095 
     80 H80        21.8797  -26.0622  -45.0817 H         1 UNK         0.0454 
     81 H81        22.2214  -28.7774  -46.4807 H         1 UNK         0.0851 
     82 H82        22.9345  -27.2497  -46.9923 H         1 UNK         0.0851 
     83 H83        23.4235  -27.9842  -45.4729 H         1 UNK         0.0851 
     84 H84        19.9623  -27.7093  -46.6786 H         1 UNK         0.2976 
     85 H85        19.5917  -29.1613  -40.0338 H         1 UNK         0.3116 
     86 H86        21.9213  -30.4993  -39.8148 H         1 UNK         0.0646 
     87 H87        21.1077  -31.1650  -37.5422 H         1 UNK         0.0847 
     88 H88        19.8212  -31.1811  -38.7344 H         1 UNK         0.0847 
     89 H89        19.9377  -29.8528  -37.5780 H         1 UNK         0.0847 
     90 H90        21.4708  -27.2985  -38.4691 H         1 UNK         0.3040 
     91 H91        23.6837  -27.2305  -36.6533 H         1 UNK         0.1015 
     92 H92        21.8685  -25.5290  -36.6367 H         1 UNK         0.0786 
     93 H93        22.3291  -24.9853  -38.2512 H         1 UNK         0.0786 
     94 H94        23.4211  -24.7513  -36.8930 H         1 UNK         0.0786 
     95 H95        23.5299  -27.1536  -40.1562 H         1 UNK         0.3172 
     96 H96        26.4485  -26.5283  -40.3772 H         1 UNK         0.0595 
     97 H97        24.9175  -24.9391  -41.5907 H         1 UNK         0.0839 
     98 H98        24.2241  -26.2977  -42.4758 H         1 UNK         0.0839 
     99 H99        25.9148  -25.8656  -42.6979 H         1 UNK         0.0839 
    100 H100       24.9486  -29.1148  -39.6564 H         1 UNK         0.2998 
    101 H101       25.0865  -31.2821  -39.9450 H         1 UNK         0.0822 
    102 H102       27.5610  -30.9598  -40.1622 H         1 UNK         0.0787 
    103 H103       26.9989  -32.3416  -41.0778 H         1 UNK         0.0787 
    104 H104       27.4053  -30.8418  -41.9096 H         1 UNK         0.0787 
    105 H105       25.9714  -32.2097  -42.8834 H         1 UNK         0.3055 
    106 H106       25.0876  -32.9161  -44.7586 H         1 UNK         0.1106 
    107 H107       23.4885  -31.5159  -46.0215 H         1 UNK         0.0828 
    108 H108       23.1132  -30.5845  -44.5824 H         1 UNK         0.0828 
    109 H109       24.7282  -30.5124  -45.2839 H         1 UNK         0.0828 
    110 H110       22.5184  -32.3301  -42.3780 H         1 UNK         0.2931 
    111 H111       20.6228  -34.1561  -43.4636 H         1 UNK         0.0412 
    112 H112       23.0778  -36.6585  -41.4294 H         1 UNK         0.3472 
    113 H113       23.5647  -35.0241  -41.8067 H         1 UNK         0.3472 
    114 H114       20.8436  -33.1544  -40.5838 H         1 UNK         0.0970 
    115 H115       19.4507  -33.9505  -41.2659 H         1 UNK         0.0970 
    116 H116       17.6592  -32.7252  -42.9099 H         1 UNK         0.0612 
    117 H117       17.5402  -32.3701  -41.1972 H         1 UNK         0.0612 
@<TRIPOS>BOND
     1    1    2 1    
     2    1   62 1    
     3    1   63 1    
     4    1   64 1    
     5    2    3 2    
     6    2    4 am   BACKBONE|DICT|INTERRES
     7    4    5 1    
     8    4   65 1    
     9    5    6 1    
    10    5   25 1    
    11    5   66 1    
    12    6    7 1    
    13    6   67 1    
    14    6   68 1    
    15    7    8 1    
    16    8    9 1    
    17    8   69 1    
    18    8   70 1    
    19    9   10 ar   
    20    9   14 ar   
    21   10   11 ar   
    22   10   71 1    
    23   11   12 ar   
    24   11   61 1    
    25   12   13 ar   
    26   12   72 1    
    27   13   14 ar   
    28   13   15 1    
    29   14   73 1    
    30   15   16 1    
    31   15   74 1    
    32   15   75 1    
    33   16   17 1    
    34   17   18 1    
    35   17   76 1    
    36   17   77 1    
    37   18   19 1    
    38   18   27 1    
    39   18   78 1    
    40   19   20 am   BACKBONE|DICT|INTERRES
    41   19   79 1    
    42   20   21 2    
    43   20   22 1    
    44   22   23 1    
    45   22   24 1    
    46   22   80 1    
    47   23   81 1    
    48   23   82 1    
    49   23   83 1    
    50   24   25 am   BACKBONE|DICT|INTERRES
    51   24   84 1    
    52   25   26 2    
    53   27   28 2    
    54   27   29 am   BACKBONE|DICT|INTERRES
    55   29   30 1    
    56   29   85 1    
    57   30   31 1    
    58   30   32 1    
    59   30   86 1    
    60   31   87 1    
    61   31   88 1    
    62   31   89 1    
    63   32   33 2    
    64   32   34 am   BACKBONE|DICT|INTERRES
    65   34   35 1    
    66   34   90 1    
    67   35   36 1    
    68   35   37 1    
    69   35   91 1    
    70   36   92 1    
    71   36   93 1    
    72   36   94 1    
    73   37   38 2    
    74   37   39 am   BACKBONE|DICT|INTERRES
    75   39   40 1    
    76   39   95 1    
    77   40   41 1    
    78   40   42 1    
    79   40   96 1    
    80   41   97 1    
    81   41   98 1    
    82   41   99 1    
    83   42   43 2    
    84   42   44 am   BACKBONE|DICT|INTERRES
    85   44   45 1    
    86   44  100 1    
    87   45   46 1    
    88   45   47 1    
    89   45  101 1    
    90   46  102 1    
    91   46  103 1    
    92   46  104 1    
    93   47   48 2    
    94   47   49 am   BACKBONE|DICT|INTERRES
    95   49   50 1    
    96   49  105 1    
    97   50   51 1    
    98   50   52 1    
    99   50  106 1    
   100   51  107 1    
   101   51  108 1    
   102   51  109 1    
   103   52   53 2    
   104   52   54 am   BACKBONE|DICT|INTERRES
   105   54   55 1    
   106   54  110 1    
   107   55   56 1    
   108   55   59 1    
   109   55  111 1    
   110   56   57 am   BACKBONE|DICT|INTERRES
   111   56   58 2    
   112   57  112 1    
   113   57  113 1    
   114   59   60 1    
   115   59  114 1    
   116   59  115 1    
   117   60   61 1    
   118   61  116 1    
   119   61  117 1    
@<TRIPOS>SUBSTRUCTURE
     1 UNK         1 GROUP             0       ****    0 ROOT    
