@<TRIPOS>MOLECULE
3R8
117   119    1
SMALL
USER_CHARGES


@<TRIPOS>ATOM
      1 CA         13.7348  -26.9457  -41.6992 C.3       0 UNK        -0.2013 
      2 C          14.4991  -26.0766  -42.6865 C.2       0 UNK         0.4866 
      3 O          14.2190  -24.8826  -42.7951 O.2       0 UNK        -0.5176 
      4 N          15.4591  -26.6681  -43.4097 N.am      1 UNK        -0.4884 
      5 CA         16.3006  -25.9875  -44.4029 C.3       1 UNK         0.0853 
      6 C6         17.1136  -26.9922  -45.2475 C.3       10 UNK        -0.0849 
      7 S7         16.0978  -28.0601  -46.3286 S.3       10 UNK        -0.2776 
      8 C8         16.3627  -29.7439  -45.6502 C.3       10 UNK         0.0316 
      9 C9         17.8161  -30.1989  -45.4702 C.ar      10 UNK        -0.0863 
     10 C10        18.0644  -31.3492  -44.7162 C.ar      10 UNK        -0.1009 
     11 C11        19.3720  -31.7675  -44.4500 C.ar      10 UNK        -0.0712 
     12 C12        20.4482  -31.0033  -44.9160 C.ar      10 UNK        -0.0894 
     13 C13        20.2197  -29.8640  -45.6949 C.ar      10 UNK        -0.0745 
     14 C14        18.9059  -29.5037  -46.0074 C.ar      10 UNK        -0.0972 
     15 C15        21.3816  -29.0316  -46.2280 C.3       10 UNK         0.0209 
     16 S16        21.1504  -27.2395  -45.9417 S.3       10 UNK        -0.2568 
     17 C17        22.2126  -26.9509  -44.4945 C.3       10 UNK        -0.0983 
     18 CA         21.9695  -25.5553  -43.8628 C.3       3 UNK         0.0876 
     19 N          20.6924  -25.5013  -43.1395 N.am      3 UNK        -0.4424 
     20 C          20.1422  -24.3918  -42.6252 C.2       2 UNK         0.4918 
     21 O          20.6117  -23.2615  -42.7744 O.2       2 UNK        -0.4875 
     22 CA         18.8363  -24.5921  -41.8260 C.3       2 UNK         0.0481 
     23 CB         18.2597  -23.2729  -41.2691 C.3       2 UNK        -0.1831 
     24 N          17.8157  -25.3261  -42.5854 N.am      2 UNK        -0.4498 
     25 C          17.2756  -24.9758  -43.7652 C.2       1 UNK         0.5027 
     26 O          17.5300  -23.9294  -44.3632 O.2       1 UNK        -0.4969 
     27 C          23.1616  -25.1576  -42.9631 C.2       3 UNK         0.5005 
     28 O          23.1109  -25.3379  -41.7438 O.2       3 UNK        -0.5279 
     29 N          24.2323  -24.6509  -43.5920 N.am      4 UNK        -0.4463 
     30 CA         25.4800  -24.2541  -42.9272 C.3       4 UNK         0.0283 
     31 CB         26.3260  -23.4145  -43.8984 C.3       4 UNK        -0.1875 
     32 C          26.3026  -25.4418  -42.3914 C.2       4 UNK         0.4949 
     33 O          27.1024  -25.2552  -41.4740 O.2       4 UNK        -0.5039 
     34 N          26.0942  -26.6319  -42.9636 N.am      5 UNK        -0.4663 
     35 CA         26.6859  -27.8986  -42.5500 C.3       5 UNK         0.0242 
     36 CB         28.0202  -28.1154  -43.2855 C.3       5 UNK        -0.1982 
     37 C          25.6880  -29.0168  -42.8707 C.2       5 UNK         0.5017 
     38 O          24.8518  -28.8452  -43.7604 O.2       5 UNK        -0.5012 
     39 N          25.7967  -30.1361  -42.1416 N.am      6 UNK        -0.4439 
     40 CA         24.9855  -31.3589  -42.2598 C.3       6 UNK         0.0297 
     41 CB         25.1635  -32.0126  -43.6473 C.3       6 UNK        -0.2006 
     42 C          23.4951  -31.1972  -41.8912 C.2       6 UNK         0.4892 
     43 O          22.7196  -32.1220  -42.1313 O.2       6 UNK        -0.5089 
     44 N          23.1194  -30.0694  -41.2690 N.am      7 UNK        -0.4243 
     45 CA         21.7492  -29.7437  -40.8499 C.3       7 UNK         0.0196 
     46 CB         21.6803  -28.2573  -40.4687 C.3       7 UNK        -0.2007 
     47 C          21.2004  -30.6206  -39.7079 C.2       7 UNK         0.5020 
     48 O          19.9961  -30.5916  -39.4554 O.2       7 UNK        -0.5147 
     49 N          22.0743  -31.3897  -39.0428 N.am      8 UNK        -0.4734 
     50 CA         21.6943  -32.4505  -38.1048 C.3       8 UNK         0.0238 
     51 CB         22.9263  -32.8683  -37.2857 C.3       8 UNK        -0.1912 
     52 C          21.0752  -33.6724  -38.8119 C.2       8 UNK         0.5038 
     53 O          20.3037  -34.3981  -38.1836 O.2       8 UNK        -0.5046 
     54 N          21.4175  -33.8660  -40.0948 N.am      9 UNK        -0.4200 
     55 CA         20.8812  -34.8868  -41.0094 C.3       9 UNK         0.0839 
     56 C          21.1809  -36.3636  -40.6108 C.2       9 UNK         0.5513 
     57 N          22.1747  -36.6299  -39.7717 N.am      9 UNK        -0.7519 
     58 O          20.5282  -37.2870  -41.0914 O.2       9 UNK        -0.4960 
     59 C59        19.3874  -34.6438  -41.3732 C.3       10 UNK        -0.0876 
     60 S60        19.0518  -32.9453  -41.9589 S.3       10 UNK        -0.2414 
     61 C61        19.6116  -33.0610  -43.6844 C.3       10 UNK         0.0169 
     62 H62        13.8565  -26.5596  -40.6874 H         1 UNK         0.0903 
     63 H63        12.6720  -26.9408  -41.9401 H         1 UNK         0.0903 
     64 H64        14.0800  -27.9794  -41.7115 H         1 UNK         0.0903 
     65 H65        15.6251  -27.6579  -43.2979 H         1 UNK         0.3096 
     66 H66        15.6450  -25.4236  -45.0708 H         1 UNK         0.1121 
     67 H67        17.8104  -26.4644  -45.9032 H         1 UNK         0.0849 
     68 H68        17.7312  -27.6005  -44.5855 H         1 UNK         0.0849 
     69 H69        15.8536  -29.7998  -44.6869 H         1 UNK         0.0865 
     70 H70        15.8569  -30.4566  -46.3029 H         1 UNK         0.0865 
     71 H71        17.2354  -31.9228  -44.3233 H         1 UNK         0.1346 
     72 H72        21.4611  -31.3080  -44.6885 H         1 UNK         0.1412 
     73 H73        18.7453  -28.6420  -46.6380 H         1 UNK         0.1426 
     74 H74        22.3287  -29.3550  -45.7922 H         1 UNK         0.0716 
     75 H75        21.4629  -29.2035  -47.3020 H         1 UNK         0.0716 
     76 H76        23.2403  -27.0469  -44.8490 H         1 UNK         0.0695 
     77 H77        22.0645  -27.7483  -43.7635 H         1 UNK         0.0695 
     78 H78        21.9139  -24.8137  -44.6633 H         1 UNK         0.0983 
     79 H79        20.2374  -26.3864  -42.9785 H         1 UNK         0.3095 
     80 H80        19.0947  -25.2202  -40.9720 H         1 UNK         0.0454 
     81 H81        17.3613  -23.4509  -40.6783 H         1 UNK         0.0851 
     82 H82        18.0039  -22.5718  -42.0640 H         1 UNK         0.0851 
     83 H83        18.9813  -22.7762  -40.6194 H         1 UNK         0.0851 
     84 H84        17.5185  -26.2050  -42.1850 H         1 UNK         0.2976 
     85 H85        24.2009  -24.5352  -44.5956 H         1 UNK         0.3116 
     86 H86        25.2212  -23.6259  -42.0720 H         1 UNK         0.0646 
     87 H87        25.7900  -22.5235  -44.2261 H         1 UNK         0.0847 
     88 H88        27.2473  -23.0773  -43.4212 H         1 UNK         0.0847 
     89 H89        26.6095  -23.9836  -44.7847 H         1 UNK         0.0847 
     90 H90        25.3846  -26.7219  -43.6796 H         1 UNK         0.3040 
     91 H91        26.8576  -27.8841  -41.4710 H         1 UNK         0.1015 
     92 H92        27.8835  -28.1375  -44.3675 H         1 UNK         0.0786 
     93 H93        28.4813  -29.0601  -42.9944 H         1 UNK         0.0786 
     94 H94        28.7330  -27.3234  -43.0549 H         1 UNK         0.0786 
     95 H95        26.5183  -30.1691  -41.4333 H         1 UNK         0.3172 
     96 H96        25.3929  -32.0526  -41.5230 H         1 UNK         0.0595 
     97 H97        24.7061  -31.4178  -44.4385 H         1 UNK         0.0839 
     98 H98        24.6994  -32.9992  -43.6786 H         1 UNK         0.0839 
     99 H99        26.2170  -32.1455  -43.8928 H         1 UNK         0.0839 
    100 H100       23.8230  -29.3663  -41.0994 H         1 UNK         0.2998 
    101 H101       21.0952  -29.9061  -41.7102 H         1 UNK         0.0822 
    102 H102       21.9598  -27.6261  -41.3096 H         1 UNK         0.0787 
    103 H103       20.6692  -27.9712  -40.1755 H         1 UNK         0.0787 
    104 H104       22.3424  -28.0208  -39.6350 H         1 UNK         0.0787 
    105 H105       23.0505  -31.3220  -39.2899 H         1 UNK         0.3055 
    106 H106       20.9414  -32.0536  -37.4197 H         1 UNK         0.1106 
    107 H107       23.3333  -32.0274  -36.7240 H         1 UNK         0.0828 
    108 H108       22.6681  -33.6433  -36.5624 H         1 UNK         0.0828 
    109 H109       23.7199  -33.2659  -37.9194 H         1 UNK         0.0828 
    110 H110       22.0240  -33.1883  -40.5422 H         1 UNK         0.2931 
    111 H111       21.4512  -34.7500  -41.9284 H         1 UNK         0.0412 
    112 H112       22.7230  -35.8826  -39.3773 H         1 UNK         0.3472 
    113 H113       22.3713  -37.5874  -39.5249 H         1 UNK         0.3472 
    114 H114       19.0572  -35.3449  -42.1418 H         1 UNK         0.0970 
    115 H115       18.7552  -34.8334  -40.5043 H         1 UNK         0.0970 
    116 H116       20.6705  -33.3227  -43.6996 H         1 UNK         0.0612 
    117 H117       19.0817  -33.8736  -44.1833 H         1 UNK         0.0612 
@<TRIPOS>BOND
     1    1    2 1    
     2    1   62 1    
     3    1   63 1    
     4    1   64 1    
     5    2    3 2    
     6    2    4 am   BACKBONE|DICT|INTERRES
     7    4    5 1    
     8    4   65 1    
     9    5    6 1    
    10    5   25 1    
    11    5   66 1    
    12    6    7 1    
    13    6   67 1    
    14    6   68 1    
    15    7    8 1    
    16    8    9 1    
    17    8   69 1    
    18    8   70 1    
    19    9   10 ar   
    20    9   14 ar   
    21   10   11 ar   
    22   10   71 1    
    23   11   12 ar   
    24   11   61 1    
    25   12   13 ar   
    26   12   72 1    
    27   13   14 ar   
    28   13   15 1    
    29   14   73 1    
    30   15   16 1    
    31   15   74 1    
    32   15   75 1    
    33   16   17 1    
    34   17   18 1    
    35   17   76 1    
    36   17   77 1    
    37   18   19 1    
    38   18   27 1    
    39   18   78 1    
    40   19   20 am   BACKBONE|DICT|INTERRES
    41   19   79 1    
    42   20   21 2    
    43   20   22 1    
    44   22   23 1    
    45   22   24 1    
    46   22   80 1    
    47   23   81 1    
    48   23   82 1    
    49   23   83 1    
    50   24   25 am   BACKBONE|DICT|INTERRES
    51   24   84 1    
    52   25   26 2    
    53   27   28 2    
    54   27   29 am   BACKBONE|DICT|INTERRES
    55   29   30 1    
    56   29   85 1    
    57   30   31 1    
    58   30   32 1    
    59   30   86 1    
    60   31   87 1    
    61   31   88 1    
    62   31   89 1    
    63   32   33 2    
    64   32   34 am   BACKBONE|DICT|INTERRES
    65   34   35 1    
    66   34   90 1    
    67   35   36 1    
    68   35   37 1    
    69   35   91 1    
    70   36   92 1    
    71   36   93 1    
    72   36   94 1    
    73   37   38 2    
    74   37   39 am   BACKBONE|DICT|INTERRES
    75   39   40 1    
    76   39   95 1    
    77   40   41 1    
    78   40   42 1    
    79   40   96 1    
    80   41   97 1    
    81   41   98 1    
    82   41   99 1    
    83   42   43 2    
    84   42   44 am   BACKBONE|DICT|INTERRES
    85   44   45 1    
    86   44  100 1    
    87   45   46 1    
    88   45   47 1    
    89   45  101 1    
    90   46  102 1    
    91   46  103 1    
    92   46  104 1    
    93   47   48 2    
    94   47   49 am   BACKBONE|DICT|INTERRES
    95   49   50 1    
    96   49  105 1    
    97   50   51 1    
    98   50   52 1    
    99   50  106 1    
   100   51  107 1    
   101   51  108 1    
   102   51  109 1    
   103   52   53 2    
   104   52   54 am   BACKBONE|DICT|INTERRES
   105   54   55 1    
   106   54  110 1    
   107   55   56 1    
   108   55   59 1    
   109   55  111 1    
   110   56   57 am   BACKBONE|DICT|INTERRES
   111   56   58 2    
   112   57  112 1    
   113   57  113 1    
   114   59   60 1    
   115   59  114 1    
   116   59  115 1    
   117   60   61 1    
   118   61  116 1    
   119   61  117 1    
@<TRIPOS>SUBSTRUCTURE
     1 UNK         1 GROUP             0       ****    0 ROOT    
