@<TRIPOS>MOLECULE
3R8
117   119    1
SMALL
USER_CHARGES


@<TRIPOS>ATOM
      1 CA         15.8766  -22.2065  -41.9862 C.3       0 UNK        -0.2013 
      2 C          16.2665  -23.1869  -43.0823 C.2       0 UNK         0.4866 
      3 O          15.7282  -23.1155  -44.1878 O.2       0 UNK        -0.5176 
      4 N          17.1910  -24.1078  -42.7830 N.am      1 UNK        -0.4884 
      5 CA         17.7232  -25.0986  -43.7234 C.3       1 UNK         0.0853 
      6 C6         18.5494  -26.1882  -42.9958 C.3       10 UNK        -0.0849 
      7 S7         17.4974  -27.2899  -41.9958 S.3       10 UNK        -0.2776 
      8 C8         17.2700  -28.6976  -43.1318 C.3       10 UNK         0.0316 
      9 C9         18.4776  -29.6259  -43.1474 C.ar      10 UNK        -0.0863 
     10 C10        18.6019  -30.6166  -42.1705 C.ar      10 UNK        -0.1009 
     11 C11        19.6836  -31.4997  -42.1887 C.ar      10 UNK        -0.0712 
     12 C12        20.6572  -31.3717  -43.1843 C.ar      10 UNK        -0.0894 
     13 C13        20.5540  -30.3852  -44.1720 C.ar      10 UNK        -0.0745 
     14 C14        19.4485  -29.5223  -44.1500 C.ar      10 UNK        -0.0972 
     15 C15        21.6380  -30.3333  -45.2551 C.3       10 UNK         0.0209 
     16 S16        21.6117  -28.8866  -46.3756 S.3       10 UNK        -0.2568 
     17 C17        22.3500  -27.6003  -45.3152 C.3       10 UNK        -0.0983 
     18 CA         22.3651  -26.1996  -45.9822 C.3       3 UNK         0.0876 
     19 N          21.0106  -25.7731  -46.3419 N.am      3 UNK        -0.4424 
     20 C          20.6861  -24.7553  -47.1492 C.2       2 UNK         0.4918 
     21 O          21.5065  -24.0896  -47.7804 O.2       2 UNK        -0.4875 
     22 CA         19.1889  -24.3962  -47.2306 C.3       2 UNK         0.0481 
     23 CB         18.5703  -24.9755  -48.5126 C.3       2 UNK        -0.1831 
     24 N          18.4054  -24.8428  -46.0685 N.am      2 UNK        -0.4498 
     25 C          18.5867  -24.4238  -44.8061 C.2       1 UNK         0.5027 
     26 O          19.4459  -23.6031  -44.4745 O.2       1 UNK        -0.4969 
     27 C          23.1007  -25.1799  -45.0765 C.2       3 UNK         0.5005 
     28 O          24.3132  -25.3128  -44.9057 O.2       3 UNK        -0.5279 
     29 N          22.3721  -24.2055  -44.4983 N.am      4 UNK        -0.4463 
     30 CA         22.8281  -23.1755  -43.5491 C.3       4 UNK         0.0283 
     31 CB         23.9006  -22.2615  -44.1787 C.3       4 UNK        -0.1875 
     32 C          23.2580  -23.7391  -42.1781 C.2       4 UNK         0.4949 
     33 O          23.9369  -23.0516  -41.4143 O.2       4 UNK        -0.5039 
     34 N          22.8315  -24.9704  -41.8881 N.am      5 UNK        -0.4663 
     35 CA         23.0847  -25.7795  -40.7021 C.3       5 UNK         0.0242 
     36 CB         24.5825  -26.1411  -40.6023 C.3       5 UNK        -0.1982 
     37 C          22.2220  -27.0427  -40.8457 C.2       5 UNK         0.5017 
     38 O          21.5774  -27.2216  -41.8826 O.2       5 UNK        -0.5012 
     39 N          22.2417  -27.9059  -39.8278 N.am      6 UNK        -0.4439 
     40 CA         21.6440  -29.2360  -39.8676 C.3       6 UNK         0.0297 
     41 CB         20.3189  -29.2431  -39.0866 C.3       6 UNK        -0.2006 
     42 C          22.6639  -30.2093  -39.2731 C.2       6 UNK         0.4892 
     43 O          23.0781  -30.0228  -38.1268 O.2       6 UNK        -0.5089 
     44 N          23.0635  -31.2086  -40.0633 N.am      7 UNK        -0.4243 
     45 CA         24.0150  -32.2546  -39.7037 C.3       7 UNK         0.0196 
     46 CB         25.4564  -31.7223  -39.8135 C.3       7 UNK        -0.2007 
     47 C          23.7989  -33.4467  -40.6417 C.2       7 UNK         0.5020 
     48 O          23.2637  -33.2671  -41.7370 O.2       7 UNK        -0.5147 
     49 N          24.2210  -34.6357  -40.1920 N.am      8 UNK        -0.4734 
     50 CA         24.1666  -35.9319  -40.8907 C.3       8 UNK         0.0238 
     51 CB         24.9540  -35.8870  -42.2186 C.3       8 UNK        -0.1912 
     52 C          22.7533  -36.5257  -41.0784 C.2       8 UNK         0.5038 
     53 O          22.6322  -37.5780  -41.7082 O.2       8 UNK        -0.5046 
     54 N          21.7227  -35.8890  -40.5057 N.am      9 UNK        -0.4200 
     55 CA         20.3412  -36.4011  -40.4620 C.3       9 UNK         0.0839 
     56 C          20.1048  -37.4945  -39.3780 C.2       9 UNK         0.5513 
     57 N          21.0411  -37.7572  -38.4733 N.am      9 UNK        -0.7519 
     58 O          19.0504  -38.1245  -39.3636 O.2       9 UNK        -0.4960 
     59 C59        19.3001  -35.2574  -40.3339 C.3       10 UNK        -0.0876 
     60 S60        19.2416  -34.1943  -41.8154 S.3       10 UNK        -0.2414 
     61 C61        19.7883  -32.5983  -41.1416 C.3       10 UNK         0.0169 
     62 H62        16.4201  -22.3925  -41.0599 H         1 UNK         0.0903 
     63 H63        16.0877  -21.1858  -42.3039 H         1 UNK         0.0903 
     64 H64        14.8104  -22.2844  -41.7749 H         1 UNK         0.0903 
     65 H65        17.6028  -24.1180  -41.8609 H         1 UNK         0.3096 
     66 H66        16.8732  -25.5758  -44.2167 H         1 UNK         0.1121 
     67 H67        19.1228  -26.7924  -43.6985 H         1 UNK         0.0849 
     68 H68        19.2912  -25.7311  -42.3379 H         1 UNK         0.0849 
     69 H69        17.0492  -28.3329  -44.1361 H         1 UNK         0.0865 
     70 H70        16.3877  -29.2580  -42.8186 H         1 UNK         0.0865 
     71 H71        17.8462  -30.7075  -41.4020 H         1 UNK         0.1346 
     72 H72        21.4886  -32.0632  -43.2037 H         1 UNK         0.1412 
     73 H73        19.3294  -28.7726  -44.9172 H         1 UNK         0.1426 
     74 H74        21.5407  -31.2296  -45.8690 H         1 UNK         0.0716 
     75 H75        22.6214  -30.3906  -44.7856 H         1 UNK         0.0716 
     76 H76        23.3631  -27.9171  -45.0598 H         1 UNK         0.0695 
     77 H77        21.7907  -27.5711  -44.3806 H         1 UNK         0.0695 
     78 H78        22.9453  -26.2681  -46.9051 H         1 UNK         0.0983 
     79 H79        20.2609  -26.2920  -45.9131 H         1 UNK         0.3095 
     80 H80        19.1176  -23.3077  -47.2783 H         1 UNK         0.0454 
     81 H81        18.5933  -26.0660  -48.5168 H         1 UNK         0.0851 
     82 H82        19.1134  -24.6359  -49.3958 H         1 UNK         0.0851 
     83 H83        17.5340  -24.6593  -48.6329 H         1 UNK         0.0851 
     84 H84        17.6755  -25.5155  -46.2582 H         1 UNK         0.2976 
     85 H85        21.3767  -24.1721  -44.6964 H         1 UNK         0.3116 
     86 H86        21.9524  -22.5560  -43.3498 H         1 UNK         0.0646 
     87 H87        24.1053  -21.4022  -43.5390 H         1 UNK         0.0847 
     88 H88        23.5756  -21.8743  -45.1443 H         1 UNK         0.0847 
     89 H89        24.8456  -22.7846  -44.3260 H         1 UNK         0.0847 
     90 H90        22.2467  -25.4536  -42.5606 H         1 UNK         0.3040 
     91 H91        22.7642  -25.2279  -39.8162 H         1 UNK         0.1015 
     92 H92        25.2061  -25.2525  -40.5062 H         1 UNK         0.0786 
     93 H93        24.9203  -26.6899  -41.4826 H         1 UNK         0.0786 
     94 H94        24.7867  -26.7633  -39.7304 H         1 UNK         0.0786 
     95 H95        22.8200  -27.7178  -39.0190 H         1 UNK         0.3172 
     96 H96        21.4388  -29.5327  -40.8986 H         1 UNK         0.0595 
     97 H97        20.4550  -28.9238  -38.0527 H         1 UNK         0.0839 
     98 H98        19.8824  -30.2418  -39.0668 H         1 UNK         0.0839 
     99 H99        19.5882  -28.5800  -39.5510 H         1 UNK         0.0839 
    100 H100       22.6740  -31.3135  -40.9927 H         1 UNK         0.2998 
    101 H101       23.8179  -32.5773  -38.6789 H         1 UNK         0.0822 
    102 H102       25.6279  -30.8900  -39.1307 H         1 UNK         0.0787 
    103 H103       26.1827  -32.4970  -39.5645 H         1 UNK         0.0787 
    104 H104       25.6801  -31.3770  -40.8238 H         1 UNK         0.0787 
    105 H105       24.6408  -34.6667  -39.2718 H         1 UNK         0.3055 
    106 H106       24.6846  -36.6367  -40.2380 H         1 UNK         0.1106 
    107 H107       25.0597  -36.8853  -42.6452 H         1 UNK         0.0828 
    108 H108       24.4563  -35.2701  -42.9672 H         1 UNK         0.0828 
    109 H109       25.9594  -35.4926  -42.0720 H         1 UNK         0.0828 
    110 H110       21.9043  -35.0298  -40.0114 H         1 UNK         0.2931 
    111 H111       20.1465  -36.8996  -41.4139 H         1 UNK         0.0412 
    112 H112       21.9113  -37.2506  -38.4708 H         1 UNK         0.3472 
    113 H113       20.8717  -38.4718  -37.7824 H         1 UNK         0.3472 
    114 H114       19.4937  -34.6600  -39.4413 H         1 UNK         0.0970 
    115 H115       18.2952  -35.6648  -40.2060 H         1 UNK         0.0970 
    116 H116       20.8142  -32.6885  -40.7896 H         1 UNK         0.0612 
    117 H117       19.1811  -32.3492  -40.2701 H         1 UNK         0.0612 
@<TRIPOS>BOND
     1    1    2 1    
     2    1   62 1    
     3    1   63 1    
     4    1   64 1    
     5    2    3 2    
     6    2    4 am   BACKBONE|DICT|INTERRES
     7    4    5 1    
     8    4   65 1    
     9    5    6 1    
    10    5   25 1    
    11    5   66 1    
    12    6    7 1    
    13    6   67 1    
    14    6   68 1    
    15    7    8 1    
    16    8    9 1    
    17    8   69 1    
    18    8   70 1    
    19    9   10 ar   
    20    9   14 ar   
    21   10   11 ar   
    22   10   71 1    
    23   11   12 ar   
    24   11   61 1    
    25   12   13 ar   
    26   12   72 1    
    27   13   14 ar   
    28   13   15 1    
    29   14   73 1    
    30   15   16 1    
    31   15   74 1    
    32   15   75 1    
    33   16   17 1    
    34   17   18 1    
    35   17   76 1    
    36   17   77 1    
    37   18   19 1    
    38   18   27 1    
    39   18   78 1    
    40   19   20 am   BACKBONE|DICT|INTERRES
    41   19   79 1    
    42   20   21 2    
    43   20   22 1    
    44   22   23 1    
    45   22   24 1    
    46   22   80 1    
    47   23   81 1    
    48   23   82 1    
    49   23   83 1    
    50   24   25 am   BACKBONE|DICT|INTERRES
    51   24   84 1    
    52   25   26 2    
    53   27   28 2    
    54   27   29 am   BACKBONE|DICT|INTERRES
    55   29   30 1    
    56   29   85 1    
    57   30   31 1    
    58   30   32 1    
    59   30   86 1    
    60   31   87 1    
    61   31   88 1    
    62   31   89 1    
    63   32   33 2    
    64   32   34 am   BACKBONE|DICT|INTERRES
    65   34   35 1    
    66   34   90 1    
    67   35   36 1    
    68   35   37 1    
    69   35   91 1    
    70   36   92 1    
    71   36   93 1    
    72   36   94 1    
    73   37   38 2    
    74   37   39 am   BACKBONE|DICT|INTERRES
    75   39   40 1    
    76   39   95 1    
    77   40   41 1    
    78   40   42 1    
    79   40   96 1    
    80   41   97 1    
    81   41   98 1    
    82   41   99 1    
    83   42   43 2    
    84   42   44 am   BACKBONE|DICT|INTERRES
    85   44   45 1    
    86   44  100 1    
    87   45   46 1    
    88   45   47 1    
    89   45  101 1    
    90   46  102 1    
    91   46  103 1    
    92   46  104 1    
    93   47   48 2    
    94   47   49 am   BACKBONE|DICT|INTERRES
    95   49   50 1    
    96   49  105 1    
    97   50   51 1    
    98   50   52 1    
    99   50  106 1    
   100   51  107 1    
   101   51  108 1    
   102   51  109 1    
   103   52   53 2    
   104   52   54 am   BACKBONE|DICT|INTERRES
   105   54   55 1    
   106   54  110 1    
   107   55   56 1    
   108   55   59 1    
   109   55  111 1    
   110   56   57 am   BACKBONE|DICT|INTERRES
   111   56   58 2    
   112   57  112 1    
   113   57  113 1    
   114   59   60 1    
   115   59  114 1    
   116   59  115 1    
   117   60   61 1    
   118   61  116 1    
   119   61  117 1    
@<TRIPOS>SUBSTRUCTURE
     1 UNK         1 GROUP             0       ****    0 ROOT    
