@<TRIPOS>MOLECULE
3R8
117   119    1
SMALL
USER_CHARGES


@<TRIPOS>ATOM
      1 CA         18.9678  -22.8246  -49.8793 C.3       0 UNK        -0.2013 
      2 C          19.4409  -23.2253  -48.4898 C.2       0 UNK         0.4866 
      3 O          19.7884  -22.3579  -47.6876 O.2       0 UNK        -0.5176 
      4 N          19.4648  -24.5327  -48.2009 N.am      1 UNK        -0.4884 
      5 CA         19.8230  -25.0914  -46.8935 C.3       1 UNK         0.0853 
      6 C6         20.1645  -26.5962  -47.0117 C.3       10 UNK        -0.0849 
      7 S7         21.2068  -27.1934  -45.6387 S.3       10 UNK        -0.2776 
      8 C8         21.2847  -28.9799  -46.0027 C.3       10 UNK         0.0316 
      9 C9         20.3104  -29.7692  -45.1396 C.ar      10 UNK        -0.0863 
     10 C10        20.7808  -30.5944  -44.1137 C.ar      10 UNK        -0.1009 
     11 C11        19.8893  -31.2965  -43.2961 C.ar      10 UNK        -0.0712 
     12 C12        18.5130  -31.1585  -43.5032 C.ar      10 UNK        -0.0894 
     13 C13        18.0314  -30.3401  -44.5301 C.ar      10 UNK        -0.0745 
     14 C14        18.9350  -29.6710  -45.3584 C.ar      10 UNK        -0.0972 
     15 C15        16.5376  -30.1342  -44.7279 C.3       10 UNK         0.0209 
     16 S16        16.0631  -28.4017  -44.4131 S.3       10 UNK        -0.2568 
     17 C17        16.3959  -28.2517  -42.6250 C.3       10 UNK        -0.0983 
     18 CA         17.8153  -27.7057  -42.2806 C.3       3 UNK         0.0876 
     19 N          18.1597  -26.4405  -42.9522 N.am      3 UNK        -0.4424 
     20 C          17.5198  -25.2669  -42.8407 C.2       2 UNK         0.4918 
     21 O          16.5188  -25.0920  -42.1460 O.2       2 UNK        -0.4875 
     22 CA         18.1241  -24.0614  -43.5841 C.3       2 UNK         0.0481 
     23 CB         18.8424  -23.1336  -42.5895 C.3       2 UNK        -0.1831 
     24 N          19.0596  -24.4244  -44.6543 N.am      2 UNK        -0.4498 
     25 C          18.6905  -24.8347  -45.8754 C.2       1 UNK         0.5027 
     26 O          17.5173  -25.0100  -46.2145 O.2       1 UNK        -0.4969 
     27 C          18.0514  -27.6802  -40.7497 C.2       3 UNK         0.5005 
     28 O          17.6085  -28.5979  -40.0564 O.2       3 UNK        -0.5279 
     29 N          18.7355  -26.6455  -40.2369 N.am      4 UNK        -0.4463 
     30 CA         19.0388  -26.4712  -38.8152 C.3       4 UNK         0.0283 
     31 CB         19.4111  -25.0043  -38.5373 C.3       4 UNK        -0.1875 
     32 C          20.1456  -27.4292  -38.3504 C.2       4 UNK         0.4949 
     33 O          19.9345  -28.1896  -37.4057 O.2       4 UNK        -0.5039 
     34 N          21.2911  -27.3795  -39.0398 N.am      5 UNK        -0.4663 
     35 CA         22.4590  -28.2272  -38.8241 C.3       5 UNK         0.0242 
     36 CB         23.1346  -27.9228  -37.4698 C.3       5 UNK        -0.1982 
     37 C          23.4269  -27.9866  -39.9856 C.2       5 UNK         0.5017 
     38 O          24.0198  -26.9082  -40.0577 O.2       5 UNK        -0.5012 
     39 N          23.5571  -28.9687  -40.8799 N.am      6 UNK        -0.4439 
     40 CA         24.4687  -28.9628  -42.0194 C.3       6 UNK         0.0297 
     41 CB         23.9103  -28.0741  -43.1457 C.3       6 UNK        -0.2006 
     42 C          24.6289  -30.4046  -42.5041 C.2       6 UNK         0.4892 
     43 O          23.6872  -31.1877  -42.3713 O.2       6 UNK        -0.5089 
     44 N          25.7988  -30.7267  -43.0731 N.am      7 UNK        -0.4243 
     45 CA         26.1462  -32.0199  -43.6779 C.3       7 UNK         0.0196 
     46 CB         25.4810  -32.1371  -45.0694 C.3       7 UNK        -0.2007 
     47 C          25.8438  -33.2077  -42.7390 C.2       7 UNK         0.5020 
     48 O          26.5018  -33.3415  -41.7065 O.2       7 UNK        -0.5147 
     49 N          24.8339  -34.0157  -43.0888 N.am      8 UNK        -0.4734 
     50 CA         24.3559  -35.1726  -42.3274 C.3       8 UNK         0.0238 
     51 CB         23.3335  -35.9410  -43.1810 C.3       8 UNK        -0.1912 
     52 C          23.7541  -34.8387  -40.9487 C.2       8 UNK         0.5038 
     53 O          23.7260  -35.7270  -40.0955 O.2       8 UNK        -0.5046 
     54 N          23.2911  -33.5970  -40.7492 N.am      9 UNK        -0.4200 
     55 CA         22.7740  -33.0861  -39.4695 C.3       9 UNK         0.0839 
     56 C          23.7052  -32.0318  -38.8066 C.2       9 UNK         0.5513 
     57 N          24.9225  -31.8179  -39.2936 N.am      9 UNK        -0.7519 
     58 O          23.3331  -31.4177  -37.8115 O.2       9 UNK        -0.4960 
     59 C59        21.2819  -32.6552  -39.5625 C.3       10 UNK        -0.0876 
     60 S60        20.9093  -31.2870  -40.7162 S.3       10 UNK        -0.2414 
     61 C61        20.4132  -32.2148  -42.2015 C.3       10 UNK         0.0169 
     62 H62        18.0893  -22.1841  -49.8058 H         1 UNK         0.0903 
     63 H63        19.7507  -22.2711  -50.3972 H         1 UNK         0.0903 
     64 H64        18.7062  -23.6904  -50.4873 H         1 UNK         0.0903 
     65 H65        19.1330  -25.1964  -48.8865 H         1 UNK         0.3096 
     66 H66        20.7185  -24.5626  -46.5576 H         1 UNK         0.1121 
     67 H67        20.7286  -26.7747  -47.9290 H         1 UNK         0.0849 
     68 H68        19.2588  -27.1963  -47.0992 H         1 UNK         0.0849 
     69 H69        21.0795  -29.1656  -47.0580 H         1 UNK         0.0865 
     70 H70        22.3062  -29.3229  -45.8308 H         1 UNK         0.0865 
     71 H71        21.8432  -30.6901  -43.9475 H         1 UNK         0.1346 
     72 H72        17.8184  -31.6812  -42.8598 H         1 UNK         0.1412 
     73 H73        18.5547  -29.0417  -46.1489 H         1 UNK         0.1426 
     74 H74        15.9575  -30.7949  -44.0818 H         1 UNK         0.0716 
     75 H75        16.2730  -30.3940  -45.7538 H         1 UNK         0.0716 
     76 H76        16.2414  -29.2324  -42.1716 H         1 UNK         0.0695 
     77 H77        15.6269  -27.6066  -42.1975 H         1 UNK         0.0695 
     78 H78        18.5447  -28.4260  -42.6500 H         1 UNK         0.0983 
     79 H79        18.9644  -26.4797  -43.5614 H         1 UNK         0.3095 
     80 H80        17.2947  -23.5028  -44.0233 H         1 UNK         0.0454 
     81 H81        19.7001  -23.6201  -42.1238 H         1 UNK         0.0851 
     82 H82        18.1705  -22.8220  -41.7883 H         1 UNK         0.0851 
     83 H83        19.1967  -22.2264  -43.0794 H         1 UNK         0.0851 
     84 H84        20.0436  -24.3097  -44.4551 H         1 UNK         0.2976 
     85 H85        19.0601  -25.9311  -40.8701 H         1 UNK         0.3116 
     86 H86        18.1374  -26.6989  -38.2416 H         1 UNK         0.0646 
     87 H87        20.2839  -24.6842  -39.1074 H         1 UNK         0.0847 
     88 H88        19.6410  -24.8560  -37.4812 H         1 UNK         0.0847 
     89 H89        18.5872  -24.3343  -38.7839 H         1 UNK         0.0847 
     90 H90        21.3751  -26.7240  -39.8049 H         1 UNK         0.3040 
     91 H91        22.1359  -29.2694  -38.8298 H         1 UNK         0.1015 
     92 H92        23.3922  -26.8675  -37.3734 H         1 UNK         0.0786 
     93 H93        24.0552  -28.4976  -37.3601 H         1 UNK         0.0786 
     94 H94        22.4936  -28.1899  -36.6301 H         1 UNK         0.0786 
     95 H95        23.0290  -29.8301  -40.7849 H         1 UNK         0.3172 
     96 H96        25.4428  -28.5883  -41.6982 H         1 UNK         0.0595 
     97 H97        24.5378  -28.1208  -44.0365 H         1 UNK         0.0839 
     98 H98        23.8571  -27.0283  -42.8437 H         1 UNK         0.0839 
     99 H99        22.9070  -28.3875  -43.4345 H         1 UNK         0.0839 
    100 H100       26.5244  -30.0239  -43.1025 H         1 UNK         0.2998 
    101 H101       27.2272  -32.0189  -43.8259 H         1 UNK         0.0822 
    102 H102       25.7417  -33.0779  -45.5565 H         1 UNK         0.0787 
    103 H103       24.3932  -32.0754  -45.0154 H         1 UNK         0.0787 
    104 H104       25.8180  -31.3367  -45.7284 H         1 UNK         0.0787 
    105 H105       24.3295  -33.7931  -43.9347 H         1 UNK         0.3055 
    106 H106       25.2136  -35.8247  -42.1482 H         1 UNK         0.1106 
    107 H107       22.9785  -36.8311  -42.6594 H         1 UNK         0.0828 
    108 H108       22.4601  -35.3296  -43.4119 H         1 UNK         0.0828 
    109 H109       23.7707  -36.2743  -44.1224 H         1 UNK         0.0828 
    110 H110       23.3872  -32.9014  -41.4848 H         1 UNK         0.2931 
    111 H111       22.7855  -33.9012  -38.7444 H         1 UNK         0.0412 
    112 H112       25.5238  -31.1523  -38.8356 H         1 UNK         0.3472 
    113 H113       25.2664  -32.3505  -40.0811 H         1 UNK         0.3472 
    114 H114       20.9202  -32.3600  -38.5759 H         1 UNK         0.0970 
    115 H115       20.6763  -33.5210  -39.8331 H         1 UNK         0.0970 
    116 H116       21.2679  -32.7785  -42.5775 H         1 UNK         0.0612 
    117 H117       19.6523  -32.9490  -41.9329 H         1 UNK         0.0612 
@<TRIPOS>BOND
     1    1    2 1    
     2    1   62 1    
     3    1   63 1    
     4    1   64 1    
     5    2    3 2    
     6    2    4 am   BACKBONE|DICT|INTERRES
     7    4    5 1    
     8    4   65 1    
     9    5    6 1    
    10    5   25 1    
    11    5   66 1    
    12    6    7 1    
    13    6   67 1    
    14    6   68 1    
    15    7    8 1    
    16    8    9 1    
    17    8   69 1    
    18    8   70 1    
    19    9   10 ar   
    20    9   14 ar   
    21   10   11 ar   
    22   10   71 1    
    23   11   12 ar   
    24   11   61 1    
    25   12   13 ar   
    26   12   72 1    
    27   13   14 ar   
    28   13   15 1    
    29   14   73 1    
    30   15   16 1    
    31   15   74 1    
    32   15   75 1    
    33   16   17 1    
    34   17   18 1    
    35   17   76 1    
    36   17   77 1    
    37   18   19 1    
    38   18   27 1    
    39   18   78 1    
    40   19   20 am   BACKBONE|DICT|INTERRES
    41   19   79 1    
    42   20   21 2    
    43   20   22 1    
    44   22   23 1    
    45   22   24 1    
    46   22   80 1    
    47   23   81 1    
    48   23   82 1    
    49   23   83 1    
    50   24   25 am   BACKBONE|DICT|INTERRES
    51   24   84 1    
    52   25   26 2    
    53   27   28 2    
    54   27   29 am   BACKBONE|DICT|INTERRES
    55   29   30 1    
    56   29   85 1    
    57   30   31 1    
    58   30   32 1    
    59   30   86 1    
    60   31   87 1    
    61   31   88 1    
    62   31   89 1    
    63   32   33 2    
    64   32   34 am   BACKBONE|DICT|INTERRES
    65   34   35 1    
    66   34   90 1    
    67   35   36 1    
    68   35   37 1    
    69   35   91 1    
    70   36   92 1    
    71   36   93 1    
    72   36   94 1    
    73   37   38 2    
    74   37   39 am   BACKBONE|DICT|INTERRES
    75   39   40 1    
    76   39   95 1    
    77   40   41 1    
    78   40   42 1    
    79   40   96 1    
    80   41   97 1    
    81   41   98 1    
    82   41   99 1    
    83   42   43 2    
    84   42   44 am   BACKBONE|DICT|INTERRES
    85   44   45 1    
    86   44  100 1    
    87   45   46 1    
    88   45   47 1    
    89   45  101 1    
    90   46  102 1    
    91   46  103 1    
    92   46  104 1    
    93   47   48 2    
    94   47   49 am   BACKBONE|DICT|INTERRES
    95   49   50 1    
    96   49  105 1    
    97   50   51 1    
    98   50   52 1    
    99   50  106 1    
   100   51  107 1    
   101   51  108 1    
   102   51  109 1    
   103   52   53 2    
   104   52   54 am   BACKBONE|DICT|INTERRES
   105   54   55 1    
   106   54  110 1    
   107   55   56 1    
   108   55   59 1    
   109   55  111 1    
   110   56   57 am   BACKBONE|DICT|INTERRES
   111   56   58 2    
   112   57  112 1    
   113   57  113 1    
   114   59   60 1    
   115   59  114 1    
   116   59  115 1    
   117   60   61 1    
   118   61  116 1    
   119   61  117 1    
@<TRIPOS>SUBSTRUCTURE
     1 UNK         1 GROUP             0       ****    0 ROOT    
