@<TRIPOS>MOLECULE
3R8
117   119    1
SMALL
USER_CHARGES


@<TRIPOS>ATOM
      1 CA         20.2107  -23.8782  -39.8592 C.3       0 UNK        -0.2013 
      2 C          19.4207  -24.0128  -41.1521 C.2       0 UNK         0.4866 
      3 O          18.7723  -23.0537  -41.5734 O.2       0 UNK        -0.5176 
      4 N          19.4698  -25.1918  -41.7820 N.am      1 UNK        -0.4884 
      5 CA         18.8345  -25.4652  -43.0756 C.3       1 UNK         0.0853 
      6 C6         18.2577  -26.9019  -43.1945 C.3       10 UNK        -0.0849 
      7 S7         17.3398  -27.4953  -41.7302 S.3       10 UNK        -0.2776 
      8 C8         16.3985  -28.9189  -42.3812 C.3       10 UNK         0.0316 
      9 C9         17.2519  -29.8753  -43.2067 C.ar      10 UNK        -0.0863 
     10 C10        18.0482  -30.8485  -42.5918 C.ar      10 UNK        -0.1009 
     11 C11        18.8367  -31.7115  -43.3643 C.ar      10 UNK        -0.0712 
     12 C12        18.8168  -31.5914  -44.7604 C.ar      10 UNK        -0.0894 
     13 C13        18.0379  -30.6142  -45.3866 C.ar      10 UNK        -0.0745 
     14 C14        17.2391  -29.7787  -44.6006 C.ar      10 UNK        -0.0972 
     15 C15        18.0457  -30.4854  -46.9082 C.3       10 UNK         0.0209 
     16 S16        18.1322  -28.7496  -47.4767 S.3       10 UNK        -0.2568 
     17 C17        19.7228  -28.6648  -48.3794 C.3       10 UNK        -0.0983 
     18 CA         20.8752  -27.9609  -47.6074 C.3       3 UNK         0.0876 
     19 N          20.4229  -26.6955  -47.0243 N.am      3 UNK        -0.4424 
     20 C          21.0495  -25.5180  -47.1092 C.2       2 UNK         0.4918 
     21 O          22.1273  -25.3515  -47.6802 O.2       2 UNK        -0.4875 
     22 CA         20.3516  -24.3141  -46.4435 C.3       2 UNK         0.0481 
     23 CB         19.5506  -23.5219  -47.4891 C.3       2 UNK        -0.1831 
     24 N          19.4694  -24.6575  -45.3174 N.am      2 UNK        -0.4498 
     25 C          19.8854  -25.2276  -44.1774 C.2       1 UNK         0.5027 
     26 O          21.0472  -25.5994  -43.9961 O.2       1 UNK        -0.4969 
     27 C          21.5463  -28.8927  -46.5727 C.2       3 UNK         0.5005 
     28 O          21.8137  -30.0483  -46.9096 O.2       3 UNK        -0.5279 
     29 N          21.8087  -28.4089  -45.3492 N.am      4 UNK        -0.4463 
     30 CA         22.3079  -29.2164  -44.2355 C.3       4 UNK         0.0283 
     31 CB         21.2783  -29.1514  -43.0999 C.3       4 UNK        -0.1875 
     32 C          23.6495  -28.7163  -43.6986 C.2       4 UNK         0.4949 
     33 O          24.0272  -27.5637  -43.9169 O.2       4 UNK        -0.5039 
     34 N          24.2960  -29.5905  -42.9172 N.am      5 UNK        -0.4663 
     35 CA         25.2701  -29.2091  -41.8987 C.3       5 UNK         0.0242 
     36 CB         26.2470  -30.3709  -41.6496 C.3       5 UNK        -0.1982 
     37 C          24.4651  -28.8701  -40.6360 C.2       5 UNK         0.5017 
     38 O          23.8153  -29.7658  -40.0819 O.2       5 UNK        -0.5012 
     39 N          24.4587  -27.5818  -40.2611 N.am      6 UNK        -0.4439 
     40 CA         23.5804  -26.9696  -39.2561 C.3       6 UNK         0.0297 
     41 CB         23.9483  -27.4519  -37.8329 C.3       6 UNK        -0.2006 
     42 C          22.1066  -27.1897  -39.6497 C.2       6 UNK         0.4892 
     43 O          21.6893  -26.6953  -40.6953 O.2       6 UNK        -0.5089 
     44 N          21.3679  -27.9594  -38.8482 N.am      7 UNK        -0.4243 
     45 CA         20.0814  -28.5565  -39.2112 C.3       7 UNK         0.0196 
     46 CB         18.9522  -27.8196  -38.4671 C.3       7 UNK        -0.2007 
     47 C          20.0916  -30.0654  -38.9003 C.2       7 UNK         0.5020 
     48 O          19.0238  -30.6675  -38.7851 O.2       7 UNK        -0.5147 
     49 N          21.2883  -30.6443  -38.7206 N.am      8 UNK        -0.4734 
     50 CA         21.4843  -32.0029  -38.2140 C.3       8 UNK         0.0238 
     51 CB         22.5382  -31.9670  -37.0942 C.3       8 UNK        -0.1912 
     52 C          21.9161  -32.9837  -39.3090 C.2       8 UNK         0.5038 
     53 O          21.5269  -34.1500  -39.2408 O.2       8 UNK        -0.5046 
     54 N          22.7201  -32.5122  -40.2742 N.am      9 UNK        -0.4200 
     55 CA         23.3361  -33.3281  -41.3385 C.3       9 UNK         0.0839 
     56 C          24.3799  -34.3690  -40.8252 C.2       9 UNK         0.5513 
     57 N          24.9566  -34.1917  -39.6422 N.am      9 UNK        -0.7519 
     58 O          24.7011  -35.3324  -41.5164 O.2       9 UNK        -0.4960 
     59 C59        22.2957  -33.9383  -42.3238 C.3       10 UNK        -0.0876 
     60 S60        21.4490  -32.6446  -43.2817 S.3       10 UNK        -0.2414 
     61 C61        19.7273  -32.7552  -42.6945 C.3       10 UNK         0.0169 
     62 H62        20.2206  -24.8139  -39.3026 H         1 UNK         0.0903 
     63 H63        21.2401  -23.5941  -40.0754 H         1 UNK         0.0903 
     64 H64        19.7710  -23.1142  -39.2185 H         1 UNK         0.0903 
     65 H65        20.1179  -25.9024  -41.4475 H         1 UNK         0.3096 
     66 H66        18.0079  -24.7667  -43.2235 H         1 UNK         0.1121 
     67 H67        19.0468  -27.6235  -43.3888 H         1 UNK         0.0849 
     68 H68        17.5943  -26.9508  -44.0595 H         1 UNK         0.0849 
     69 H69        15.5635  -28.5463  -42.9767 H         1 UNK         0.0865 
     70 H70        15.9523  -29.4575  -41.5440 H         1 UNK         0.0865 
     71 H71        18.0638  -30.9215  -41.5124 H         1 UNK         0.1346 
     72 H72        19.4310  -32.2496  -45.3596 H         1 UNK         0.1412 
     73 H73        16.6172  -29.0334  -45.0770 H         1 UNK         0.1426 
     74 H74        17.1306  -30.9328  -47.2978 H         1 UNK         0.0716 
     75 H75        18.8712  -31.0575  -47.3336 H         1 UNK         0.0716 
     76 H76        19.5259  -28.0962  -49.2894 H         1 UNK         0.0695 
     77 H77        20.0152  -29.6548  -48.7328 H         1 UNK         0.0695 
     78 H78        21.6589  -27.7516  -48.3389 H         1 UNK         0.0983 
     79 H79        19.5336  -26.7361  -46.5483 H         1 UNK         0.3095 
     80 H80        21.1367  -23.6618  -46.0554 H         1 UNK         0.0454 
     81 H81        19.1348  -22.6081  -47.0644 H         1 UNK         0.0851 
     82 H82        18.7274  -24.1092  -47.8981 H         1 UNK         0.0851 
     83 H83        20.1854  -23.2261  -48.3257 H         1 UNK         0.0851 
     84 H84        18.4994  -24.3890  -45.4075 H         1 UNK         0.2976 
     85 H85        21.6595  -27.4260  -45.1492 H         1 UNK         0.3116 
     86 H86        22.4353  -30.2558  -44.5402 H         1 UNK         0.0646 
     87 H87        20.3056  -29.4845  -43.4477 H         1 UNK         0.0847 
     88 H88        21.1700  -28.1361  -42.7220 H         1 UNK         0.0847 
     89 H89        21.5572  -29.7840  -42.2565 H         1 UNK         0.0847 
     90 H90        23.8802  -30.5028  -42.7974 H         1 UNK         0.3040 
     91 H91        25.8414  -28.3384  -42.2289 H         1 UNK         0.1015 
     92 H92        26.7645  -30.6563  -42.5656 H         1 UNK         0.0786 
     93 H93        25.7471  -31.2566  -41.2577 H         1 UNK         0.0786 
     94 H94        27.0084  -30.0841  -40.9232 H         1 UNK         0.0786 
     95 H95        24.9817  -26.9262  -40.8254 H         1 UNK         0.3172 
     96 H96        23.7527  -25.8931  -39.2984 H         1 UNK         0.0595 
     97 H97        23.8367  -28.5295  -37.7093 H         1 UNK         0.0839 
     98 H98        23.3306  -26.9624  -37.0787 H         1 UNK         0.0839 
     99 H99        24.9842  -27.2064  -37.5985 H         1 UNK         0.0839 
    100 H100       21.7833  -28.2976  -37.9914 H         1 UNK         0.2998 
    101 H101       19.9087  -28.4675  -40.2861 H         1 UNK         0.0822 
    102 H102       18.9263  -26.7641  -38.7352 H         1 UNK         0.0787 
    103 H103       17.9763  -28.2348  -38.7221 H         1 UNK         0.0787 
    104 H104       19.0677  -27.8915  -37.3853 H         1 UNK         0.0787 
    105 H105       22.1254  -30.1220  -38.9574 H         1 UNK         0.3055 
    106 H106       20.5544  -32.3850  -37.7861 H         1 UNK         0.1106 
    107 H107       23.4932  -31.5746  -37.4463 H         1 UNK         0.0828 
    108 H108       22.2083  -31.3446  -36.2622 H         1 UNK         0.0828 
    109 H109       22.7209  -32.9662  -36.6958 H         1 UNK         0.0828 
    110 H110       23.0199  -31.5437  -40.2303 H         1 UNK         0.2931 
    111 H111       23.9386  -32.6283  -41.9171 H         1 UNK         0.0412 
    112 H112       24.7209  -33.3973  -39.0703 H         1 UNK         0.3472 
    113 H113       25.6383  -34.8614  -39.3211 H         1 UNK         0.3472 
    114 H114       21.5721  -34.5689  -41.8063 H         1 UNK         0.0970 
    115 H115       22.7852  -34.5865  -43.0525 H         1 UNK         0.0970 
    116 H116       19.3349  -33.7503  -42.9068 H         1 UNK         0.0612 
    117 H117       19.7177  -32.6324  -41.6102 H         1 UNK         0.0612 
@<TRIPOS>BOND
     1    1    2 1    
     2    1   62 1    
     3    1   63 1    
     4    1   64 1    
     5    2    3 2    
     6    2    4 am   BACKBONE|DICT|INTERRES
     7    4    5 1    
     8    4   65 1    
     9    5    6 1    
    10    5   25 1    
    11    5   66 1    
    12    6    7 1    
    13    6   67 1    
    14    6   68 1    
    15    7    8 1    
    16    8    9 1    
    17    8   69 1    
    18    8   70 1    
    19    9   10 ar   
    20    9   14 ar   
    21   10   11 ar   
    22   10   71 1    
    23   11   12 ar   
    24   11   61 1    
    25   12   13 ar   
    26   12   72 1    
    27   13   14 ar   
    28   13   15 1    
    29   14   73 1    
    30   15   16 1    
    31   15   74 1    
    32   15   75 1    
    33   16   17 1    
    34   17   18 1    
    35   17   76 1    
    36   17   77 1    
    37   18   19 1    
    38   18   27 1    
    39   18   78 1    
    40   19   20 am   BACKBONE|DICT|INTERRES
    41   19   79 1    
    42   20   21 2    
    43   20   22 1    
    44   22   23 1    
    45   22   24 1    
    46   22   80 1    
    47   23   81 1    
    48   23   82 1    
    49   23   83 1    
    50   24   25 am   BACKBONE|DICT|INTERRES
    51   24   84 1    
    52   25   26 2    
    53   27   28 2    
    54   27   29 am   BACKBONE|DICT|INTERRES
    55   29   30 1    
    56   29   85 1    
    57   30   31 1    
    58   30   32 1    
    59   30   86 1    
    60   31   87 1    
    61   31   88 1    
    62   31   89 1    
    63   32   33 2    
    64   32   34 am   BACKBONE|DICT|INTERRES
    65   34   35 1    
    66   34   90 1    
    67   35   36 1    
    68   35   37 1    
    69   35   91 1    
    70   36   92 1    
    71   36   93 1    
    72   36   94 1    
    73   37   38 2    
    74   37   39 am   BACKBONE|DICT|INTERRES
    75   39   40 1    
    76   39   95 1    
    77   40   41 1    
    78   40   42 1    
    79   40   96 1    
    80   41   97 1    
    81   41   98 1    
    82   41   99 1    
    83   42   43 2    
    84   42   44 am   BACKBONE|DICT|INTERRES
    85   44   45 1    
    86   44  100 1    
    87   45   46 1    
    88   45   47 1    
    89   45  101 1    
    90   46  102 1    
    91   46  103 1    
    92   46  104 1    
    93   47   48 2    
    94   47   49 am   BACKBONE|DICT|INTERRES
    95   49   50 1    
    96   49  105 1    
    97   50   51 1    
    98   50   52 1    
    99   50  106 1    
   100   51  107 1    
   101   51  108 1    
   102   51  109 1    
   103   52   53 2    
   104   52   54 am   BACKBONE|DICT|INTERRES
   105   54   55 1    
   106   54  110 1    
   107   55   56 1    
   108   55   59 1    
   109   55  111 1    
   110   56   57 am   BACKBONE|DICT|INTERRES
   111   56   58 2    
   112   57  112 1    
   113   57  113 1    
   114   59   60 1    
   115   59  114 1    
   116   59  115 1    
   117   60   61 1    
   118   61  116 1    
   119   61  117 1    
@<TRIPOS>SUBSTRUCTURE
     1 UNK         1 GROUP             0       ****    0 ROOT    
