@<TRIPOS>MOLECULE
3R8
117   119    1
SMALL
USER_CHARGES


@<TRIPOS>ATOM
      1 CA         12.0215  -27.1210  -42.0107 C.3       0 UNK        -0.2013 
      2 C          13.3757  -26.6832  -42.5489 C.2       0 UNK         0.4866 
      3 O          13.9785  -25.7553  -42.0082 O.2       0 UNK        -0.5176 
      4 N          13.8546  -27.3364  -43.6150 N.am      1 UNK        -0.4884 
      5 CA         15.1712  -27.0976  -44.2129 C.3       1 UNK         0.0853 
      6 C6         15.2425  -27.6819  -45.6458 C.3       10 UNK        -0.0849 
      7 S7         16.7010  -27.1104  -46.5909 S.3       10 UNK        -0.2776 
      8 C8         17.3479  -28.6705  -47.2764 C.3       10 UNK         0.0316 
      9 C9         18.3816  -29.3433  -46.3786 C.ar      10 UNK        -0.0863 
     10 C10        17.9823  -30.2011  -45.3477 C.ar      10 UNK        -0.1009 
     11 C11        18.9318  -30.8999  -44.5938 C.ar      10 UNK        -0.0712 
     12 C12        20.2907  -30.7326  -44.8754 C.ar      10 UNK        -0.0894 
     13 C13        20.7050  -29.8791  -45.9022 C.ar      10 UNK        -0.0745 
     14 C14        19.7465  -29.1763  -46.6397 C.ar      10 UNK        -0.0972 
     15 C15        22.1812  -29.7868  -46.2675 C.3       10 UNK         0.0209 
     16 S16        23.1387  -28.7744  -45.0990 S.3       10 UNK        -0.2568 
     17 C17        22.6582  -27.0758  -45.5662 C.3       10 UNK        -0.0983 
     18 CA         21.9354  -26.2869  -44.4454 C.3       3 UNK         0.0876 
     19 N          20.7636  -27.0090  -43.9475 N.am      3 UNK        -0.4424 
     20 C          19.7551  -26.4469  -43.2767 C.2       2 UNK         0.4918 
     21 O          19.6311  -25.2312  -43.1087 O.2       2 UNK        -0.4875 
     22 CA         18.6896  -27.3906  -42.7166 C.3       2 UNK         0.0481 
     23 CB         18.6725  -27.3746  -41.1770 C.3       2 UNK        -0.1831 
     24 N          17.4146  -26.9573  -43.2690 N.am      2 UNK        -0.4498 
     25 C          16.2879  -27.6729  -43.3192 C.2       1 UNK         0.5027 
     26 O          16.1189  -28.7548  -42.7524 O.2       1 UNK        -0.4969 
     27 C          22.8839  -25.8946  -43.2889 C.2       3 UNK         0.5005 
     28 O          22.8530  -26.5118  -42.2204 O.2       3 UNK        -0.5279 
     29 N          23.7110  -24.8654  -43.5170 N.am      4 UNK        -0.4463 
     30 CA         24.6694  -24.3446  -42.5403 C.3       4 UNK         0.0283 
     31 CB         25.2686  -23.0279  -43.0614 C.3       4 UNK        -0.1875 
     32 C          25.7789  -25.3634  -42.2321 C.2       4 UNK         0.4949 
     33 O          26.4979  -25.7670  -43.1482 O.2       4 UNK        -0.5039 
     34 N          25.8883  -25.7518  -40.9538 N.am      5 UNK        -0.4663 
     35 CA         26.8794  -26.6427  -40.3251 C.3       5 UNK         0.0242 
     36 CB         28.2968  -26.0462  -40.4298 C.3       5 UNK        -0.1982 
     37 C          26.8745  -28.1103  -40.7981 C.2       5 UNK         0.5017 
     38 O          27.0567  -29.0039  -39.9711 O.2       5 UNK        -0.5012 
     39 N          26.6876  -28.3396  -42.1016 N.am      6 UNK        -0.4439 
     40 CA         26.7377  -29.6491  -42.7551 C.3       6 UNK         0.0297 
     41 CB         26.9633  -29.4365  -44.2614 C.3       6 UNK        -0.2006 
     42 C          25.4989  -30.5324  -42.5148 C.2       6 UNK         0.4892 
     43 O          25.5635  -31.7284  -42.8042 O.2       6 UNK        -0.5089 
     44 N          24.3958  -29.9457  -42.0298 N.am      7 UNK        -0.4243 
     45 CA         23.1188  -30.6245  -41.8117 C.3       7 UNK         0.0196 
     46 CB         22.0410  -29.5897  -41.4554 C.3       7 UNK        -0.2007 
     47 C          23.1888  -31.7066  -40.7244 C.2       7 UNK         0.5020 
     48 O          23.5768  -31.4126  -39.5921 O.2       7 UNK        -0.5147 
     49 N          22.7564  -32.9231  -41.0781 N.am      8 UNK        -0.4734 
     50 CA         22.5105  -34.0146  -40.1304 C.3       8 UNK         0.0238 
     51 CB         22.6461  -35.3603  -40.8618 C.3       8 UNK        -0.1912 
     52 C          21.1250  -33.8991  -39.4679 C.2       8 UNK         0.5038 
     53 O          20.9334  -34.4329  -38.3746 O.2       8 UNK        -0.5046 
     54 N          20.1895  -33.2190  -40.1444 N.am      9 UNK        -0.4200 
     55 CA         18.8456  -32.8918  -39.6551 C.3       9 UNK         0.0839 
     56 C          18.8518  -31.8380  -38.5114 C.2       9 UNK         0.5513 
     57 N          17.8077  -31.8121  -37.6938 N.am      9 UNK        -0.7519 
     58 O          19.7711  -31.0341  -38.3703 O.2       9 UNK        -0.4960 
     59 C59        17.9004  -32.4918  -40.8215 C.3       10 UNK        -0.0876 
     60 S60        18.5232  -31.1230  -41.8631 S.3       10 UNK        -0.2414 
     61 C61        18.4905  -31.8794  -43.5148 C.3       10 UNK         0.0169 
     62 H62        12.1188  -27.4539  -40.9777 H         1 UNK         0.0903 
     63 H63        11.3203  -26.2872  -42.0355 H         1 UNK         0.0903 
     64 H64        11.5960  -27.9389  -42.5918 H         1 UNK         0.0903 
     65 H65        13.3332  -28.1139  -43.9948 H         1 UNK         0.3096 
     66 H66        15.3050  -26.0150  -44.2807 H         1 UNK         0.1121 
     67 H67        15.2063  -28.7721  -45.6175 H         1 UNK         0.0849 
     68 H68        14.3615  -27.3732  -46.2110 H         1 UNK         0.0849 
     69 H69        16.5279  -29.3588  -47.4867 H         1 UNK         0.0865 
     70 H70        17.7956  -28.4517  -48.2472 H         1 UNK         0.0865 
     71 H71        16.9306  -30.3469  -45.1449 H         1 UNK         0.1346 
     72 H72        21.0262  -31.2908  -44.3141 H         1 UNK         0.1412 
     73 H73        20.0615  -28.5318  -47.4492 H         1 UNK         0.1426 
     74 H74        22.3104  -29.3973  -47.2785 H         1 UNK         0.0716 
     75 H75        22.6066  -30.7913  -46.2789 H         1 UNK         0.0716 
     76 H76        22.0131  -27.1166  -46.4447 H         1 UNK         0.0695 
     77 H77        23.5549  -26.5470  -45.8944 H         1 UNK         0.0695 
     78 H78        21.5767  -25.3539  -44.8865 H         1 UNK         0.0983 
     79 H79        20.7950  -28.0128  -44.0558 H         1 UNK         0.3095 
     80 H80        18.8957  -28.4045  -43.0627 H         1 UNK         0.0454 
     81 H81        19.6487  -27.6511  -40.7766 H         1 UNK         0.0851 
     82 H82        17.9494  -28.0863  -40.7789 H         1 UNK         0.0851 
     83 H83        18.4241  -26.3873  -40.7864 H         1 UNK         0.0851 
     84 H84        17.4604  -26.0801  -43.7716 H         1 UNK         0.2976 
     85 H85        23.7113  -24.4267  -44.4266 H         1 UNK         0.3116 
     86 H86        24.1229  -24.1235  -41.6207 H         1 UNK         0.0646 
     87 H87        25.9767  -22.6118  -42.3434 H         1 UNK         0.0847 
     88 H88        24.4968  -22.2757  -43.2255 H         1 UNK         0.0847 
     89 H89        25.8054  -23.1704  -44.0004 H         1 UNK         0.0847 
     90 H90        25.1938  -25.3908  -40.3131 H         1 UNK         0.3040 
     91 H91        26.6165  -26.6682  -39.2659 H         1 UNK         0.1015 
     92 H92        29.0183  -26.6580  -39.8863 H         1 UNK         0.0786 
     93 H93        28.3378  -25.0437  -40.0038 H         1 UNK         0.0786 
     94 H94        28.6388  -25.9855  -41.4636 H         1 UNK         0.0786 
     95 H95        26.5716  -27.5212  -42.6975 H         1 UNK         0.3172 
     96 H96        27.5985  -30.1921  -42.3591 H         1 UNK         0.0595 
     97 H97        26.1553  -28.8591  -44.7119 H         1 UNK         0.0839 
     98 H98        27.0174  -30.3892  -44.7902 H         1 UNK         0.0839 
     99 H99        27.8978  -28.9085  -44.4520 H         1 UNK         0.0839 
    100 H100       24.4288  -28.9585  -41.8202 H         1 UNK         0.2998 
    101 H101       22.8359  -31.0942  -42.7554 H         1 UNK         0.0822 
    102 H102       21.8080  -28.9584  -42.3096 H         1 UNK         0.0787 
    103 H103       22.3546  -28.9445  -40.6340 H         1 UNK         0.0787 
    104 H104       21.1130  -30.0706  -41.1478 H         1 UNK         0.0787 
    105 H105       22.5107  -33.0952  -42.0428 H         1 UNK         0.3055 
    106 H106       23.2597  -33.9791  -39.3358 H         1 UNK         0.1106 
    107 H107       21.9148  -35.4628  -41.6645 H         1 UNK         0.0828 
    108 H108       23.6398  -35.4777  -41.2947 H         1 UNK         0.0828 
    109 H109       22.4936  -36.1937  -40.1745 H         1 UNK         0.0828 
    110 H110       20.4513  -32.7766  -41.0109 H         1 UNK         0.2931 
    111 H111       18.4440  -33.8110  -39.2232 H         1 UNK         0.0412 
    112 H112       17.0450  -32.4635  -37.7978 H         1 UNK         0.3472 
    113 H113       17.7855  -31.1306  -36.9511 H         1 UNK         0.3472 
    114 H114       17.7251  -33.3668  -41.4491 H         1 UNK         0.0970 
    115 H115       16.9158  -32.2124  -40.4424 H         1 UNK         0.0970 
    116 H116       17.4809  -32.2369  -43.7235 H         1 UNK         0.0612 
    117 H117       19.1383  -32.7573  -43.5233 H         1 UNK         0.0612 
@<TRIPOS>BOND
     1    1    2 1    
     2    1   62 1    
     3    1   63 1    
     4    1   64 1    
     5    2    3 2    
     6    2    4 am   BACKBONE|DICT|INTERRES
     7    4    5 1    
     8    4   65 1    
     9    5    6 1    
    10    5   25 1    
    11    5   66 1    
    12    6    7 1    
    13    6   67 1    
    14    6   68 1    
    15    7    8 1    
    16    8    9 1    
    17    8   69 1    
    18    8   70 1    
    19    9   10 ar   
    20    9   14 ar   
    21   10   11 ar   
    22   10   71 1    
    23   11   12 ar   
    24   11   61 1    
    25   12   13 ar   
    26   12   72 1    
    27   13   14 ar   
    28   13   15 1    
    29   14   73 1    
    30   15   16 1    
    31   15   74 1    
    32   15   75 1    
    33   16   17 1    
    34   17   18 1    
    35   17   76 1    
    36   17   77 1    
    37   18   19 1    
    38   18   27 1    
    39   18   78 1    
    40   19   20 am   BACKBONE|DICT|INTERRES
    41   19   79 1    
    42   20   21 2    
    43   20   22 1    
    44   22   23 1    
    45   22   24 1    
    46   22   80 1    
    47   23   81 1    
    48   23   82 1    
    49   23   83 1    
    50   24   25 am   BACKBONE|DICT|INTERRES
    51   24   84 1    
    52   25   26 2    
    53   27   28 2    
    54   27   29 am   BACKBONE|DICT|INTERRES
    55   29   30 1    
    56   29   85 1    
    57   30   31 1    
    58   30   32 1    
    59   30   86 1    
    60   31   87 1    
    61   31   88 1    
    62   31   89 1    
    63   32   33 2    
    64   32   34 am   BACKBONE|DICT|INTERRES
    65   34   35 1    
    66   34   90 1    
    67   35   36 1    
    68   35   37 1    
    69   35   91 1    
    70   36   92 1    
    71   36   93 1    
    72   36   94 1    
    73   37   38 2    
    74   37   39 am   BACKBONE|DICT|INTERRES
    75   39   40 1    
    76   39   95 1    
    77   40   41 1    
    78   40   42 1    
    79   40   96 1    
    80   41   97 1    
    81   41   98 1    
    82   41   99 1    
    83   42   43 2    
    84   42   44 am   BACKBONE|DICT|INTERRES
    85   44   45 1    
    86   44  100 1    
    87   45   46 1    
    88   45   47 1    
    89   45  101 1    
    90   46  102 1    
    91   46  103 1    
    92   46  104 1    
    93   47   48 2    
    94   47   49 am   BACKBONE|DICT|INTERRES
    95   49   50 1    
    96   49  105 1    
    97   50   51 1    
    98   50   52 1    
    99   50  106 1    
   100   51  107 1    
   101   51  108 1    
   102   51  109 1    
   103   52   53 2    
   104   52   54 am   BACKBONE|DICT|INTERRES
   105   54   55 1    
   106   54  110 1    
   107   55   56 1    
   108   55   59 1    
   109   55  111 1    
   110   56   57 am   BACKBONE|DICT|INTERRES
   111   56   58 2    
   112   57  112 1    
   113   57  113 1    
   114   59   60 1    
   115   59  114 1    
   116   59  115 1    
   117   60   61 1    
   118   61  116 1    
   119   61  117 1    
@<TRIPOS>SUBSTRUCTURE
     1 UNK         1 GROUP             0       ****    0 ROOT    
