@<TRIPOS>MOLECULE
3R8
117   119    1
SMALL
USER_CHARGES


@<TRIPOS>ATOM
      1 CA         16.3872  -25.0697  -47.7487 C.3       0 UNK        -0.2013 
      2 C          16.6189  -26.1954  -46.7518 C.2       0 UNK         0.4866 
      3 O          16.1156  -27.3011  -46.9522 O.2       0 UNK        -0.5176 
      4 N          17.3773  -25.9206  -45.6856 N.am      1 UNK        -0.4884 
      5 CA         17.7445  -26.8768  -44.6419 C.3       1 UNK         0.0853 
      6 C6         17.1762  -26.4675  -43.2596 C.3       10 UNK        -0.0849 
      7 S7         15.3648  -26.6311  -43.1042 S.3       10 UNK        -0.2776 
      8 C8         15.0551  -28.4054  -43.4306 C.3       10 UNK         0.0316 
      9 C9         16.0364  -29.3616  -42.7543 C.ar      10 UNK        -0.0863 
     10 C10        16.5575  -30.4389  -43.4791 C.ar      10 UNK        -0.1009 
     11 C11        17.4619  -31.3262  -42.8885 C.ar      10 UNK        -0.0712 
     12 C12        17.8513  -31.1265  -41.5620 C.ar      10 UNK        -0.0894 
     13 C13        17.3314  -30.0616  -40.8206 C.ar      10 UNK        -0.0745 
     14 C14        16.4115  -29.1937  -41.4158 C.ar      10 UNK        -0.0972 
     15 C15        17.7372  -29.8767  -39.3657 C.3       10 UNK         0.0209 
     16 S16        19.5245  -29.5875  -39.1757 S.3       10 UNK        -0.2568 
     17 C17        19.6920  -27.8245  -39.6059 C.3       10 UNK        -0.0983 
     18 CA         20.9506  -27.5749  -40.4740 C.3       3 UNK         0.0876 
     19 N          20.7568  -27.9855  -41.8700 N.am      3 UNK        -0.4424 
     20 C          21.7150  -28.0146  -42.8104 C.2       2 UNK         0.4918 
     21 O          22.8958  -27.7482  -42.5836 O.2       2 UNK        -0.4875 
     22 CA         21.2848  -28.3342  -44.2535 C.3       2 UNK         0.0481 
     23 CB         21.6709  -29.7693  -44.6252 C.3       2 UNK        -0.1831 
     24 N          19.8490  -28.1305  -44.4794 N.am      2 UNK        -0.4498 
     25 C          19.2753  -26.9211  -44.5593 C.2       1 UNK         0.5027 
     26 O          19.9037  -25.8614  -44.4973 O.2       1 UNK        -0.4969 
     27 C          21.4444  -26.1174  -40.3344 C.2       3 UNK         0.5005 
     28 O          22.0935  -25.8067  -39.3357 O.2       3 UNK        -0.5279 
     29 N          21.2191  -25.2697  -41.3522 N.am      4 UNK        -0.4463 
     30 CA         21.8075  -23.9296  -41.4671 C.3       4 UNK         0.0283 
     31 CB         21.1863  -23.2058  -42.6719 C.3       4 UNK        -0.1875 
     32 C          23.3468  -23.9401  -41.5829 C.2       4 UNK         0.4949 
     33 O          23.9843  -22.9613  -41.1958 O.2       4 UNK        -0.5039 
     34 N          23.9120  -25.0475  -42.0836 N.am      5 UNK        -0.4663 
     35 CA         25.3491  -25.3236  -42.1501 C.3       5 UNK         0.0242 
     36 CB         25.6882  -25.7825  -43.5802 C.3       5 UNK        -0.1982 
     37 C          25.7737  -26.3846  -41.1134 C.2       5 UNK         0.5017 
     38 O          26.9024  -26.8718  -41.1858 O.2       5 UNK        -0.5012 
     39 N          24.8696  -26.7344  -40.1828 N.am      6 UNK        -0.4439 
     40 CA         25.0004  -27.7561  -39.1361 C.3       6 UNK         0.0297 
     41 CB         26.0689  -27.3443  -38.1008 C.3       6 UNK        -0.2006 
     42 C          25.2065  -29.1905  -39.6710 C.2       6 UNK         0.4892 
     43 O          25.8231  -30.0080  -38.9847 O.2       6 UNK        -0.5089 
     44 N          24.6811  -29.4806  -40.8684 N.am      7 UNK        -0.4243 
     45 CA         24.7140  -30.7995  -41.5019 C.3       7 UNK         0.0196 
     46 CB         25.1819  -30.6301  -42.9565 C.3       7 UNK        -0.2007 
     47 C          23.3298  -31.4636  -41.4279 C.2       7 UNK         0.5020 
     48 O          22.3240  -30.7787  -41.2489 O.2       7 UNK        -0.5147 
     49 N          23.2980  -32.7928  -41.5792 N.am      8 UNK        -0.4734 
     50 CA         22.0918  -33.6215  -41.4381 C.3       8 UNK         0.0238 
     51 CB         22.4412  -34.8473  -40.5727 C.3       8 UNK        -0.1912 
     52 C          21.4775  -34.0402  -42.7893 C.2       8 UNK         0.5038 
     53 O          20.7312  -35.0193  -42.8300 O.2       8 UNK        -0.5046 
     54 N          21.8096  -33.3162  -43.8671 N.am      9 UNK        -0.4200 
     55 CA         21.4103  -33.5858  -45.2641 C.3       9 UNK         0.0839 
     56 C          22.0834  -34.8453  -45.8928 C.2       9 UNK         0.5513 
     57 N          23.1363  -35.3997  -45.3034 N.am      9 UNK        -0.7519 
     58 O          21.6693  -35.3119  -46.9512 O.2       9 UNK        -0.4960 
     59 C59        19.8689  -33.5581  -45.5055 C.3       10 UNK        -0.0876 
     60 S60        19.0900  -31.9806  -45.0229 S.3       10 UNK        -0.2414 
     61 C61        18.0000  -32.5140  -43.6720 C.3       10 UNK         0.0169 
     62 H62        16.8851  -24.1481  -47.4476 H         1 UNK         0.0903 
     63 H63        16.7646  -25.3541  -48.7306 H         1 UNK         0.0903 
     64 H64        15.3210  -24.8640  -47.8399 H         1 UNK         0.0903 
     65 H65        17.8168  -25.0136  -45.5987 H         1 UNK         0.3096 
     66 H66        17.3956  -27.8784  -44.8984 H         1 UNK         0.1121 
     67 H67        17.6364  -27.0473  -42.4590 H         1 UNK         0.0849 
     68 H68        17.4313  -25.4286  -43.0402 H         1 UNK         0.0849 
     69 H69        14.0454  -28.6497  -43.0985 H         1 UNK         0.0865 
     70 H70        15.0605  -28.5550  -44.5117 H         1 UNK         0.0865 
     71 H71        16.2602  -30.5938  -44.5078 H         1 UNK         0.1346 
     72 H72        18.5544  -31.8047  -41.0976 H         1 UNK         0.1412 
     73 H73        15.9959  -28.3760  -40.8426 H         1 UNK         0.1426 
     74 H74        17.4706  -30.7787  -38.8132 H         1 UNK         0.0716 
     75 H75        17.1858  -29.0588  -38.8991 H         1 UNK         0.0716 
     76 H76        18.7931  -27.4654  -40.1101 H         1 UNK         0.0695 
     77 H77        19.7478  -27.2810  -38.6603 H         1 UNK         0.0695 
     78 H78        21.7612  -28.1927  -40.0800 H         1 UNK         0.0983 
     79 H79        19.8285  -28.2883  -42.1205 H         1 UNK         0.3095 
     80 H80        21.8311  -27.6603  -44.9169 H         1 UNK         0.0454 
     81 H81        22.7521  -29.8844  -44.6589 H         1 UNK         0.0851 
     82 H82        21.2873  -30.4838  -43.8969 H         1 UNK         0.0851 
     83 H83        21.2959  -30.0429  -45.6111 H         1 UNK         0.0851 
     84 H84        19.2773  -28.9629  -44.5350 H         1 UNK         0.2976 
     85 H85        20.6929  -25.5989  -42.1506 H         1 UNK         0.3116 
     86 H86        21.5496  -23.3741  -40.5630 H         1 UNK         0.0646 
     87 H87        21.5665  -22.1865  -42.7527 H         1 UNK         0.0847 
     88 H88        20.1019  -23.1399  -42.5828 H         1 UNK         0.0847 
     89 H89        21.4156  -23.7131  -43.6099 H         1 UNK         0.0847 
     90 H90        23.3158  -25.8196  -42.3650 H         1 UNK         0.3040 
     91 H91        25.9217  -24.4192  -41.9337 H         1 UNK         0.1015 
     92 H92        25.1897  -26.7199  -43.8311 H         1 UNK         0.0786 
     93 H93        26.7608  -25.9409  -43.6997 H         1 UNK         0.0786 
     94 H94        25.3896  -25.0364  -44.3167 H         1 UNK         0.0786 
     95 H95        23.9833  -26.2428  -40.1867 H         1 UNK         0.3172 
     96 H96        24.0400  -27.7727  -38.6192 H         1 UNK         0.0595 
     97 H97        26.0628  -28.0162  -37.2417 H         1 UNK         0.0839 
     98 H98        27.0735  -27.3691  -38.5241 H         1 UNK         0.0839 
     99 H99        25.8882  -26.3383  -37.7224 H         1 UNK         0.0839 
    100 H100       24.1309  -28.7771  -41.3510 H         1 UNK         0.2998 
    101 H101       25.4226  -31.4536  -40.9892 H         1 UNK         0.0822 
    102 H102       25.0777  -31.5534  -43.5277 H         1 UNK         0.0787 
    103 H103       24.6229  -29.8509  -43.4718 H         1 UNK         0.0787 
    104 H104       26.2341  -30.3468  -42.9918 H         1 UNK         0.0787 
    105 H105       24.1645  -33.2857  -41.7473 H         1 UNK         0.3055 
    106 H106       21.3153  -33.0593  -40.9134 H         1 UNK         0.1106 
    107 H107       22.8545  -34.5474  -39.6096 H         1 UNK         0.0828 
    108 H108       21.5559  -35.4498  -40.3643 H         1 UNK         0.0828 
    109 H109       23.1683  -35.4951  -41.0637 H         1 UNK         0.0828 
    110 H110       22.4381  -32.5396  -43.7321 H         1 UNK         0.2931 
    111 H111       21.8275  -32.7540  -45.8326 H         1 UNK         0.0412 
    112 H112       23.5695  -36.2061  -45.7260 H         1 UNK         0.3472 
    113 H113       23.4981  -35.0263  -44.4414 H         1 UNK         0.3472 
    114 H114       19.3818  -34.3911  -44.9968 H         1 UNK         0.0970 
    115 H115       19.6513  -33.6978  -46.5658 H         1 UNK         0.0970 
    116 H116       17.1689  -33.0874  -44.0846 H         1 UNK         0.0612 
    117 H117       18.5462  -33.1885  -43.0115 H         1 UNK         0.0612 
@<TRIPOS>BOND
     1    1    2 1    
     2    1   62 1    
     3    1   63 1    
     4    1   64 1    
     5    2    3 2    
     6    2    4 am   BACKBONE|DICT|INTERRES
     7    4    5 1    
     8    4   65 1    
     9    5    6 1    
    10    5   25 1    
    11    5   66 1    
    12    6    7 1    
    13    6   67 1    
    14    6   68 1    
    15    7    8 1    
    16    8    9 1    
    17    8   69 1    
    18    8   70 1    
    19    9   10 ar   
    20    9   14 ar   
    21   10   11 ar   
    22   10   71 1    
    23   11   12 ar   
    24   11   61 1    
    25   12   13 ar   
    26   12   72 1    
    27   13   14 ar   
    28   13   15 1    
    29   14   73 1    
    30   15   16 1    
    31   15   74 1    
    32   15   75 1    
    33   16   17 1    
    34   17   18 1    
    35   17   76 1    
    36   17   77 1    
    37   18   19 1    
    38   18   27 1    
    39   18   78 1    
    40   19   20 am   BACKBONE|DICT|INTERRES
    41   19   79 1    
    42   20   21 2    
    43   20   22 1    
    44   22   23 1    
    45   22   24 1    
    46   22   80 1    
    47   23   81 1    
    48   23   82 1    
    49   23   83 1    
    50   24   25 am   BACKBONE|DICT|INTERRES
    51   24   84 1    
    52   25   26 2    
    53   27   28 2    
    54   27   29 am   BACKBONE|DICT|INTERRES
    55   29   30 1    
    56   29   85 1    
    57   30   31 1    
    58   30   32 1    
    59   30   86 1    
    60   31   87 1    
    61   31   88 1    
    62   31   89 1    
    63   32   33 2    
    64   32   34 am   BACKBONE|DICT|INTERRES
    65   34   35 1    
    66   34   90 1    
    67   35   36 1    
    68   35   37 1    
    69   35   91 1    
    70   36   92 1    
    71   36   93 1    
    72   36   94 1    
    73   37   38 2    
    74   37   39 am   BACKBONE|DICT|INTERRES
    75   39   40 1    
    76   39   95 1    
    77   40   41 1    
    78   40   42 1    
    79   40   96 1    
    80   41   97 1    
    81   41   98 1    
    82   41   99 1    
    83   42   43 2    
    84   42   44 am   BACKBONE|DICT|INTERRES
    85   44   45 1    
    86   44  100 1    
    87   45   46 1    
    88   45   47 1    
    89   45  101 1    
    90   46  102 1    
    91   46  103 1    
    92   46  104 1    
    93   47   48 2    
    94   47   49 am   BACKBONE|DICT|INTERRES
    95   49   50 1    
    96   49  105 1    
    97   50   51 1    
    98   50   52 1    
    99   50  106 1    
   100   51  107 1    
   101   51  108 1    
   102   51  109 1    
   103   52   53 2    
   104   52   54 am   BACKBONE|DICT|INTERRES
   105   54   55 1    
   106   54  110 1    
   107   55   56 1    
   108   55   59 1    
   109   55  111 1    
   110   56   57 am   BACKBONE|DICT|INTERRES
   111   56   58 2    
   112   57  112 1    
   113   57  113 1    
   114   59   60 1    
   115   59  114 1    
   116   59  115 1    
   117   60   61 1    
   118   61  116 1    
   119   61  117 1    
@<TRIPOS>SUBSTRUCTURE
     1 UNK         1 GROUP             0       ****    0 ROOT    
