@<TRIPOS>MOLECULE
3R8
117   119    1
SMALL
USER_CHARGES


@<TRIPOS>ATOM
      1 CA         22.1048  -30.7129  -47.9395 C.3       0 UNK        -0.2013 
      2 C          21.0041  -29.6846  -47.7266 C.2       0 UNK         0.4866 
      3 O          20.8896  -28.7398  -48.5077 O.2       0 UNK        -0.5176 
      4 N          20.2004  -29.8658  -46.6717 N.am      1 UNK        -0.4884 
      5 CA         19.0769  -29.0175  -46.2568 C.3       1 UNK         0.0853 
      6 C6         17.8615  -29.0688  -47.2214 C.3       10 UNK        -0.0849 
      7 S7         17.1290  -30.7381  -47.2674 S.3       10 UNK        -0.2776 
      8 C8         15.6415  -30.5190  -46.2298 C.3       10 UNK         0.0316 
      9 C9         15.9454  -30.1159  -44.7875 C.ar      10 UNK        -0.0863 
     10 C10        16.8172  -30.8783  -44.0016 C.ar      10 UNK        -0.1009 
     11 C11        17.0557  -30.5345  -42.6681 C.ar      10 UNK        -0.0712 
     12 C12        16.3789  -29.4477  -42.1092 C.ar      10 UNK        -0.0894 
     13 C13        15.5343  -28.6492  -42.8862 C.ar      10 UNK        -0.0745 
     14 C14        15.3211  -28.9949  -44.2258 C.ar      10 UNK        -0.0972 
     15 C15        14.8101  -27.4412  -42.2891 C.3       10 UNK         0.0209 
     16 S16        15.7423  -26.5507  -40.9881 S.3       10 UNK        -0.2568 
     17 C17        17.0516  -25.7098  -41.9413 C.3       10 UNK        -0.0983 
     18 CA         18.4341  -26.3971  -41.8077 C.3       3 UNK         0.0876 
     19 N          19.3120  -26.0342  -42.9197 N.am      3 UNK        -0.4424 
     20 C          20.5436  -26.5103  -43.1380 C.2       2 UNK         0.4918 
     21 O          21.1684  -27.2223  -42.3507 O.2       2 UNK        -0.4875 
     22 CA         21.1021  -26.2593  -44.5468 C.3       2 UNK         0.0481 
     23 CB         22.6274  -26.0861  -44.5604 C.3       2 UNK        -0.1831 
     24 N          20.7224  -27.4151  -45.3584 N.am      2 UNK        -0.4498 
     25 C          19.4884  -27.5850  -45.8590 C.2       1 UNK         0.5027 
     26 O          18.6659  -26.6691  -45.9332 O.2       1 UNK        -0.4969 
     27 C          19.0964  -26.1688  -40.4315 C.2       3 UNK         0.5005 
     28 O          19.3794  -25.0245  -40.0697 O.2       3 UNK        -0.5279 
     29 N          19.3485  -27.2793  -39.7230 N.am      4 UNK        -0.4463 
     30 CA         19.9915  -27.4032  -38.4108 C.3       4 UNK         0.0283 
     31 CB         19.2099  -26.6288  -37.3284 C.3       4 UNK        -0.1875 
     32 C          21.4986  -27.0760  -38.3890 C.2       4 UNK         0.4949 
     33 O          22.0725  -27.0075  -37.3010 O.2       4 UNK        -0.5039 
     34 N          22.1479  -26.9275  -39.5532 N.am      5 UNK        -0.4663 
     35 CA         23.5767  -26.6091  -39.6742 C.3       5 UNK         0.0242 
     36 CB         23.8087  -25.8084  -40.9670 C.3       5 UNK        -0.1982 
     37 C          24.4686  -27.8646  -39.5854 C.2       5 UNK         0.5017 
     38 O          25.3325  -28.0714  -40.4405 O.2       5 UNK        -0.5012 
     39 N          24.2469  -28.6796  -38.5440 N.am      6 UNK        -0.4439 
     40 CA         24.9635  -29.9168  -38.2146 C.3       6 UNK         0.0297 
     41 CB         26.3702  -29.5847  -37.6650 C.3       6 UNK        -0.2006 
     42 C          24.9619  -30.9176  -39.3890 C.2       6 UNK         0.4892 
     43 O          23.8859  -31.3314  -39.8214 O.2       6 UNK        -0.5089 
     44 N          26.1487  -31.2794  -39.8951 N.am      7 UNK        -0.4243 
     45 CA         26.3423  -32.2105  -41.0102 C.3       7 UNK         0.0196 
     46 CB         27.8382  -32.5430  -41.1319 C.3       7 UNK        -0.2007 
     47 C          25.7942  -31.7090  -42.3593 C.2       7 UNK         0.5020 
     48 O          25.4981  -32.5337  -43.2243 O.2       7 UNK        -0.5147 
     49 N          25.6469  -30.3858  -42.5246 N.am      8 UNK        -0.4734 
     50 CA         25.1263  -29.7636  -43.7476 C.3       8 UNK         0.0238 
     51 CB         25.6110  -28.3074  -43.8283 C.3       8 UNK        -0.1912 
     52 C          23.5951  -29.8660  -43.8954 C.2       8 UNK         0.5038 
     53 O          23.0697  -29.4643  -44.9355 O.2       8 UNK        -0.5046 
     54 N          22.9027  -30.4142  -42.8860 N.am      9 UNK        -0.4200 
     55 CA         21.4796  -30.7739  -42.9686 C.3       9 UNK         0.0839 
     56 C          21.1840  -31.8910  -44.0109 C.2       9 UNK         0.5513 
     57 N          22.1161  -32.7948  -44.2903 N.am      9 UNK        -0.7519 
     58 O          20.1113  -31.9127  -44.6047 O.2       9 UNK        -0.4960 
     59 C59        20.8901  -31.1319  -41.5739 C.3       10 UNK        -0.0876 
     60 S60        19.3636  -30.2173  -41.2021 S.3       10 UNK        -0.2414 
     61 C61        18.0533  -31.3187  -41.8275 C.3       10 UNK         0.0169 
     62 H62        23.0804  -30.2300  -47.8881 H         1 UNK         0.0903 
     63 H63        22.0790  -31.4976  -47.1834 H         1 UNK         0.0903 
     64 H64        22.0024  -31.1791  -48.9189 H         1 UNK         0.0903 
     65 H65        20.3322  -30.6824  -46.0810 H         1 UNK         0.3096 
     66 H66        18.7475  -29.4454  -45.3097 H         1 UNK         0.1121 
     67 H67        17.0823  -28.3652  -46.9230 H         1 UNK         0.0849 
     68 H68        18.1562  -28.7794  -48.2310 H         1 UNK         0.0849 
     69 H69        14.9869  -29.7885  -46.7080 H         1 UNK         0.0865 
     70 H70        15.0865  -31.4579  -46.2163 H         1 UNK         0.0865 
     71 H71        17.3203  -31.7324  -44.4352 H         1 UNK         0.1346 
     72 H72        16.5411  -29.2091  -41.0675 H         1 UNK         0.1412 
     73 H73        14.6479  -28.3994  -44.8277 H         1 UNK         0.1426 
     74 H74        13.8718  -27.7908  -41.8569 H         1 UNK         0.0716 
     75 H75        14.5396  -26.7322  -43.0732 H         1 UNK         0.0716 
     76 H76        17.1021  -24.6653  -41.6279 H         1 UNK         0.0695 
     77 H77        16.7430  -25.6886  -42.9879 H         1 UNK         0.0695 
     78 H78        18.2742  -27.4688  -41.9295 H         1 UNK         0.0983 
     79 H79        18.8835  -25.4917  -43.6561 H         1 UNK         0.3095 
     80 H80        20.6603  -25.3495  -44.9589 H         1 UNK         0.0454 
     81 H81        23.1319  -26.9413  -44.1179 H         1 UNK         0.0851 
     82 H82        22.9226  -25.2031  -43.9928 H         1 UNK         0.0851 
     83 H83        23.0048  -25.9640  -45.5755 H         1 UNK         0.0851 
     84 H84        21.3505  -28.2118  -45.3264 H         1 UNK         0.2976 
     85 H85        19.1335  -28.1670  -40.1623 H         1 UNK         0.3116 
     86 H86        19.9237  -28.4626  -38.1592 H         1 UNK         0.0646 
     87 H87        19.2959  -25.5499  -37.4590 H         1 UNK         0.0847 
     88 H88        19.5849  -26.8627  -36.3312 H         1 UNK         0.0847 
     89 H89        18.1508  -26.8860  -37.3417 H         1 UNK         0.0847 
     90 H90        21.6407  -27.0536  -40.4252 H         1 UNK         0.3040 
     91 H91        23.8663  -25.9626  -38.8426 H         1 UNK         0.1015 
     92 H92        24.8416  -25.4649  -41.0362 H         1 UNK         0.0786 
     93 H93        23.1681  -24.9276  -41.0124 H         1 UNK         0.0786 
     94 H94        23.6088  -26.4155  -41.8473 H         1 UNK         0.0786 
     95 H95        23.5009  -28.4122  -37.9108 H         1 UNK         0.3172 
     96 H96        24.4004  -30.3940  -37.4113 H         1 UNK         0.0595 
     97 H97        26.8949  -30.4856  -37.3438 H         1 UNK         0.0839 
     98 H98        26.3020  -28.9342  -36.7929 H         1 UNK         0.0839 
     99 H99        26.9934  -29.0756  -38.4014 H         1 UNK         0.0839 
    100 H100       26.9812  -30.8720  -39.4944 H         1 UNK         0.2998 
    101 H101       25.8063  -33.1310  -40.7687 H         1 UNK         0.0822 
    102 H102       28.0149  -33.2602  -41.9349 H         1 UNK         0.0787 
    103 H103       28.4324  -31.6551  -41.3519 H         1 UNK         0.0787 
    104 H104       28.2231  -32.9876  -40.2138 H         1 UNK         0.0787 
    105 H105       25.8524  -29.7628  -41.7504 H         1 UNK         0.3055 
    106 H106       25.5485  -30.2946  -44.6039 H         1 UNK         0.1106 
    107 H107       25.3145  -27.8486  -44.7724 H         1 UNK         0.0828 
    108 H108       25.2006  -27.6983  -43.0249 H         1 UNK         0.0828 
    109 H109       26.6978  -28.2473  -43.7708 H         1 UNK         0.0828 
    110 H110       23.4007  -30.7087  -42.0567 H         1 UNK         0.2931 
    111 H111       20.9756  -29.8778  -43.3371 H         1 UNK         0.0412 
    112 H112       23.0173  -32.7681  -43.8361 H         1 UNK         0.3472 
    113 H113       21.9186  -33.5107  -44.9713 H         1 UNK         0.3472 
    114 H114       20.7308  -32.2041  -41.4410 H         1 UNK         0.0970 
    115 H115       21.5860  -30.8521  -40.7839 H         1 UNK         0.0970 
    116 H116       17.5375  -31.7777  -40.9833 H         1 UNK         0.0612 
    117 H117       18.4885  -32.1333  -42.4073 H         1 UNK         0.0612 
@<TRIPOS>BOND
     1    1    2 1    
     2    1   62 1    
     3    1   63 1    
     4    1   64 1    
     5    2    3 2    
     6    2    4 am   BACKBONE|DICT|INTERRES
     7    4    5 1    
     8    4   65 1    
     9    5    6 1    
    10    5   25 1    
    11    5   66 1    
    12    6    7 1    
    13    6   67 1    
    14    6   68 1    
    15    7    8 1    
    16    8    9 1    
    17    8   69 1    
    18    8   70 1    
    19    9   10 ar   
    20    9   14 ar   
    21   10   11 ar   
    22   10   71 1    
    23   11   12 ar   
    24   11   61 1    
    25   12   13 ar   
    26   12   72 1    
    27   13   14 ar   
    28   13   15 1    
    29   14   73 1    
    30   15   16 1    
    31   15   74 1    
    32   15   75 1    
    33   16   17 1    
    34   17   18 1    
    35   17   76 1    
    36   17   77 1    
    37   18   19 1    
    38   18   27 1    
    39   18   78 1    
    40   19   20 am   BACKBONE|DICT|INTERRES
    41   19   79 1    
    42   20   21 2    
    43   20   22 1    
    44   22   23 1    
    45   22   24 1    
    46   22   80 1    
    47   23   81 1    
    48   23   82 1    
    49   23   83 1    
    50   24   25 am   BACKBONE|DICT|INTERRES
    51   24   84 1    
    52   25   26 2    
    53   27   28 2    
    54   27   29 am   BACKBONE|DICT|INTERRES
    55   29   30 1    
    56   29   85 1    
    57   30   31 1    
    58   30   32 1    
    59   30   86 1    
    60   31   87 1    
    61   31   88 1    
    62   31   89 1    
    63   32   33 2    
    64   32   34 am   BACKBONE|DICT|INTERRES
    65   34   35 1    
    66   34   90 1    
    67   35   36 1    
    68   35   37 1    
    69   35   91 1    
    70   36   92 1    
    71   36   93 1    
    72   36   94 1    
    73   37   38 2    
    74   37   39 am   BACKBONE|DICT|INTERRES
    75   39   40 1    
    76   39   95 1    
    77   40   41 1    
    78   40   42 1    
    79   40   96 1    
    80   41   97 1    
    81   41   98 1    
    82   41   99 1    
    83   42   43 2    
    84   42   44 am   BACKBONE|DICT|INTERRES
    85   44   45 1    
    86   44  100 1    
    87   45   46 1    
    88   45   47 1    
    89   45  101 1    
    90   46  102 1    
    91   46  103 1    
    92   46  104 1    
    93   47   48 2    
    94   47   49 am   BACKBONE|DICT|INTERRES
    95   49   50 1    
    96   49  105 1    
    97   50   51 1    
    98   50   52 1    
    99   50  106 1    
   100   51  107 1    
   101   51  108 1    
   102   51  109 1    
   103   52   53 2    
   104   52   54 am   BACKBONE|DICT|INTERRES
   105   54   55 1    
   106   54  110 1    
   107   55   56 1    
   108   55   59 1    
   109   55  111 1    
   110   56   57 am   BACKBONE|DICT|INTERRES
   111   56   58 2    
   112   57  112 1    
   113   57  113 1    
   114   59   60 1    
   115   59  114 1    
   116   59  115 1    
   117   60   61 1    
   118   61  116 1    
   119   61  117 1    
@<TRIPOS>SUBSTRUCTURE
     1 UNK         1 GROUP             0       ****    0 ROOT    
