@<TRIPOS>MOLECULE
3R8
117   119    1
SMALL
USER_CHARGES


@<TRIPOS>ATOM
      1 CA         14.7067  -22.4092  -46.7178 C.3       0 UNK        -0.2013 
      2 C          14.9282  -23.9073  -46.8624 C.2       0 UNK         0.4866 
      3 O          14.7362  -24.4522  -47.9494 O.2       0 UNK        -0.5176 
      4 N          15.3348  -24.5781  -45.7755 N.am      1 UNK        -0.4884 
      5 CA         15.5934  -26.0259  -45.7351 C.3       1 UNK         0.0853 
      6 C6         15.4864  -26.5755  -44.2852 C.3       10 UNK        -0.0849 
      7 S7         14.7404  -28.2384  -44.2341 S.3       10 UNK        -0.2776 
      8 C8         14.7802  -28.5990  -42.4502 C.3       10 UNK         0.0316 
      9 C9         16.1569  -29.0604  -41.9932 C.ar      10 UNK        -0.0863 
     10 C10        16.5644  -30.3772  -42.2302 C.ar      10 UNK        -0.1009 
     11 C11        17.8155  -30.8224  -41.7941 C.ar      10 UNK        -0.0712 
     12 C12        18.6577  -29.9442  -41.1089 C.ar      10 UNK        -0.0894 
     13 C13        18.2666  -28.6235  -40.8738 C.ar      10 UNK        -0.0745 
     14 C14        17.0139  -28.1858  -41.3168 C.ar      10 UNK        -0.0972 
     15 C15        19.1982  -27.6814  -40.1262 C.3       10 UNK         0.0209 
     16 S16        20.7384  -27.3701  -41.0457 S.3       10 UNK        -0.2568 
     17 C17        20.1527  -26.3295  -42.4260 C.3       10 UNK        -0.0983 
     18 CA         20.7252  -26.7589  -43.8014 C.3       3 UNK         0.0876 
     19 N          19.9832  -26.1129  -44.8830 N.am      3 UNK        -0.4424 
     20 C          20.0906  -26.3987  -46.1869 C.2       2 UNK         0.4918 
     21 O          20.8265  -27.2748  -46.6440 O.2       2 UNK        -0.4875 
     22 CA         19.1965  -25.5599  -47.1226 C.3       2 UNK         0.0481 
     23 CB         19.2021  -26.0613  -48.5827 C.3       2 UNK        -0.1831 
     24 N          17.8259  -25.4305  -46.6072 N.am      2 UNK        -0.4498 
     25 C          16.9385  -26.4180  -46.3926 C.2       1 UNK         0.5027 
     26 O          17.1463  -27.5975  -46.6790 O.2       1 UNK        -0.4969 
     27 C          22.2326  -26.4400  -43.8979 C.2       3 UNK         0.5005 
     28 O          22.5996  -25.2783  -44.0943 O.2       3 UNK        -0.5279 
     29 N          23.0727  -27.4620  -43.6935 N.am      4 UNK        -0.4463 
     30 CA         24.5285  -27.3437  -43.5578 C.3       4 UNK         0.0283 
     31 CB         25.1694  -28.7071  -43.8687 C.3       4 UNK        -0.1875 
     32 C          24.9769  -26.8478  -42.1673 C.2       4 UNK         0.4949 
     33 O          26.1742  -26.6368  -41.9734 O.2       4 UNK        -0.5039 
     34 N          24.0277  -26.6936  -41.2296 N.am      5 UNK        -0.4663 
     35 CA         24.2060  -26.3264  -39.8184 C.3       5 UNK         0.0242 
     36 CB         24.7865  -24.9025  -39.6786 C.3       5 UNK        -0.1982 
     37 C          24.9990  -27.3918  -39.0378 C.2       5 UNK         0.5017 
     38 O          25.8808  -27.0554  -38.2448 O.2       5 UNK        -0.5012 
     39 N          24.6678  -28.6639  -39.2863 N.am      6 UNK        -0.4439 
     40 CA         25.2778  -29.8410  -38.6803 C.3       6 UNK         0.0297 
     41 CB         26.5627  -30.2098  -39.4460 C.3       6 UNK        -0.2006 
     42 C          24.2701  -30.9937  -38.7225 C.2       6 UNK         0.4892 
     43 O          23.3465  -30.9726  -39.5419 O.2       6 UNK        -0.5089 
     44 N          24.5026  -32.0083  -37.8779 N.am      7 UNK        -0.4243 
     45 CA         23.7010  -33.2367  -37.7752 C.3       7 UNK         0.0196 
     46 CB         24.2000  -34.0625  -36.5781 C.3       7 UNK        -0.2007 
     47 C          23.6859  -34.0981  -39.0538 C.2       7 UNK         0.5020 
     48 O          22.7940  -34.9314  -39.2110 O.2       7 UNK        -0.5147 
     49 N          24.6485  -33.8636  -39.9561 N.am      8 UNK        -0.4734 
     50 CA         24.7193  -34.4425  -41.2999 C.3       8 UNK         0.0238 
     51 CB         26.1307  -34.2040  -41.8636 C.3       8 UNK        -0.1912 
     52 C          23.6514  -33.9033  -42.2749 C.2       8 UNK         0.5038 
     53 O          23.5453  -34.4368  -43.3803 O.2       8 UNK        -0.5046 
     54 N          22.8994  -32.8647  -41.8769 N.am      9 UNK        -0.4200 
     55 CA         21.8377  -32.1859  -42.6369 C.3       9 UNK         0.0839 
     56 C          22.3848  -31.2722  -43.7655 C.2       9 UNK         0.5513 
     57 N          23.2368  -31.7765  -44.6476 N.am      9 UNK        -0.7519 
     58 O          22.0570  -30.0903  -43.8181 O.2       9 UNK        -0.4960 
     59 C59        20.7272  -33.1592  -43.1280 C.3       10 UNK        -0.0876 
     60 S60        19.1879  -32.3230  -43.6369 S.3       10 UNK        -0.2414 
     61 C61        18.2660  -32.2461  -42.0714 C.3       10 UNK         0.0169 
     62 H62        14.9136  -22.0607  -45.7060 H         1 UNK         0.0903 
     63 H63        15.3566  -21.8657  -47.4032 H         1 UNK         0.0903 
     64 H64        13.6737  -22.1584  -46.9574 H         1 UNK         0.0903 
     65 H65        15.4701  -24.0786  -44.9069 H         1 UNK         0.3096 
     66 H66        14.8149  -26.4985  -46.3395 H         1 UNK         0.1121 
     67 H67        16.4551  -26.5882  -43.7811 H         1 UNK         0.0849 
     68 H68        14.8461  -25.9310  -43.6803 H         1 UNK         0.0849 
     69 H69        14.4542  -27.7233  -41.8867 H         1 UNK         0.0865 
     70 H70        14.0509  -29.3817  -42.2356 H         1 UNK         0.0865 
     71 H71        15.9090  -31.0540  -42.7618 H         1 UNK         0.1346 
     72 H72        19.6275  -30.2817  -40.7698 H         1 UNK         0.1412 
     73 H73        16.7032  -27.1667  -41.1304 H         1 UNK         0.1426 
     74 H74        19.4494  -28.1243  -39.1615 H         1 UNK         0.0716 
     75 H75        18.7089  -26.7305  -39.9093 H         1 UNK         0.0716 
     76 H76        20.3938  -25.2875  -42.2058 H         1 UNK         0.0695 
     77 H77        19.0635  -26.3805  -42.4561 H         1 UNK         0.0695 
     78 H78        20.5806  -27.8358  -43.9175 H         1 UNK         0.0983 
     79 H79        19.3775  -25.3536  -44.6121 H         1 UNK         0.3095 
     80 H80        19.6179  -24.5536  -47.1237 H         1 UNK         0.0454 
     81 H81        18.8528  -27.0909  -48.6625 H         1 UNK         0.0851 
     82 H82        20.2089  -26.0295  -49.0006 H         1 UNK         0.0851 
     83 H83        18.5687  -25.4419  -49.2174 H         1 UNK         0.0851 
     84 H84        17.5393  -24.4961  -46.3503 H         1 UNK         0.2976 
     85 H85        22.6831  -28.4006  -43.6012 H         1 UNK         0.3116 
     86 H86        24.8895  -26.6221  -44.2935 H         1 UNK         0.0646 
     87 H87        24.8754  -29.4660  -43.1424 H         1 UNK         0.0847 
     88 H88        26.2581  -28.6430  -43.8478 H         1 UNK         0.0847 
     89 H89        24.8872  -29.0622  -44.8597 H         1 UNK         0.0847 
     90 H90        23.0757  -26.9037  -41.5016 H         1 UNK         0.3040 
     91 H91        23.2085  -26.3131  -39.3758 H         1 UNK         0.1015 
     92 H92        25.8148  -24.8437  -40.0361 H         1 UNK         0.0786 
     93 H93        24.7888  -24.5840  -38.6354 H         1 UNK         0.0786 
     94 H94        24.1947  -24.1771  -40.2368 H         1 UNK         0.0786 
     95 H95        23.8957  -28.8709  -39.9085 H         1 UNK         0.3172 
     96 H96        25.5160  -29.6291  -37.6357 H         1 UNK         0.0595 
     97 H97        27.0477  -31.0844  -39.0111 H         1 UNK         0.0839 
     98 H98        27.2876  -29.3959  -39.4188 H         1 UNK         0.0839 
     99 H99        26.3564  -30.4343  -40.4935 H         1 UNK         0.0839 
    100 H100       25.2925  -31.9393  -37.2515 H         1 UNK         0.2998 
    101 H101       22.6683  -32.9392  -37.5806 H         1 UNK         0.0822 
    102 H102       23.6044  -34.9680  -36.4520 H         1 UNK         0.0787 
    103 H103       25.2385  -34.3712  -36.7055 H         1 UNK         0.0787 
    104 H104       24.1273  -33.4989  -35.6477 H         1 UNK         0.0787 
    105 H105       25.3444  -33.1694  -39.7272 H         1 UNK         0.3055 
    106 H106       24.5574  -35.5196  -41.2164 H         1 UNK         0.1106 
    107 H107       26.2426  -34.6620  -42.8475 H         1 UNK         0.0828 
    108 H108       26.3476  -33.1407  -41.9740 H         1 UNK         0.0828 
    109 H109       26.8953  -34.6393  -41.2199 H         1 UNK         0.0828 
    110 H110       23.1028  -32.4466  -40.9756 H         1 UNK         0.2931 
    111 H111       21.3777  -31.5224  -41.9033 H         1 UNK         0.0412 
    112 H112       23.5060  -32.7499  -44.5732 H         1 UNK         0.3472 
    113 H113       23.6004  -31.1973  -45.3867 H         1 UNK         0.3472 
    114 H114       21.0807  -33.7480  -43.9759 H         1 UNK         0.0970 
    115 H115       20.4906  -33.8854  -42.3491 H         1 UNK         0.0970 
    116 H116       18.8782  -32.6046  -41.2426 H         1 UNK         0.0612 
    117 H117       17.4059  -32.9147  -42.1297 H         1 UNK         0.0612 
@<TRIPOS>BOND
     1    1    2 1    
     2    1   62 1    
     3    1   63 1    
     4    1   64 1    
     5    2    3 2    
     6    2    4 am   BACKBONE|DICT|INTERRES
     7    4    5 1    
     8    4   65 1    
     9    5    6 1    
    10    5   25 1    
    11    5   66 1    
    12    6    7 1    
    13    6   67 1    
    14    6   68 1    
    15    7    8 1    
    16    8    9 1    
    17    8   69 1    
    18    8   70 1    
    19    9   10 ar   
    20    9   14 ar   
    21   10   11 ar   
    22   10   71 1    
    23   11   12 ar   
    24   11   61 1    
    25   12   13 ar   
    26   12   72 1    
    27   13   14 ar   
    28   13   15 1    
    29   14   73 1    
    30   15   16 1    
    31   15   74 1    
    32   15   75 1    
    33   16   17 1    
    34   17   18 1    
    35   17   76 1    
    36   17   77 1    
    37   18   19 1    
    38   18   27 1    
    39   18   78 1    
    40   19   20 am   BACKBONE|DICT|INTERRES
    41   19   79 1    
    42   20   21 2    
    43   20   22 1    
    44   22   23 1    
    45   22   24 1    
    46   22   80 1    
    47   23   81 1    
    48   23   82 1    
    49   23   83 1    
    50   24   25 am   BACKBONE|DICT|INTERRES
    51   24   84 1    
    52   25   26 2    
    53   27   28 2    
    54   27   29 am   BACKBONE|DICT|INTERRES
    55   29   30 1    
    56   29   85 1    
    57   30   31 1    
    58   30   32 1    
    59   30   86 1    
    60   31   87 1    
    61   31   88 1    
    62   31   89 1    
    63   32   33 2    
    64   32   34 am   BACKBONE|DICT|INTERRES
    65   34   35 1    
    66   34   90 1    
    67   35   36 1    
    68   35   37 1    
    69   35   91 1    
    70   36   92 1    
    71   36   93 1    
    72   36   94 1    
    73   37   38 2    
    74   37   39 am   BACKBONE|DICT|INTERRES
    75   39   40 1    
    76   39   95 1    
    77   40   41 1    
    78   40   42 1    
    79   40   96 1    
    80   41   97 1    
    81   41   98 1    
    82   41   99 1    
    83   42   43 2    
    84   42   44 am   BACKBONE|DICT|INTERRES
    85   44   45 1    
    86   44  100 1    
    87   45   46 1    
    88   45   47 1    
    89   45  101 1    
    90   46  102 1    
    91   46  103 1    
    92   46  104 1    
    93   47   48 2    
    94   47   49 am   BACKBONE|DICT|INTERRES
    95   49   50 1    
    96   49  105 1    
    97   50   51 1    
    98   50   52 1    
    99   50  106 1    
   100   51  107 1    
   101   51  108 1    
   102   51  109 1    
   103   52   53 2    
   104   52   54 am   BACKBONE|DICT|INTERRES
   105   54   55 1    
   106   54  110 1    
   107   55   56 1    
   108   55   59 1    
   109   55  111 1    
   110   56   57 am   BACKBONE|DICT|INTERRES
   111   56   58 2    
   112   57  112 1    
   113   57  113 1    
   114   59   60 1    
   115   59  114 1    
   116   59  115 1    
   117   60   61 1    
   118   61  116 1    
   119   61  117 1    
@<TRIPOS>SUBSTRUCTURE
     1 UNK         1 GROUP             0       ****    0 ROOT    
