@<TRIPOS>MOLECULE
3R8
117   119    1
SMALL
USER_CHARGES


@<TRIPOS>ATOM
      1 CA         13.0085  -22.6883  -44.0812 C.3       0 UNK        -0.2013 
      2 C          14.3004  -23.1582  -44.7332 C.2       0 UNK         0.4866 
      3 O          15.1527  -22.3328  -45.0626 O.2       0 UNK        -0.5176 
      4 N          14.4406  -24.4743  -44.9306 N.am      1 UNK        -0.4884 
      5 CA         15.6284  -25.1340  -45.4774 C.3       1 UNK         0.0853 
      6 C6         15.2468  -26.3435  -46.3760 C.3       10 UNK        -0.0849 
      7 S7         14.1139  -27.5593  -45.6028 S.3       10 UNK        -0.2776 
      8 C8         14.6046  -29.1094  -46.4217 C.3       10 UNK         0.0316 
      9 C9         15.9742  -29.5948  -45.9673 C.ar      10 UNK        -0.0863 
     10 C10        16.1146  -30.2803  -44.7564 C.ar      10 UNK        -0.1009 
     11 C11        17.3617  -30.7665  -44.3471 C.ar      10 UNK        -0.0712 
     12 C12        18.4729  -30.5508  -45.1720 C.ar      10 UNK        -0.0894 
     13 C13        18.3521  -29.8465  -46.3723 C.ar      10 UNK        -0.0745 
     14 C14        17.0978  -29.3803  -46.7695 C.ar      10 UNK        -0.0972 
     15 C15        19.5702  -29.6003  -47.2512 C.3       10 UNK         0.0209 
     16 S16        20.4436  -28.0682  -46.7889 S.3       10 UNK        -0.2568 
     17 C17        21.3993  -28.6069  -45.3286 C.3       10 UNK        -0.0983 
     18 CA         21.0398  -27.8411  -44.0262 C.3       3 UNK         0.0876 
     19 N          19.5956  -27.8528  -43.7514 N.am      3 UNK        -0.4424 
     20 C          18.9483  -27.0319  -42.9145 C.2       2 UNK         0.4918 
     21 O          19.5013  -26.1342  -42.2748 O.2       2 UNK        -0.4875 
     22 CA         17.4339  -27.2637  -42.7731 C.3       2 UNK         0.0481 
     23 CB         16.8827  -26.7329  -41.4338 C.3       2 UNK        -0.1831 
     24 N          16.6665  -26.7191  -43.8984 N.am      2 UNK        -0.4498 
     25 C          16.6121  -25.4484  -44.3277 C.2       1 UNK         0.5027 
     26 O          17.2732  -24.5289  -43.8432 O.2       1 UNK        -0.4969 
     27 C          21.8571  -28.3594  -42.8159 C.2       3 UNK         0.5005 
     28 O          22.5089  -29.3996  -42.9049 O.2       3 UNK        -0.5279 
     29 N          21.7880  -27.6395  -41.6899 N.am      4 UNK        -0.4463 
     30 CA         22.4126  -27.9846  -40.4094 C.3       4 UNK         0.0283 
     31 CB         21.6697  -27.2466  -39.2835 C.3       4 UNK        -0.1875 
     32 C          23.9263  -27.7096  -40.3409 C.2       4 UNK         0.4949 
     33 O          24.5399  -28.0141  -39.3167 O.2       4 UNK        -0.5039 
     34 N          24.5082  -27.1411  -41.4073 N.am      5 UNK        -0.4663 
     35 CA         25.9411  -26.8720  -41.5573 C.3       5 UNK         0.0242 
     36 CB         26.1960  -26.2394  -42.9348 C.3       5 UNK        -0.1982 
     37 C          26.7774  -28.1510  -41.3822 C.2       5 UNK         0.5017 
     38 O          26.5111  -29.1438  -42.0618 O.2       5 UNK        -0.5012 
     39 N          27.7256  -28.1158  -40.4346 N.am      6 UNK        -0.4439 
     40 CA         28.5725  -29.2345  -39.9925 C.3       6 UNK         0.0297 
     41 CB         29.5601  -29.6407  -41.1078 C.3       6 UNK        -0.2006 
     42 C          27.7836  -30.4433  -39.4373 C.2       6 UNK         0.4892 
     43 O          28.3084  -31.5580  -39.4419 O.2       6 UNK        -0.5089 
     44 N          26.5439  -30.2040  -38.9758 N.am      7 UNK        -0.4243 
     45 CA         25.5646  -31.1863  -38.4950 C.3       7 UNK         0.0196 
     46 CB         26.0441  -31.8543  -37.1882 C.3       7 UNK        -0.2007 
     47 C          25.1409  -32.2047  -39.5738 C.2       7 UNK         0.5020 
     48 O          24.8223  -33.3478  -39.2429 O.2       7 UNK        -0.5147 
     49 N          25.1328  -31.7803  -40.8472 N.am      8 UNK        -0.4734 
     50 CA         24.7649  -32.6132  -41.9988 C.3       8 UNK         0.0238 
     51 CB         25.2016  -31.9049  -43.2912 C.3       8 UNK        -0.1912 
     52 C          23.2699  -32.9795  -42.0654 C.2       8 UNK         0.5038 
     53 O          22.9223  -33.9440  -42.7483 O.2       8 UNK        -0.5046 
     54 N          22.4205  -32.2187  -41.3685 N.am      9 UNK        -0.4200 
     55 CA         20.9700  -32.4028  -41.2770 C.3       9 UNK         0.0839 
     56 C          20.4207  -31.7801  -39.9651 C.2       9 UNK         0.5513 
     57 N          19.1322  -31.9324  -39.6970 N.am      9 UNK        -0.7519 
     58 O          21.1468  -31.1673  -39.1843 O.2       9 UNK        -0.4960 
     59 C59        20.2482  -31.8954  -42.5576 C.3       10 UNK        -0.0876 
     60 S60        18.7191  -32.8205  -42.9381 S.3       10 UNK        -0.2414 
     61 C61        17.4718  -31.4870  -43.0006 C.3       10 UNK         0.0169 
     62 H62        13.2268  -22.1667  -43.1496 H         1 UNK         0.0903 
     63 H63        12.4831  -21.9997  -44.7424 H         1 UNK         0.0903 
     64 H64        12.3389  -23.5184  -43.8558 H         1 UNK         0.0903 
     65 H65        13.7072  -25.1041  -44.6342 H         1 UNK         0.3096 
     66 H66        16.1544  -24.4267  -46.1234 H         1 UNK         0.1121 
     67 H67        14.7512  -25.9723  -47.2745 H         1 UNK         0.0849 
     68 H68        16.1514  -26.8331  -46.7351 H         1 UNK         0.0849 
     69 H69        13.8590  -29.8747  -46.2003 H         1 UNK         0.0865 
     70 H70        14.5807  -28.9720  -47.5041 H         1 UNK         0.0865 
     71 H71        15.2449  -30.4380  -44.1324 H         1 UNK         0.1346 
     72 H72        19.4415  -30.9283  -44.8887 H         1 UNK         0.1412 
     73 H73        16.9980  -28.8526  -47.7085 H         1 UNK         0.1426 
     74 H74        19.2614  -29.5206  -48.2947 H         1 UNK         0.0716 
     75 H75        20.2538  -30.4496  -47.2071 H         1 UNK         0.0716 
     76 H76        22.4554  -28.4586  -45.5622 H         1 UNK         0.0695 
     77 H77        21.2826  -29.6822  -45.1935 H         1 UNK         0.0695 
     78 H78        21.3333  -26.7998  -44.1775 H         1 UNK         0.0983 
     79 H79        19.0591  -28.5351  -44.2694 H         1 UNK         0.3095 
     80 H80        17.2717  -28.3413  -42.7801 H         1 UNK         0.0454 
     81 H81        17.4147  -27.1768  -40.5914 H         1 UNK         0.0851 
     82 H82        15.8272  -26.9771  -41.3157 H         1 UNK         0.0851 
     83 H83        16.9871  -25.6508  -41.3479 H         1 UNK         0.0851 
     84 H84        16.0736  -27.3838  -44.3817 H         1 UNK         0.2976 
     85 H85        21.1704  -26.8309  -41.6968 H         1 UNK         0.3116 
     86 H86        22.2862  -29.0560  -40.2503 H         1 UNK         0.0646 
     87 H87        21.7588  -26.1642  -39.3830 H         1 UNK         0.0847 
     88 H88        20.6090  -27.4985  -39.2777 H         1 UNK         0.0847 
     89 H89        22.0683  -27.5192  -38.3052 H         1 UNK         0.0847 
     90 H90        23.9263  -26.9519  -42.2088 H         1 UNK         0.3040 
     91 H91        26.2224  -26.1502  -40.7876 H         1 UNK         0.1015 
     92 H92        27.2547  -26.0133  -43.0701 H         1 UNK         0.0786 
     93 H93        25.6486  -25.3038  -43.0513 H         1 UNK         0.0786 
     94 H94        25.8995  -26.9064  -43.7457 H         1 UNK         0.0786 
     95 H95        27.8457  -27.2559  -39.9159 H         1 UNK         0.3172 
     96 H96        29.1606  -28.8545  -39.1560 H         1 UNK         0.0595 
     97 H97        29.0481  -30.1018  -41.9531 H         1 UNK         0.0839 
     98 H98        30.2923  -30.3611  -40.7411 H         1 UNK         0.0839 
     99 H99        30.1156  -28.7802  -41.4804 H         1 UNK         0.0839 
    100 H100       26.1867  -29.2561  -39.0428 H         1 UNK         0.2998 
    101 H101       24.6636  -30.6184  -38.2575 H         1 UNK         0.0822 
    102 H102       25.2552  -32.4671  -36.7502 H         1 UNK         0.0787 
    103 H103       26.3254  -31.1108  -36.4426 H         1 UNK         0.0787 
    104 H104       26.9033  -32.5044  -37.3559 H         1 UNK         0.0787 
    105 H105       25.4446  -30.8378  -41.0544 H         1 UNK         0.3055 
    106 H106       25.3179  -33.5521  -41.9224 H         1 UNK         0.1106 
    107 H107       26.2768  -31.7250  -43.3015 H         1 UNK         0.0828 
    108 H108       24.9652  -32.5072  -44.1694 H         1 UNK         0.0828 
    109 H109       24.7014  -30.9429  -43.4107 H         1 UNK         0.0828 
    110 H110       22.7869  -31.4591  -40.8121 H         1 UNK         0.2931 
    111 H111       20.8080  -33.4782  -41.1800 H         1 UNK         0.0412 
    112 H112       18.5342  -32.4405  -40.3306 H         1 UNK         0.3472 
    113 H113       18.7558  -31.5424  -38.8472 H         1 UNK         0.3472 
    114 H114       20.0502  -30.8245  -42.4918 H         1 UNK         0.0970 
    115 H115       20.8994  -32.0149  -43.4246 H         1 UNK         0.0970 
    116 H116       16.5095  -31.9384  -42.7545 H         1 UNK         0.0612 
    117 H117       17.6729  -30.7573  -42.2154 H         1 UNK         0.0612 
@<TRIPOS>BOND
     1    1    2 1    
     2    1   62 1    
     3    1   63 1    
     4    1   64 1    
     5    2    3 2    
     6    2    4 am   BACKBONE|DICT|INTERRES
     7    4    5 1    
     8    4   65 1    
     9    5    6 1    
    10    5   25 1    
    11    5   66 1    
    12    6    7 1    
    13    6   67 1    
    14    6   68 1    
    15    7    8 1    
    16    8    9 1    
    17    8   69 1    
    18    8   70 1    
    19    9   10 ar   
    20    9   14 ar   
    21   10   11 ar   
    22   10   71 1    
    23   11   12 ar   
    24   11   61 1    
    25   12   13 ar   
    26   12   72 1    
    27   13   14 ar   
    28   13   15 1    
    29   14   73 1    
    30   15   16 1    
    31   15   74 1    
    32   15   75 1    
    33   16   17 1    
    34   17   18 1    
    35   17   76 1    
    36   17   77 1    
    37   18   19 1    
    38   18   27 1    
    39   18   78 1    
    40   19   20 am   BACKBONE|DICT|INTERRES
    41   19   79 1    
    42   20   21 2    
    43   20   22 1    
    44   22   23 1    
    45   22   24 1    
    46   22   80 1    
    47   23   81 1    
    48   23   82 1    
    49   23   83 1    
    50   24   25 am   BACKBONE|DICT|INTERRES
    51   24   84 1    
    52   25   26 2    
    53   27   28 2    
    54   27   29 am   BACKBONE|DICT|INTERRES
    55   29   30 1    
    56   29   85 1    
    57   30   31 1    
    58   30   32 1    
    59   30   86 1    
    60   31   87 1    
    61   31   88 1    
    62   31   89 1    
    63   32   33 2    
    64   32   34 am   BACKBONE|DICT|INTERRES
    65   34   35 1    
    66   34   90 1    
    67   35   36 1    
    68   35   37 1    
    69   35   91 1    
    70   36   92 1    
    71   36   93 1    
    72   36   94 1    
    73   37   38 2    
    74   37   39 am   BACKBONE|DICT|INTERRES
    75   39   40 1    
    76   39   95 1    
    77   40   41 1    
    78   40   42 1    
    79   40   96 1    
    80   41   97 1    
    81   41   98 1    
    82   41   99 1    
    83   42   43 2    
    84   42   44 am   BACKBONE|DICT|INTERRES
    85   44   45 1    
    86   44  100 1    
    87   45   46 1    
    88   45   47 1    
    89   45  101 1    
    90   46  102 1    
    91   46  103 1    
    92   46  104 1    
    93   47   48 2    
    94   47   49 am   BACKBONE|DICT|INTERRES
    95   49   50 1    
    96   49  105 1    
    97   50   51 1    
    98   50   52 1    
    99   50  106 1    
   100   51  107 1    
   101   51  108 1    
   102   51  109 1    
   103   52   53 2    
   104   52   54 am   BACKBONE|DICT|INTERRES
   105   54   55 1    
   106   54  110 1    
   107   55   56 1    
   108   55   59 1    
   109   55  111 1    
   110   56   57 am   BACKBONE|DICT|INTERRES
   111   56   58 2    
   112   57  112 1    
   113   57  113 1    
   114   59   60 1    
   115   59  114 1    
   116   59  115 1    
   117   60   61 1    
   118   61  116 1    
   119   61  117 1    
@<TRIPOS>SUBSTRUCTURE
     1 UNK         1 GROUP             0       ****    0 ROOT    
