@<TRIPOS>MOLECULE
3R8
117   119    1
SMALL
USER_CHARGES


@<TRIPOS>ATOM
      1 CA         14.6275  -21.2476  -44.6605 C.3       0 UNK        -0.2013 
      2 C          14.9173  -22.6823  -45.0757 C.2       0 UNK         0.4866 
      3 O          14.8021  -23.0130  -46.2565 O.2       0 UNK        -0.5176 
      4 N          15.2845  -23.5390  -44.1143 N.am      1 UNK        -0.4884 
      5 CA         15.6720  -24.9343  -44.3451 C.3       1 UNK         0.0853 
      6 C6         15.6056  -25.7504  -43.0316 C.3       10 UNK        -0.0849 
      7 S7         15.3868  -27.5385  -43.3217 S.3       10 UNK        -0.2776 
      8 C8         15.7699  -28.2216  -41.6757 C.3       10 UNK         0.0316 
      9 C9         17.2594  -28.4861  -41.5078 C.ar      10 UNK        -0.0863 
     10 C10        17.7870  -29.7484  -41.7977 C.ar      10 UNK        -0.1009 
     11 C11        19.1547  -29.9966  -41.6463 C.ar      10 UNK        -0.0712 
     12 C12        20.0005  -28.9700  -41.2177 C.ar      10 UNK        -0.0894 
     13 C13        19.4873  -27.6995  -40.9493 C.ar      10 UNK        -0.0745 
     14 C14        18.1137  -27.4723  -41.0662 C.ar      10 UNK        -0.0972 
     15 C15        20.4095  -26.5541  -40.5699 C.3       10 UNK         0.0209 
     16 S16        20.5925  -25.3911  -41.9589 S.3       10 UNK        -0.2568 
     17 C17        21.8408  -26.2166  -43.0034 C.3       10 UNK        -0.0983 
     18 CA         21.2647  -27.1245  -44.1266 C.3       3 UNK         0.0876 
     19 N          20.2612  -26.4481  -44.9506 N.am      3 UNK        -0.4424 
     20 C          19.4333  -27.0692  -45.7991 C.2       2 UNK         0.4918 
     21 O          19.3678  -28.2935  -45.9224 O.2       2 UNK        -0.4875 
     22 CA         18.5116  -26.1711  -46.6384 C.3       2 UNK         0.0481 
     23 CB         18.2064  -26.7876  -48.0157 C.3       2 UNK        -0.1831 
     24 N          17.2547  -25.9378  -45.9316 N.am      2 UNK        -0.4498 
     25 C          17.0727  -25.0030  -44.9915 C.2       1 UNK         0.5027 
     26 O          17.9541  -24.2192  -44.6272 O.2       1 UNK        -0.4969 
     27 C          22.4028  -27.6519  -45.0267 C.2       3 UNK         0.5005 
     28 O          23.2456  -26.8598  -45.4553 O.2       3 UNK        -0.5279 
     29 N          22.4152  -28.9624  -45.3117 N.am      4 UNK        -0.4463 
     30 CA         23.5028  -29.6274  -46.0452 C.3       4 UNK         0.0283 
     31 CB         23.0261  -30.9969  -46.5531 C.3       4 UNK        -0.1875 
     32 C          24.7772  -29.7763  -45.1918 C.2       4 UNK         0.4949 
     33 O          25.8792  -29.8279  -45.7373 O.2       4 UNK        -0.5039 
     34 N          24.5927  -29.8125  -43.8700 N.am      5 UNK        -0.4663 
     35 CA         25.6007  -29.7505  -42.8214 C.3       5 UNK         0.0242 
     36 CB         26.2359  -31.1350  -42.5939 C.3       5 UNK        -0.1982 
     37 C          24.8861  -29.2356  -41.5647 C.2       5 UNK         0.5017 
     38 O          23.6514  -29.1824  -41.5486 O.2       5 UNK        -0.5012 
     39 N          25.6625  -28.8670  -40.5389 N.am      6 UNK        -0.4439 
     40 CA         25.1753  -28.3398  -39.2617 C.3       6 UNK         0.0297 
     41 CB         26.3743  -27.8947  -38.4062 C.3       6 UNK        -0.2006 
     42 C          24.2999  -29.3594  -38.5108 C.2       6 UNK         0.4892 
     43 O          24.8338  -30.2959  -37.9139 O.2       6 UNK        -0.5089 
     44 N          22.9759  -29.1686  -38.5962 N.am      7 UNK        -0.4243 
     45 CA         21.8728  -29.9255  -37.9825 C.3       7 UNK         0.0196 
     46 CB         21.9434  -29.8468  -36.4452 C.3       7 UNK        -0.2007 
     47 C          21.7124  -31.3887  -38.4415 C.2       7 UNK         0.5020 
     48 O          20.5813  -31.8693  -38.5036 O.2       7 UNK        -0.5147 
     49 N          22.8186  -32.0825  -38.7276 N.am      8 UNK        -0.4734 
     50 CA         22.8428  -33.5039  -39.0773 C.3       8 UNK         0.0238 
     51 CB         24.2182  -34.0838  -38.7081 C.3       8 UNK        -0.1912 
     52 C          22.5293  -33.7855  -40.5550 C.2       8 UNK         0.5038 
     53 O          21.9692  -34.8416  -40.8500 O.2       8 UNK        -0.5046 
     54 N          22.9251  -32.8691  -41.4518 N.am      9 UNK        -0.4200 
     55 CA         22.8737  -33.0228  -42.9210 C.3       9 UNK         0.0839 
     56 C          23.7410  -34.1892  -43.4936 C.2       9 UNK         0.5513 
     57 N          24.7115  -34.7169  -42.7567 N.am      9 UNK        -0.7519 
     58 O          23.5651  -34.5976  -44.6384 O.2       9 UNK        -0.4960 
     59 C59        21.4220  -32.9990  -43.4845 C.3       10 UNK        -0.0876 
     60 S60        20.7285  -31.3151  -43.4709 S.3       10 UNK        -0.2414 
     61 C61        19.7292  -31.3666  -41.9586 C.3       10 UNK         0.0169 
     62 H62        13.6031  -20.9813  -44.9196 H         1 UNK         0.0903 
     63 H63        14.7553  -21.0989  -43.5884 H         1 UNK         0.0903 
     64 H64        15.2991  -20.5643  -45.1797 H         1 UNK         0.0903 
     65 H65        15.3999  -23.2015  -43.1692 H         1 UNK         0.3096 
     66 H66        14.9473  -25.3526  -45.0481 H         1 UNK         0.1121 
     67 H67        16.4865  -25.5642  -42.4179 H         1 UNK         0.0849 
     68 H68        14.7517  -25.4271  -42.4335 H         1 UNK         0.0849 
     69 H69        15.4112  -27.5475  -40.8961 H         1 UNK         0.0865 
     70 H70        15.2134  -29.1512  -41.5462 H         1 UNK         0.0865 
     71 H71        17.1329  -30.5369  -42.1442 H         1 UNK         0.1346 
     72 H72        21.0617  -29.1572  -41.1282 H         1 UNK         0.1412 
     73 H73        17.7206  -26.4922  -40.8378 H         1 UNK         0.1426 
     74 H74        21.3880  -26.9175  -40.2539 H         1 UNK         0.0716 
     75 H75        19.9889  -26.0214  -39.7158 H         1 UNK         0.0716 
     76 H76        22.4503  -25.4192  -43.4329 H         1 UNK         0.0695 
     77 H77        22.5143  -26.7906  -42.3645 H         1 UNK         0.0695 
     78 H78        20.7795  -27.9781  -43.6506 H         1 UNK         0.0983 
     79 H79        20.2152  -25.4421  -44.8664 H         1 UNK         0.3095 
     80 H80        19.0176  -25.2184  -46.8104 H         1 UNK         0.0454 
     81 H81        19.1276  -26.9917  -48.5629 H         1 UNK         0.0851 
     82 H82        17.6633  -27.7298  -47.9308 H         1 UNK         0.0851 
     83 H83        17.6096  -26.1118  -48.6284 H         1 UNK         0.0851 
     84 H84        16.5018  -26.5812  -46.1315 H         1 UNK         0.2976 
     85 H85        21.6608  -29.5480  -44.9739 H         1 UNK         0.3116 
     86 H86        23.7556  -29.0162  -46.9143 H         1 UNK         0.0646 
     87 H87        23.7950  -31.4728  -47.1630 H         1 UNK         0.0847 
     88 H88        22.1334  -30.9043  -47.1718 H         1 UNK         0.0847 
     89 H89        22.7991  -31.6779  -45.7342 H         1 UNK         0.0847 
     90 H90        23.6510  -29.7110  -43.5087 H         1 UNK         0.3040 
     91 H91        26.3680  -29.0287  -43.1103 H         1 UNK         0.1015 
     92 H92        26.6383  -31.5477  -43.5192 H         1 UNK         0.0786 
     93 H93        25.5209  -31.8514  -42.1930 H         1 UNK         0.0786 
     94 H94        27.0621  -31.0742  -41.8849 H         1 UNK         0.0786 
     95 H95        26.6631  -28.9717  -40.6272 H         1 UNK         0.3172 
     96 H96        24.5731  -27.4535  -39.4740 H         1 UNK         0.0595 
     97 H97        26.9441  -27.1064  -38.8985 H         1 UNK         0.0839 
     98 H98        27.0547  -28.7217  -38.1983 H         1 UNK         0.0839 
     99 H99        26.0414  -27.4995  -37.4454 H         1 UNK         0.0839 
    100 H100       22.6781  -28.4140  -39.1976 H         1 UNK         0.2998 
    101 H101       20.9612  -29.4117  -38.2930 H         1 UNK         0.0822 
    102 H102       21.9581  -28.8126  -36.1012 H         1 UNK         0.0787 
    103 H103       21.0759  -30.3269  -35.9903 H         1 UNK         0.0787 
    104 H104       22.8310  -30.3441  -36.0526 H         1 UNK         0.0787 
    105 H105       23.7093  -31.6146  -38.5740 H         1 UNK         0.3055 
    106 H106       22.0876  -34.0231  -38.4821 H         1 UNK         0.1106 
    107 H107       25.0269  -33.5850  -39.2438 H         1 UNK         0.0828 
    108 H108       24.4149  -33.9838  -37.6404 H         1 UNK         0.0828 
    109 H109       24.2728  -35.1471  -38.9469 H         1 UNK         0.0828 
    110 H110       23.3456  -32.0184  -41.1088 H         1 UNK         0.2931 
    111 H111       23.3762  -32.1397  -43.3098 H         1 UNK         0.0412 
    112 H112       25.2727  -35.4590  -43.1445 H         1 UNK         0.3472 
    113 H113       24.8821  -34.3942  -41.8191 H         1 UNK         0.3472 
    114 H114       20.7715  -33.6880  -42.9444 H         1 UNK         0.0970 
    115 H115       21.3905  -33.3264  -44.5246 H         1 UNK         0.0970 
    116 H116       20.3492  -31.6963  -41.1270 H         1 UNK         0.0612 
    117 H117       18.9365  -32.1075  -42.0724 H         1 UNK         0.0612 
@<TRIPOS>BOND
     1    1    2 1    
     2    1   62 1    
     3    1   63 1    
     4    1   64 1    
     5    2    3 2    
     6    2    4 am   BACKBONE|DICT|INTERRES
     7    4    5 1    
     8    4   65 1    
     9    5    6 1    
    10    5   25 1    
    11    5   66 1    
    12    6    7 1    
    13    6   67 1    
    14    6   68 1    
    15    7    8 1    
    16    8    9 1    
    17    8   69 1    
    18    8   70 1    
    19    9   10 ar   
    20    9   14 ar   
    21   10   11 ar   
    22   10   71 1    
    23   11   12 ar   
    24   11   61 1    
    25   12   13 ar   
    26   12   72 1    
    27   13   14 ar   
    28   13   15 1    
    29   14   73 1    
    30   15   16 1    
    31   15   74 1    
    32   15   75 1    
    33   16   17 1    
    34   17   18 1    
    35   17   76 1    
    36   17   77 1    
    37   18   19 1    
    38   18   27 1    
    39   18   78 1    
    40   19   20 am   BACKBONE|DICT|INTERRES
    41   19   79 1    
    42   20   21 2    
    43   20   22 1    
    44   22   23 1    
    45   22   24 1    
    46   22   80 1    
    47   23   81 1    
    48   23   82 1    
    49   23   83 1    
    50   24   25 am   BACKBONE|DICT|INTERRES
    51   24   84 1    
    52   25   26 2    
    53   27   28 2    
    54   27   29 am   BACKBONE|DICT|INTERRES
    55   29   30 1    
    56   29   85 1    
    57   30   31 1    
    58   30   32 1    
    59   30   86 1    
    60   31   87 1    
    61   31   88 1    
    62   31   89 1    
    63   32   33 2    
    64   32   34 am   BACKBONE|DICT|INTERRES
    65   34   35 1    
    66   34   90 1    
    67   35   36 1    
    68   35   37 1    
    69   35   91 1    
    70   36   92 1    
    71   36   93 1    
    72   36   94 1    
    73   37   38 2    
    74   37   39 am   BACKBONE|DICT|INTERRES
    75   39   40 1    
    76   39   95 1    
    77   40   41 1    
    78   40   42 1    
    79   40   96 1    
    80   41   97 1    
    81   41   98 1    
    82   41   99 1    
    83   42   43 2    
    84   42   44 am   BACKBONE|DICT|INTERRES
    85   44   45 1    
    86   44  100 1    
    87   45   46 1    
    88   45   47 1    
    89   45  101 1    
    90   46  102 1    
    91   46  103 1    
    92   46  104 1    
    93   47   48 2    
    94   47   49 am   BACKBONE|DICT|INTERRES
    95   49   50 1    
    96   49  105 1    
    97   50   51 1    
    98   50   52 1    
    99   50  106 1    
   100   51  107 1    
   101   51  108 1    
   102   51  109 1    
   103   52   53 2    
   104   52   54 am   BACKBONE|DICT|INTERRES
   105   54   55 1    
   106   54  110 1    
   107   55   56 1    
   108   55   59 1    
   109   55  111 1    
   110   56   57 am   BACKBONE|DICT|INTERRES
   111   56   58 2    
   112   57  112 1    
   113   57  113 1    
   114   59   60 1    
   115   59  114 1    
   116   59  115 1    
   117   60   61 1    
   118   61  116 1    
   119   61  117 1    
@<TRIPOS>SUBSTRUCTURE
     1 UNK         1 GROUP             0       ****    0 ROOT    
