@<TRIPOS>MOLECULE
3R8
117   119    1
SMALL
USER_CHARGES


@<TRIPOS>ATOM
      1 CA         18.6234  -24.3937  -50.1198 C.3       0 UNK        -0.2013 
      2 C          19.4070  -24.8059  -48.8825 C.2       0 UNK         0.4866 
      3 O          20.5562  -24.3938  -48.7197 O.2       0 UNK        -0.5176 
      4 N          18.7995  -25.6238  -48.0147 N.am      1 UNK        -0.4884 
      5 CA         19.3844  -26.0848  -46.7517 C.3       1 UNK         0.0853 
      6 C6         18.5692  -27.2438  -46.1255 C.3       10 UNK        -0.0849 
      7 S7         18.4045  -28.7238  -47.1823 S.3       10 UNK        -0.2776 
      8 C8         19.0746  -30.0537  -46.1110 C.3       10 UNK         0.0316 
      9 C9         18.4500  -30.1892  -44.7157 C.ar      10 UNK        -0.0863 
     10 C10        19.1503  -30.9041  -43.7375 C.ar      10 UNK        -0.1009 
     11 C11        18.6537  -31.0198  -42.4344 C.ar      10 UNK        -0.0712 
     12 C12        17.4493  -30.3953  -42.1021 C.ar      10 UNK        -0.0894 
     13 C13        16.7520  -29.6541  -43.0585 C.ar      10 UNK        -0.0745 
     14 C14        17.2290  -29.5957  -44.3696 C.ar      10 UNK        -0.0972 
     15 C15        15.5306  -28.8401  -42.6639 C.3       10 UNK         0.0209 
     16 S16        15.9637  -27.0743  -42.4866 S.3       10 UNK        -0.2568 
     17 C17        17.0386  -27.0919  -41.0098 C.3       10 UNK        -0.0983 
     18 CA         18.5513  -27.1023  -41.3530 C.3       3 UNK         0.0876 
     19 N          18.9735  -25.9035  -42.0886 N.am      3 UNK        -0.4424 
     20 C          20.2228  -25.6306  -42.4920 C.2       2 UNK         0.4918 
     21 O          21.2086  -26.3240  -42.2303 O.2       2 UNK        -0.4875 
     22 CA         20.3803  -24.4582  -43.4651 C.3       2 UNK         0.0481 
     23 CB         21.6785  -23.6657  -43.2288 C.3       2 UNK        -0.1831 
     24 N          20.4124  -25.0840  -44.7821 N.am      2 UNK        -0.4498 
     25 C          19.4623  -24.9472  -45.7125 C.2       1 UNK         0.5027 
     26 O          18.6115  -24.0532  -45.7059 O.2       1 UNK        -0.4969 
     27 C          19.3921  -27.3341  -40.0819 C.2       3 UNK         0.5005 
     28 O          19.4220  -26.4655  -39.2082 O.2       3 UNK        -0.5279 
     29 N          20.0943  -28.4763  -40.0384 N.am      4 UNK        -0.4463 
     30 CA         21.0272  -28.9548  -39.0044 C.3       4 UNK         0.0283 
     31 CB         20.3370  -29.0745  -37.6318 C.3       4 UNK        -0.1875 
     32 C          22.3481  -28.1656  -38.8967 C.2       4 UNK         0.4949 
     33 O          23.3454  -28.7329  -38.4509 O.2       4 UNK        -0.5039 
     34 N          22.3507  -26.8910  -39.3036 N.am      5 UNK        -0.4663 
     35 CA         23.5199  -26.0126  -39.3200 C.3       5 UNK         0.0242 
     36 CB         23.0545  -24.5532  -39.4411 C.3       5 UNK        -0.1982 
     37 C          24.5099  -26.3619  -40.4423 C.2       5 UNK         0.5017 
     38 O          25.7183  -26.2765  -40.2206 O.2       5 UNK        -0.5012 
     39 N          23.9886  -26.7416  -41.6189 N.am      6 UNK        -0.4439 
     40 CA         24.7806  -27.1371  -42.7873 C.3       6 UNK         0.0297 
     41 CB         23.8727  -27.2220  -44.0263 C.3       6 UNK        -0.2006 
     42 C          25.5315  -28.4629  -42.5786 C.2       6 UNK         0.4892 
     43 O          26.7136  -28.5506  -42.9127 O.2       6 UNK        -0.5089 
     44 N          24.8270  -29.4574  -42.0290 N.am      7 UNK        -0.4243 
     45 CA         25.2813  -30.8163  -41.7461 C.3       7 UNK         0.0196 
     46 CB         25.6051  -31.5704  -43.0542 C.3       7 UNK        -0.2007 
     47 C          24.1548  -31.5326  -40.9942 C.2       7 UNK         0.5020 
     48 O          23.0161  -31.0572  -41.0053 O.2       7 UNK        -0.5147 
     49 N          24.4581  -32.7041  -40.4201 N.am      8 UNK        -0.4734 
     50 CA         23.5090  -33.5913  -39.7280 C.3       8 UNK         0.0238 
     51 CB         24.2941  -34.5170  -38.7796 C.3       8 UNK        -0.1912 
     52 C          22.5862  -34.3758  -40.6912 C.2       8 UNK         0.5038 
     53 O          22.3728  -35.5755  -40.5092 O.2       8 UNK        -0.5046 
     54 N          22.0695  -33.6722  -41.7031 N.am      9 UNK        -0.4200 
     55 CA         21.1454  -34.1206  -42.7565 C.3       9 UNK         0.0839 
     56 C          21.7444  -35.1597  -43.7531 C.2       9 UNK         0.5513 
     57 N          23.0586  -35.3390  -43.8122 N.am      9 UNK        -0.7519 
     58 O          21.0120  -35.7910  -44.5109 O.2       9 UNK        -0.4960 
     59 C59        19.7458  -34.5454  -42.2201 C.3       10 UNK        -0.0876 
     60 S60        18.8816  -33.4357  -41.0404 S.3       10 UNK        -0.2414 
     61 C61        19.4540  -31.7325  -41.3548 C.3       10 UNK         0.0169 
     62 H62        17.6301  -24.8417  -50.1416 H         1 UNK         0.0903 
     63 H63        18.5073  -23.3106  -50.1463 H         1 UNK         0.0903 
     64 H64        19.1539  -24.7022  -51.0202 H         1 UNK         0.0903 
     65 H65        17.8536  -25.9298  -48.1931 H         1 UNK         0.3096 
     66 H66        20.3977  -26.4370  -46.9590 H         1 UNK         0.1121 
     67 H67        17.5612  -26.9051  -45.8754 H         1 UNK         0.0849 
     68 H68        19.0227  -27.5431  -45.1785 H         1 UNK         0.0849 
     69 H69        18.9602  -31.0045  -46.6331 H         1 UNK         0.0865 
     70 H70        20.1485  -29.8888  -46.0086 H         1 UNK         0.0865 
     71 H71        20.1025  -31.3455  -43.9907 H         1 UNK         0.1346 
     72 H72        17.0818  -30.4463  -41.0861 H         1 UNK         0.1412 
     73 H73        16.6664  -29.0306  -45.0983 H         1 UNK         0.1426 
     74 H74        15.0941  -29.2099  -41.7347 H         1 UNK         0.0716 
     75 H75        14.7594  -28.9431  -43.4287 H         1 UNK         0.0716 
     76 H76        16.7731  -27.9566  -40.3986 H         1 UNK         0.0695 
     77 H77        16.7956  -26.2159  -40.4054 H         1 UNK         0.0695 
     78 H78        18.7373  -27.9364  -42.0308 H         1 UNK         0.0983 
     79 H79        18.2263  -25.2881  -42.3753 H         1 UNK         0.3095 
     80 H80        19.5311  -23.7798  -43.3586 H         1 UNK         0.0454 
     81 H81        22.5647  -24.3002  -43.2408 H         1 UNK         0.0851 
     82 H82        21.6512  -23.1610  -42.2631 H         1 UNK         0.0851 
     83 H83        21.8120  -22.8966  -43.9894 H         1 UNK         0.0851 
     84 H84        21.0518  -25.8631  -44.8587 H         1 UNK         0.2976 
     85 H85        20.0460  -29.0716  -40.8533 H         1 UNK         0.3116 
     86 H86        21.3049  -29.9641  -39.3100 H         1 UNK         0.0646 
     87 H87        20.0594  -28.1011  -37.2268 H         1 UNK         0.0847 
     88 H88        20.9997  -29.5469  -36.9056 H         1 UNK         0.0847 
     89 H89        19.4358  -29.6844  -37.6919 H         1 UNK         0.0847 
     90 H90        21.4699  -26.4981  -39.6148 H         1 UNK         0.3040 
     91 H91        24.0463  -26.1258  -38.3694 H         1 UNK         0.1015 
     92 H92        22.4868  -24.3875  -40.3565 H         1 UNK         0.0786 
     93 H93        23.9052  -23.8704  -39.4542 H         1 UNK         0.0786 
     94 H94        22.4227  -24.2681  -38.5996 H         1 UNK         0.0786 
     95 H95        22.9763  -26.7336  -41.7264 H         1 UNK         0.3172 
     96 H96        25.5251  -26.3587  -42.9679 H         1 UNK         0.0595 
     97 H97        23.0533  -27.9274  -43.8821 H         1 UNK         0.0839 
     98 H98        24.4357  -27.5497  -44.9015 H         1 UNK         0.0839 
     99 H99        23.4415  -26.2519  -44.2686 H         1 UNK         0.0839 
    100 H100       23.8652  -29.2937  -41.7551 H         1 UNK         0.2998 
    101 H101       26.1636  -30.7694  -41.1049 H         1 UNK         0.0822 
    102 H102       26.4288  -31.1067  -43.5961 H         1 UNK         0.0787 
    103 H103       25.9020  -32.6010  -42.8563 H         1 UNK         0.0787 
    104 H104       24.7433  -31.6019  -43.7223 H         1 UNK         0.0787 
    105 H105       25.4080  -33.0412  -40.4919 H         1 UNK         0.3055 
    106 H106       22.8514  -32.9715  -39.1136 H         1 UNK         0.1106 
    107 H107       23.6192  -35.1386  -38.1894 H         1 UNK         0.0828 
    108 H108       24.9585  -35.1862  -39.3276 H         1 UNK         0.0828 
    109 H109       24.8981  -33.9448  -38.0751 H         1 UNK         0.0828 
    110 H110       22.3188  -32.6887  -41.7302 H         1 UNK         0.2931 
    111 H111       20.9922  -33.2413  -43.3768 H         1 UNK         0.0412 
    112 H112       23.4376  -36.0049  -44.4673 H         1 UNK         0.3472 
    113 H113       23.6714  -34.8286  -43.1976 H         1 UNK         0.3472 
    114 H114       19.0651  -34.6929  -43.0605 H         1 UNK         0.0970 
    115 H115       19.8251  -35.5209  -41.7373 H         1 UNK         0.0970 
    116 H116       19.3409  -31.1870  -40.4175 H         1 UNK         0.0612 
    117 H117       20.5143  -31.6848  -41.5814 H         1 UNK         0.0612 
@<TRIPOS>BOND
     1    1    2 1    
     2    1   62 1    
     3    1   63 1    
     4    1   64 1    
     5    2    3 2    
     6    2    4 am   BACKBONE|DICT|INTERRES
     7    4    5 1    
     8    4   65 1    
     9    5    6 1    
    10    5   25 1    
    11    5   66 1    
    12    6    7 1    
    13    6   67 1    
    14    6   68 1    
    15    7    8 1    
    16    8    9 1    
    17    8   69 1    
    18    8   70 1    
    19    9   10 ar   
    20    9   14 ar   
    21   10   11 ar   
    22   10   71 1    
    23   11   12 ar   
    24   11   61 1    
    25   12   13 ar   
    26   12   72 1    
    27   13   14 ar   
    28   13   15 1    
    29   14   73 1    
    30   15   16 1    
    31   15   74 1    
    32   15   75 1    
    33   16   17 1    
    34   17   18 1    
    35   17   76 1    
    36   17   77 1    
    37   18   19 1    
    38   18   27 1    
    39   18   78 1    
    40   19   20 am   BACKBONE|DICT|INTERRES
    41   19   79 1    
    42   20   21 2    
    43   20   22 1    
    44   22   23 1    
    45   22   24 1    
    46   22   80 1    
    47   23   81 1    
    48   23   82 1    
    49   23   83 1    
    50   24   25 am   BACKBONE|DICT|INTERRES
    51   24   84 1    
    52   25   26 2    
    53   27   28 2    
    54   27   29 am   BACKBONE|DICT|INTERRES
    55   29   30 1    
    56   29   85 1    
    57   30   31 1    
    58   30   32 1    
    59   30   86 1    
    60   31   87 1    
    61   31   88 1    
    62   31   89 1    
    63   32   33 2    
    64   32   34 am   BACKBONE|DICT|INTERRES
    65   34   35 1    
    66   34   90 1    
    67   35   36 1    
    68   35   37 1    
    69   35   91 1    
    70   36   92 1    
    71   36   93 1    
    72   36   94 1    
    73   37   38 2    
    74   37   39 am   BACKBONE|DICT|INTERRES
    75   39   40 1    
    76   39   95 1    
    77   40   41 1    
    78   40   42 1    
    79   40   96 1    
    80   41   97 1    
    81   41   98 1    
    82   41   99 1    
    83   42   43 2    
    84   42   44 am   BACKBONE|DICT|INTERRES
    85   44   45 1    
    86   44  100 1    
    87   45   46 1    
    88   45   47 1    
    89   45  101 1    
    90   46  102 1    
    91   46  103 1    
    92   46  104 1    
    93   47   48 2    
    94   47   49 am   BACKBONE|DICT|INTERRES
    95   49   50 1    
    96   49  105 1    
    97   50   51 1    
    98   50   52 1    
    99   50  106 1    
   100   51  107 1    
   101   51  108 1    
   102   51  109 1    
   103   52   53 2    
   104   52   54 am   BACKBONE|DICT|INTERRES
   105   54   55 1    
   106   54  110 1    
   107   55   56 1    
   108   55   59 1    
   109   55  111 1    
   110   56   57 am   BACKBONE|DICT|INTERRES
   111   56   58 2    
   112   57  112 1    
   113   57  113 1    
   114   59   60 1    
   115   59  114 1    
   116   59  115 1    
   117   60   61 1    
   118   61  116 1    
   119   61  117 1    
@<TRIPOS>SUBSTRUCTURE
     1 UNK         1 GROUP             0       ****    0 ROOT    
