@<TRIPOS>MOLECULE
3R8
117   119    1
SMALL
USER_CHARGES


@<TRIPOS>ATOM
      1 CA         14.8262  -22.7912  -43.5042 C.3       0 UNK        -0.2013 
      2 C          15.9932  -23.7618  -43.6032 C.2       0 UNK         0.4866 
      3 O          16.8713  -23.7474  -42.7395 O.2       0 UNK        -0.5176 
      4 N          16.0110  -24.5939  -44.6546 N.am      1 UNK        -0.4884 
      5 CA         17.0006  -25.6347  -44.9821 C.3       1 UNK         0.0853 
      6 C6         17.1635  -26.7254  -43.8912 C.3       10 UNK        -0.0849 
      7 S7         15.6620  -27.7321  -43.6268 S.3       10 UNK        -0.2776 
      8 C8         15.9026  -29.1528  -44.7520 C.3       10 UNK         0.0316 
      9 C9         17.2344  -29.8596  -44.5335 C.ar      10 UNK        -0.0863 
     10 C10        17.4345  -30.6788  -43.4186 C.ar      10 UNK        -0.1009 
     11 C11        18.6779  -31.2800  -43.1951 C.ar      10 UNK        -0.0712 
     12 C12        19.7241  -31.0462  -44.0950 C.ar      10 UNK        -0.0894 
     13 C13        19.5358  -30.2412  -45.2227 C.ar      10 UNK        -0.0745 
     14 C14        18.2775  -29.6709  -45.4442 C.ar      10 UNK        -0.0972 
     15 C15        20.6888  -30.0249  -46.2016 C.3       10 UNK         0.0209 
     16 S16        20.7399  -28.3373  -46.9026 S.3       10 UNK        -0.2568 
     17 C17        22.4012  -27.7406  -46.4380 C.3       10 UNK        -0.0983 
     18 CA         22.4357  -26.8508  -45.1699 C.3       3 UNK         0.0876 
     19 N          21.4646  -25.7481  -45.2176 N.am      3 UNK        -0.4424 
     20 C          21.4596  -24.6841  -44.4030 C.2       2 UNK         0.4918 
     21 O          22.2847  -24.5172  -43.5043 O.2       2 UNK        -0.4875 
     22 CA         20.3272  -23.6558  -44.5823 C.3       2 UNK         0.0481 
     23 CB         20.5360  -22.7982  -45.8454 C.3       2 UNK        -0.1831 
     24 N          18.9803  -24.2420  -44.5263 N.am      2 UNK        -0.4498 
     25 C          18.3812  -25.0758  -45.3871 C.2       1 UNK         0.5027 
     26 O          18.8877  -25.4386  -46.4485 O.2       1 UNK        -0.4969 
     27 C          22.3575  -27.6903  -43.8776 C.2       3 UNK         0.5005 
     28 O          23.3527  -28.3217  -43.5178 O.2       3 UNK        -0.5279 
     29 N          21.2175  -27.6335  -43.1706 N.am      4 UNK        -0.4463 
     30 CA         20.9745  -28.2708  -41.8709 C.3       4 UNK         0.0283 
     31 CB         19.5237  -28.0132  -41.4367 C.3       4 UNK        -0.1875 
     32 C          21.9475  -27.8429  -40.7552 C.2       4 UNK         0.4949 
     33 O          22.1122  -28.5794  -39.7838 O.2       4 UNK        -0.5039 
     34 N          22.5841  -26.6729  -40.9100 N.am      5 UNK        -0.4663 
     35 CA         23.6413  -26.1823  -40.0243 C.3       5 UNK         0.0242 
     36 CB         23.8510  -24.6820  -40.2852 C.3       5 UNK        -0.1982 
     37 C          24.9720  -26.9450  -40.1781 C.2       5 UNK         0.5017 
     38 O          25.7819  -26.9117  -39.2509 O.2       5 UNK        -0.5012 
     39 N          25.1828  -27.5965  -41.3309 N.am      6 UNK        -0.4439 
     40 CA         26.3819  -28.3713  -41.6509 C.3       6 UNK         0.0297 
     41 CB         26.9281  -27.9278  -43.0194 C.3       6 UNK        -0.2006 
     42 C          26.0706  -29.8734  -41.6446 C.2       6 UNK         0.4892 
     43 O          26.7413  -30.6292  -40.9405 O.2       6 UNK        -0.5089 
     44 N          25.0553  -30.2779  -42.4168 N.am      7 UNK        -0.4243 
     45 CA         24.5642  -31.6484  -42.5076 C.3       7 UNK         0.0196 
     46 CB         24.1496  -31.9301  -43.9636 C.3       7 UNK        -0.2007 
     47 C          23.3878  -31.7875  -41.5373 C.2       7 UNK         0.5020 
     48 O          22.2498  -31.5483  -41.9276 O.2       7 UNK        -0.5147 
     49 N          23.6838  -32.1268  -40.2774 N.am      8 UNK        -0.4734 
     50 CA         22.7288  -32.1223  -39.1604 C.3       8 UNK         0.0238 
     51 CB         23.5071  -32.3166  -37.8478 C.3       8 UNK        -0.1912 
     52 C          21.5657  -33.1321  -39.2526 C.2       8 UNK         0.5038 
     53 O          20.6177  -33.0060  -38.4763 O.2       8 UNK        -0.5046 
     54 N          21.6583  -34.1140  -40.1611 N.am      9 UNK        -0.4200 
     55 CA         20.6903  -35.2097  -40.3631 C.3       9 UNK         0.0839 
     56 C          20.6181  -36.2275  -39.1815 C.2       9 UNK         0.5513 
     57 N          21.6057  -36.2833  -38.2954 N.am      9 UNK        -0.7519 
     58 O          19.6721  -37.0049  -39.0799 O.2       9 UNK        -0.4960 
     59 C59        19.2822  -34.7198  -40.8207 C.3       10 UNK        -0.0876 
     60 S60        19.3025  -33.8745  -42.4385 S.3       10 UNK        -0.2414 
     61 C61        18.8980  -32.1610  -41.9710 C.3       10 UNK         0.0169 
     62 H62        14.2848  -22.9516  -42.5722 H         1 UNK         0.0903 
     63 H63        15.1907  -21.7643  -43.5140 H         1 UNK         0.0903 
     64 H64        14.1235  -22.9100  -44.3287 H         1 UNK         0.0903 
     65 H65        15.2589  -24.5192  -45.3263 H         1 UNK         0.3096 
     66 H66        16.6154  -26.1296  -45.8756 H         1 UNK         0.1121 
     67 H67        17.4263  -26.2745  -42.9339 H         1 UNK         0.0849 
     68 H68        18.0006  -27.3795  -44.1278 H         1 UNK         0.0849 
     69 H69        15.0881  -29.8631  -44.6034 H         1 UNK         0.0865 
     70 H70        15.8152  -28.8065  -45.7831 H         1 UNK         0.0865 
     71 H71        16.6257  -30.8308  -42.7170 H         1 UNK         0.1346 
     72 H72        20.6868  -31.5045  -43.9166 H         1 UNK         0.1412 
     73 H73        18.1146  -29.0509  -46.3150 H         1 UNK         0.1426 
     74 H74        21.6374  -30.2496  -45.7134 H         1 UNK         0.0716 
     75 H75        20.5882  -30.7386  -47.0200 H         1 UNK         0.0716 
     76 H76        23.0948  -28.5796  -46.3536 H         1 UNK         0.0695 
     77 H77        22.7691  -27.1558  -47.2823 H         1 UNK         0.0695 
     78 H78        23.4236  -26.3850  -45.1436 H         1 UNK         0.0983 
     79 H79        20.7229  -25.8258  -45.9088 H         1 UNK         0.3095 
     80 H80        20.3803  -22.9815  -43.7260 H         1 UNK         0.0454 
     81 H81        20.5215  -23.3934  -46.7586 H         1 UNK         0.0851 
     82 H82        19.7665  -22.0315  -45.9340 H         1 UNK         0.0851 
     83 H83        21.4989  -22.2872  -45.8108 H         1 UNK         0.0851 
     84 H84        18.4356  -24.0057  -43.6980 H         1 UNK         0.2976 
     85 H85        20.4608  -27.0909  -43.5568 H         1 UNK         0.3116 
     86 H86        21.0939  -29.3434  -42.0126 H         1 UNK         0.0646 
     87 H87        19.3113  -26.9480  -41.3396 H         1 UNK         0.0847 
     88 H88        19.3183  -28.4763  -40.4706 H         1 UNK         0.0847 
     89 H89        18.8170  -28.4414  -42.1459 H         1 UNK         0.0847 
     90 H90        22.3817  -26.1141  -41.7294 H         1 UNK         0.3040 
     91 H91        23.3108  -26.3092  -38.9907 H         1 UNK         0.1015 
     92 H92        22.9337  -24.1174  -40.1163 H         1 UNK         0.0786 
     93 H93        24.1772  -24.4924  -41.3088 H         1 UNK         0.0786 
     94 H94        24.6108  -24.2713  -39.6187 H         1 UNK         0.0786 
     95 H95        24.4341  -27.6238  -42.0163 H         1 UNK         0.3172 
     96 H96        27.1630  -28.1918  -40.9091 H         1 UNK         0.0595 
     97 H97        27.2224  -26.8783  -43.0037 H         1 UNK         0.0839 
     98 H98        26.1939  -28.0549  -43.8160 H         1 UNK         0.0839 
     99 H99        27.8111  -28.5070  -43.2932 H         1 UNK         0.0839 
    100 H100       24.4988  -29.5785  -42.9063 H         1 UNK         0.2998 
    101 H101       25.3436  -32.3614  -42.2298 H         1 UNK         0.0822 
    102 H102       25.0060  -31.8729  -44.6355 H         1 UNK         0.0787 
    103 H103       23.7227  -32.9289  -44.0621 H         1 UNK         0.0787 
    104 H104       23.4026  -31.2180  -44.3164 H         1 UNK         0.0787 
    105 H105       24.6543  -32.2829  -40.0412 H         1 UNK         0.3055 
    106 H106       22.2664  -31.1334  -39.1355 H         1 UNK         0.1106 
    107 H107       22.8393  -32.2828  -36.9857 H         1 UNK         0.0828 
    108 H108       24.0234  -33.2769  -37.8225 H         1 UNK         0.0828 
    109 H109       24.2493  -31.5305  -37.7068 H         1 UNK         0.0828 
    110 H110       22.4717  -34.1285  -40.7577 H         1 UNK         0.2931 
    111 H111       21.1008  -35.7954  -41.1864 H         1 UNK         0.0412 
    112 H112       21.5561  -36.9518  -37.5424 H         1 UNK         0.3472 
    113 H113       22.3976  -35.6658  -38.3717 H         1 UNK         0.3472 
    114 H114       18.8264  -34.0806  -40.0638 H         1 UNK         0.0970 
    115 H115       18.6033  -35.5668  -40.9326 H         1 UNK         0.0970 
    116 H116       19.7026  -31.7461  -41.3637 H         1 UNK         0.0612 
    117 H117       18.0070  -32.1665  -41.3415 H         1 UNK         0.0612 
@<TRIPOS>BOND
     1    1    2 1    
     2    1   62 1    
     3    1   63 1    
     4    1   64 1    
     5    2    3 2    
     6    2    4 am   BACKBONE|DICT|INTERRES
     7    4    5 1    
     8    4   65 1    
     9    5    6 1    
    10    5   25 1    
    11    5   66 1    
    12    6    7 1    
    13    6   67 1    
    14    6   68 1    
    15    7    8 1    
    16    8    9 1    
    17    8   69 1    
    18    8   70 1    
    19    9   10 ar   
    20    9   14 ar   
    21   10   11 ar   
    22   10   71 1    
    23   11   12 ar   
    24   11   61 1    
    25   12   13 ar   
    26   12   72 1    
    27   13   14 ar   
    28   13   15 1    
    29   14   73 1    
    30   15   16 1    
    31   15   74 1    
    32   15   75 1    
    33   16   17 1    
    34   17   18 1    
    35   17   76 1    
    36   17   77 1    
    37   18   19 1    
    38   18   27 1    
    39   18   78 1    
    40   19   20 am   BACKBONE|DICT|INTERRES
    41   19   79 1    
    42   20   21 2    
    43   20   22 1    
    44   22   23 1    
    45   22   24 1    
    46   22   80 1    
    47   23   81 1    
    48   23   82 1    
    49   23   83 1    
    50   24   25 am   BACKBONE|DICT|INTERRES
    51   24   84 1    
    52   25   26 2    
    53   27   28 2    
    54   27   29 am   BACKBONE|DICT|INTERRES
    55   29   30 1    
    56   29   85 1    
    57   30   31 1    
    58   30   32 1    
    59   30   86 1    
    60   31   87 1    
    61   31   88 1    
    62   31   89 1    
    63   32   33 2    
    64   32   34 am   BACKBONE|DICT|INTERRES
    65   34   35 1    
    66   34   90 1    
    67   35   36 1    
    68   35   37 1    
    69   35   91 1    
    70   36   92 1    
    71   36   93 1    
    72   36   94 1    
    73   37   38 2    
    74   37   39 am   BACKBONE|DICT|INTERRES
    75   39   40 1    
    76   39   95 1    
    77   40   41 1    
    78   40   42 1    
    79   40   96 1    
    80   41   97 1    
    81   41   98 1    
    82   41   99 1    
    83   42   43 2    
    84   42   44 am   BACKBONE|DICT|INTERRES
    85   44   45 1    
    86   44  100 1    
    87   45   46 1    
    88   45   47 1    
    89   45  101 1    
    90   46  102 1    
    91   46  103 1    
    92   46  104 1    
    93   47   48 2    
    94   47   49 am   BACKBONE|DICT|INTERRES
    95   49   50 1    
    96   49  105 1    
    97   50   51 1    
    98   50   52 1    
    99   50  106 1    
   100   51  107 1    
   101   51  108 1    
   102   51  109 1    
   103   52   53 2    
   104   52   54 am   BACKBONE|DICT|INTERRES
   105   54   55 1    
   106   54  110 1    
   107   55   56 1    
   108   55   59 1    
   109   55  111 1    
   110   56   57 am   BACKBONE|DICT|INTERRES
   111   56   58 2    
   112   57  112 1    
   113   57  113 1    
   114   59   60 1    
   115   59  114 1    
   116   59  115 1    
   117   60   61 1    
   118   61  116 1    
   119   61  117 1    
@<TRIPOS>SUBSTRUCTURE
     1 UNK         1 GROUP             0       ****    0 ROOT    
