@<TRIPOS>MOLECULE
3R8
117   119    1
SMALL
USER_CHARGES


@<TRIPOS>ATOM
      1 CA         14.0060  -24.0445  -41.5063 C.3       0 UNK        -0.2013 
      2 C          14.4844  -24.1277  -42.9480 C.2       0 UNK         0.4866 
      3 O          14.1592  -23.2543  -43.7526 O.2       0 UNK        -0.5176 
      4 N          15.2541  -25.1724  -43.2815 N.am      1 UNK        -0.4884 
      5 CA         15.7863  -25.4266  -44.6285 C.3       1 UNK         0.0853 
      6 C6         16.3270  -26.8729  -44.7743 C.3       10 UNK        -0.0849 
      7 S7         15.0927  -28.1552  -44.3720 S.3       10 UNK        -0.2776 
      8 C8         15.4992  -29.4580  -45.5820 C.3       10 UNK         0.0316 
      9 C9         16.9231  -29.9767  -45.4180 C.ar      10 UNK        -0.0863 
     10 C10        17.2649  -30.7649  -44.3148 C.ar      10 UNK        -0.1009 
     11 C11        18.5705  -31.2423  -44.1586 C.ar      10 UNK        -0.0712 
     12 C12        19.5349  -30.9372  -45.1241 C.ar      10 UNK        -0.0894 
     13 C13        19.2106  -30.1343  -46.2214 C.ar      10 UNK        -0.0745 
     14 C14        17.9006  -29.6667  -46.3686 C.ar      10 UNK        -0.0972 
     15 C15        20.2829  -29.7341  -47.2276 C.3       10 UNK         0.0209 
     16 S16        21.4686  -28.5284  -46.5382 S.3       10 UNK        -0.2568 
     17 C17        20.3464  -27.3132  -45.7660 C.3       10 UNK        -0.0983 
     18 CA         21.0004  -25.9764  -45.3372 C.3       3 UNK         0.0876 
     19 N          19.9717  -25.0808  -44.8127 N.am      3 UNK        -0.4424 
     20 C          20.0405  -23.7470  -44.7347 C.2       2 UNK         0.4918 
     21 O          21.0197  -23.0925  -45.0938 O.2       2 UNK        -0.4875 
     22 CA         18.8065  -23.0265  -44.1432 C.3       2 UNK         0.0481 
     23 CB         18.4913  -21.7079  -44.8799 C.3       2 UNK        -0.1831 
     24 N          17.6084  -23.8788  -44.0349 N.am      2 UNK        -0.4498 
     25 C          16.8938  -24.4293  -45.0330 C.2       1 UNK         0.5027 
     26 O          17.1130  -24.2294  -46.2278 O.2       1 UNK        -0.4969 
     27 C          22.1292  -26.1782  -44.3064 C.2       3 UNK         0.5005 
     28 O          23.3049  -26.1329  -44.6739 O.2       3 UNK        -0.5279 
     29 N          21.7484  -26.4148  -43.0396 N.am      4 UNK        -0.4463 
     30 CA         22.5768  -26.7383  -41.8659 C.3       4 UNK         0.0283 
     31 CB         23.5657  -25.6045  -41.5329 C.3       4 UNK        -0.1875 
     32 C          23.2989  -28.0971  -41.9478 C.2       4 UNK         0.4949 
     33 O          23.3055  -28.8301  -40.9587 O.2       4 UNK        -0.5039 
     34 N          23.8969  -28.4024  -43.1085 N.am      5 UNK        -0.4663 
     35 CA         24.5453  -29.6628  -43.4975 C.3       5 UNK         0.0242 
     36 CB         23.4751  -30.7549  -43.7050 C.3       5 UNK        -0.1982 
     37 C          25.6634  -30.1212  -42.5404 C.2       5 UNK         0.5017 
     38 O          25.8617  -31.3232  -42.3699 O.2       5 UNK        -0.5012 
     39 N          26.3415  -29.1627  -41.8900 N.am      6 UNK        -0.4439 
     40 CA         27.3299  -29.3629  -40.8192 C.3       6 UNK         0.0297 
     41 CB         28.6293  -29.9750  -41.3852 C.3       6 UNK        -0.2006 
     42 C          26.7707  -30.1557  -39.6146 C.2       6 UNK         0.4892 
     43 O          27.5076  -30.9187  -38.9883 O.2       6 UNK        -0.5089 
     44 N          25.4721  -29.9640  -39.3311 N.am      7 UNK        -0.4243 
     45 CA         24.6617  -30.6255  -38.3027 C.3       7 UNK         0.0196 
     46 CB         25.2380  -30.4076  -36.8869 C.3       7 UNK        -0.2007 
     47 C          24.3463  -32.1058  -38.5969 C.2       7 UNK         0.5020 
     48 O          23.8741  -32.8047  -37.6983 O.2       7 UNK        -0.5147 
     49 N          24.5377  -32.5631  -39.8463 N.am      8 UNK        -0.4734 
     50 CA         24.1961  -33.9236  -40.2917 C.3       8 UNK         0.0238 
     51 CB         24.7849  -34.1815  -41.6872 C.3       8 UNK        -0.1912 
     52 C          22.6857  -34.2296  -40.2842 C.2       8 UNK         0.5038 
     53 O          22.3148  -35.4037  -40.3252 O.2       8 UNK        -0.5046 
     54 N          21.8487  -33.1855  -40.2112 N.am      9 UNK        -0.4200 
     55 CA         20.3976  -33.2789  -39.9936 C.3       9 UNK         0.0839 
     56 C          19.9927  -33.8625  -38.6064 C.2       9 UNK         0.5513 
     57 N          20.8746  -33.9013  -37.6126 N.am      9 UNK        -0.7519 
     58 O          18.8531  -34.2857  -38.4317 O.2       9 UNK        -0.4960 
     59 C59        19.6845  -31.9195  -40.2202 C.3       10 UNK        -0.0876 
     60 S60        20.0458  -31.1383  -41.8280 S.3       10 UNK        -0.2414 
     61 C61        18.9432  -32.0695  -42.9375 C.3       10 UNK         0.0169 
     62 H62        12.9169  -24.0460  -41.4723 H         1 UNK         0.0903 
     63 H63        14.3645  -24.8819  -40.9080 H         1 UNK         0.0903 
     64 H64        14.3601  -23.1224  -41.0460 H         1 UNK         0.0903 
     65 H65        15.4570  -25.8825  -42.5913 H         1 UNK         0.3096 
     66 H66        14.9680  -25.2959  -45.3407 H         1 UNK         0.1121 
     67 H67        16.6752  -27.0347  -45.7965 H         1 UNK         0.0849 
     68 H68        17.1928  -27.0353  -44.1293 H         1 UNK         0.0849 
     69 H69        14.7996  -30.2859  -45.4577 H         1 UNK         0.0865 
     70 H70        15.3375  -29.0750  -46.5909 H         1 UNK         0.0865 
     71 H71        16.5136  -30.9937  -43.5712 H         1 UNK         0.1346 
     72 H72        20.5478  -31.2943  -45.0006 H         1 UNK         0.1412 
     73 H73        17.6465  -29.0450  -47.2165 H         1 UNK         0.1426 
     74 H74        19.8292  -29.3080  -48.1237 H         1 UNK         0.0716 
     75 H75        20.8271  -30.6218  -47.5528 H         1 UNK         0.0716 
     76 H76        19.8716  -27.7912  -44.9067 H         1 UNK         0.0695 
     77 H77        19.5452  -27.1075  -46.4781 H         1 UNK         0.0695 
     78 H78        21.4411  -25.5113  -46.2222 H         1 UNK         0.0983 
     79 H79        19.1204  -25.5152  -44.4951 H         1 UNK         0.3095 
     80 H80        19.0781  -22.7686  -43.1187 H         1 UNK         0.0454 
     81 H81        19.3277  -21.0114  -44.8103 H         1 UNK         0.0851 
     82 H82        17.6221  -21.2107  -44.4497 H         1 UNK         0.0851 
     83 H83        18.2954  -21.8697  -45.9401 H         1 UNK         0.0851 
     84 H84        17.3233  -24.1077  -43.0921 H         1 UNK         0.2976 
     85 H85        20.7542  -26.4459  -42.8650 H         1 UNK         0.3116 
     86 H86        21.8784  -26.8129  -41.0306 H         1 UNK         0.0646 
     87 H87        24.3184  -25.4721  -42.3104 H         1 UNK         0.0847 
     88 H88        23.0486  -24.6538  -41.4033 H         1 UNK         0.0847 
     89 H89        24.0962  -25.8133  -40.6029 H         1 UNK         0.0847 
     90 H90        23.8467  -27.6881  -43.8336 H         1 UNK         0.3040 
     91 H91        25.0257  -29.4795  -44.4598 H         1 UNK         0.1015 
     92 H92        23.9077  -31.6532  -44.1467 H         1 UNK         0.0786 
     93 H93        22.6885  -30.4128  -44.3764 H         1 UNK         0.0786 
     94 H94        23.0081  -31.0449  -42.7630 H         1 UNK         0.0786 
     95 H95        26.0953  -28.2037  -42.0933 H         1 UNK         0.3172 
     96 H96        27.5723  -28.3698  -40.4386 H         1 UNK         0.0595 
     97 H97        28.4781  -30.9986  -41.7295 H         1 UNK         0.0839 
     98 H98        29.4130  -30.0007  -40.6270 H         1 UNK         0.0839 
     99 H99        29.0113  -29.3921  -42.2231 H         1 UNK         0.0839 
    100 H100       24.9373  -29.3612  -39.9507 H         1 UNK         0.2998 
    101 H101       23.6964  -30.1177  -38.3346 H         1 UNK         0.0822 
    102 H102       24.5314  -30.7353  -36.1234 H         1 UNK         0.0787 
    103 H103       25.4474  -29.3544  -36.7004 H         1 UNK         0.0787 
    104 H104       26.1602  -30.9679  -36.7314 H         1 UNK         0.0787 
    105 H105       24.9473  -31.9488  -40.5422 H         1 UNK         0.3055 
    106 H106       24.6620  -34.6233  -39.5942 H         1 UNK         0.1106 
    107 H107       25.8626  -34.0175  -41.7018 H         1 UNK         0.0828 
    108 H108       24.6113  -35.2117  -42.0007 H         1 UNK         0.0828 
    109 H109       24.3343  -33.5338  -42.4397 H         1 UNK         0.0828 
    110 H110       22.2413  -32.2564  -40.2083 H         1 UNK         0.2931 
    111 H111       20.0145  -33.9768  -40.7406 H         1 UNK         0.0412 
    112 H112       20.5955  -34.2832  -36.7227 H         1 UNK         0.3472 
    113 H113       21.8183  -33.5564  -37.7376 H         1 UNK         0.3472 
    114 H114       19.9779  -31.2114  -39.4428 H         1 UNK         0.0970 
    115 H115       18.6027  -32.0307  -40.1228 H         1 UNK         0.0970 
    116 H116       18.0441  -32.3719  -42.3987 H         1 UNK         0.0612 
    117 H117       19.4415  -32.9881  -43.2502 H         1 UNK         0.0612 
@<TRIPOS>BOND
     1    1    2 1    
     2    1   62 1    
     3    1   63 1    
     4    1   64 1    
     5    2    3 2    
     6    2    4 am   BACKBONE|DICT|INTERRES
     7    4    5 1    
     8    4   65 1    
     9    5    6 1    
    10    5   25 1    
    11    5   66 1    
    12    6    7 1    
    13    6   67 1    
    14    6   68 1    
    15    7    8 1    
    16    8    9 1    
    17    8   69 1    
    18    8   70 1    
    19    9   10 ar   
    20    9   14 ar   
    21   10   11 ar   
    22   10   71 1    
    23   11   12 ar   
    24   11   61 1    
    25   12   13 ar   
    26   12   72 1    
    27   13   14 ar   
    28   13   15 1    
    29   14   73 1    
    30   15   16 1    
    31   15   74 1    
    32   15   75 1    
    33   16   17 1    
    34   17   18 1    
    35   17   76 1    
    36   17   77 1    
    37   18   19 1    
    38   18   27 1    
    39   18   78 1    
    40   19   20 am   BACKBONE|DICT|INTERRES
    41   19   79 1    
    42   20   21 2    
    43   20   22 1    
    44   22   23 1    
    45   22   24 1    
    46   22   80 1    
    47   23   81 1    
    48   23   82 1    
    49   23   83 1    
    50   24   25 am   BACKBONE|DICT|INTERRES
    51   24   84 1    
    52   25   26 2    
    53   27   28 2    
    54   27   29 am   BACKBONE|DICT|INTERRES
    55   29   30 1    
    56   29   85 1    
    57   30   31 1    
    58   30   32 1    
    59   30   86 1    
    60   31   87 1    
    61   31   88 1    
    62   31   89 1    
    63   32   33 2    
    64   32   34 am   BACKBONE|DICT|INTERRES
    65   34   35 1    
    66   34   90 1    
    67   35   36 1    
    68   35   37 1    
    69   35   91 1    
    70   36   92 1    
    71   36   93 1    
    72   36   94 1    
    73   37   38 2    
    74   37   39 am   BACKBONE|DICT|INTERRES
    75   39   40 1    
    76   39   95 1    
    77   40   41 1    
    78   40   42 1    
    79   40   96 1    
    80   41   97 1    
    81   41   98 1    
    82   41   99 1    
    83   42   43 2    
    84   42   44 am   BACKBONE|DICT|INTERRES
    85   44   45 1    
    86   44  100 1    
    87   45   46 1    
    88   45   47 1    
    89   45  101 1    
    90   46  102 1    
    91   46  103 1    
    92   46  104 1    
    93   47   48 2    
    94   47   49 am   BACKBONE|DICT|INTERRES
    95   49   50 1    
    96   49  105 1    
    97   50   51 1    
    98   50   52 1    
    99   50  106 1    
   100   51  107 1    
   101   51  108 1    
   102   51  109 1    
   103   52   53 2    
   104   52   54 am   BACKBONE|DICT|INTERRES
   105   54   55 1    
   106   54  110 1    
   107   55   56 1    
   108   55   59 1    
   109   55  111 1    
   110   56   57 am   BACKBONE|DICT|INTERRES
   111   56   58 2    
   112   57  112 1    
   113   57  113 1    
   114   59   60 1    
   115   59  114 1    
   116   59  115 1    
   117   60   61 1    
   118   61  116 1    
   119   61  117 1    
@<TRIPOS>SUBSTRUCTURE
     1 UNK         1 GROUP             0       ****    0 ROOT    
