@<TRIPOS>MOLECULE
3R8
117   119    1
SMALL
USER_CHARGES


@<TRIPOS>ATOM
      1 CA         13.5061  -22.6288  -42.7793 C.3       0 UNK        -0.2013 
      2 C          14.0922  -23.3167  -44.0033 C.2       0 UNK         0.4866 
      3 O          13.7743  -22.9361  -45.1308 O.2       0 UNK        -0.5176 
      4 N          14.9376  -24.3325  -43.7912 N.am      1 UNK        -0.4884 
      5 CA         15.6331  -25.0759  -44.8470 C.3       1 UNK         0.0853 
      6 C6         16.2586  -26.3839  -44.3088 C.3       10 UNK        -0.0849 
      7 S7         15.0067  -27.5918  -43.7611 S.3       10 UNK        -0.2776 
      8 C8         15.9443  -28.5514  -42.5162 C.3       10 UNK         0.0316 
      9 C9         17.2701  -29.1351  -43.0105 C.ar      10 UNK        -0.0863 
     10 C10        18.3217  -29.3020  -42.1044 C.ar      10 UNK        -0.1009 
     11 C11        19.5500  -29.8267  -42.5191 C.ar      10 UNK        -0.0712 
     12 C12        19.7404  -30.1559  -43.8649 C.ar      10 UNK        -0.0894 
     13 C13        18.6990  -29.9944  -44.7832 C.ar      10 UNK        -0.0745 
     14 C14        17.4614  -29.5169  -44.3433 C.ar      10 UNK        -0.0972 
     15 C15        18.8904  -30.3438  -46.2510 C.3       10 UNK         0.0209 
     16 S16        18.6935  -28.8849  -47.3279 S.3       10 UNK        -0.2568 
     17 C17        20.3597  -28.1296  -47.3101 C.3       10 UNK        -0.0983 
     18 CA         20.4427  -26.6855  -46.7381 C.3       3 UNK         0.0876 
     19 N          19.3253  -25.8450  -47.1700 N.am      3 UNK        -0.4424 
     20 C          19.3630  -24.5130  -47.3011 C.2       2 UNK         0.4918 
     21 O          20.3877  -23.8380  -47.1961 O.2       2 UNK        -0.4875 
     22 CA         18.0212  -23.8163  -47.5891 C.3       2 UNK         0.0481 
     23 CB         17.6953  -23.8662  -49.0906 C.3       2 UNK        -0.1831 
     24 N          16.9216  -24.4119  -46.8242 N.am      2 UNK        -0.4498 
     25 C          16.7263  -24.2147  -45.5120 C.2       1 UNK         0.5027 
     26 O          17.3880  -23.4281  -44.8287 O.2       1 UNK        -0.4969 
     27 C          20.5838  -26.6571  -45.2026 C.2       3 UNK         0.5005 
     28 O          19.6201  -26.3682  -44.4895 O.2       3 UNK        -0.5279 
     29 N          21.7986  -26.9496  -44.7295 N.am      4 UNK        -0.4463 
     30 CA         22.1990  -26.9970  -43.3277 C.3       4 UNK         0.0283 
     31 CB         22.3950  -25.5704  -42.7792 C.3       4 UNK        -0.1875 
     32 C          23.4963  -27.8110  -43.2391 C.2       4 UNK         0.4949 
     33 O          24.1328  -28.0557  -44.2685 O.2       4 UNK        -0.5039 
     34 N          23.8759  -28.2061  -42.0210 N.am      5 UNK        -0.4663 
     35 CA         25.0984  -28.9510  -41.7292 C.3       5 UNK         0.0242 
     36 CB         24.8592  -30.4552  -41.9643 C.3       5 UNK        -0.1982 
     37 C          25.5104  -28.6926  -40.2755 C.2       5 UNK         0.5017 
     38 O          24.6597  -28.3345  -39.4565 O.2       5 UNK        -0.5012 
     39 N          26.7993  -28.9092  -39.9795 N.am      6 UNK        -0.4439 
     40 CA         27.3396  -28.9256  -38.6146 C.3       6 UNK         0.0297 
     41 CB         28.8537  -28.6620  -38.6584 C.3       6 UNK        -0.2006 
     42 C          27.0428  -30.2544  -37.8930 C.2       6 UNK         0.4892 
     43 O          26.9002  -30.2630  -36.6696 O.2       6 UNK        -0.5089 
     44 N          26.9484  -31.3440  -38.6677 N.am      7 UNK        -0.4243 
     45 CA         26.4840  -32.6618  -38.2336 C.3       7 UNK         0.0196 
     46 CB         27.0509  -33.7165  -39.2019 C.3       7 UNK        -0.2007 
     47 C          24.9457  -32.7149  -38.2021 C.2       7 UNK         0.5020 
     48 O          24.2822  -31.7568  -38.6036 O.2       7 UNK        -0.5147 
     49 N          24.3902  -33.8568  -37.7763 N.am      8 UNK        -0.4734 
     50 CA         22.9473  -34.1304  -37.6803 C.3       8 UNK         0.0238 
     51 CB         22.7337  -35.3242  -36.7296 C.3       8 UNK        -0.1912 
     52 C          22.2386  -34.3259  -39.0432 C.2       8 UNK         0.5038 
     53 O          21.4131  -35.2306  -39.1816 O.2       8 UNK        -0.5046 
     54 N          22.5678  -33.4684  -40.0161 N.am      9 UNK        -0.4200 
     55 CA         21.9695  -33.3516  -41.3571 C.3       9 UNK         0.0839 
     56 C          22.1643  -34.5882  -42.2855 C.2       9 UNK         0.5513 
     57 N          23.1095  -35.4779  -42.0076 N.am      9 UNK        -0.7519 
     58 O          21.4748  -34.7287  -43.2924 O.2       9 UNK        -0.4960 
     59 C59        20.4988  -32.8450  -41.3183 C.3       10 UNK        -0.0876 
     60 S60        20.2937  -31.3346  -40.3091 S.3       10 UNK        -0.2414 
     61 C61        20.6717  -30.0199  -41.5095 C.3       10 UNK         0.0169 
     62 H62        13.8607  -23.0760  -41.8508 H         1 UNK         0.0903 
     63 H63        13.7811  -21.5744  -42.7743 H         1 UNK         0.0903 
     64 H64        12.4187  -22.6976  -42.7947 H         1 UNK         0.0903 
     65 H65        15.1728  -24.5974  -42.8455 H         1 UNK         0.3096 
     66 H66        14.8958  -25.3344  -45.6109 H         1 UNK         0.1121 
     67 H67        16.9454  -26.1704  -43.4867 H         1 UNK         0.0849 
     68 H68        16.8605  -26.8666  -45.0815 H         1 UNK         0.0849 
     69 H69        16.1221  -27.9041  -41.6559 H         1 UNK         0.0865 
     70 H70        15.3163  -29.3691  -42.1606 H         1 UNK         0.0865 
     71 H71        18.1856  -29.0316  -41.0660 H         1 UNK         0.1346 
     72 H72        20.6952  -30.5408  -44.1955 H         1 UNK         0.1412 
     73 H73        16.6570  -29.4129  -45.0579 H         1 UNK         0.1426 
     74 H74        18.1409  -31.0851  -46.5317 H         1 UNK         0.0716 
     75 H75        19.8601  -30.8112  -46.4282 H         1 UNK         0.0716 
     76 H76        20.6912  -28.1058  -48.3492 H         1 UNK         0.0695 
     77 H77        21.0649  -28.7935  -46.8067 H         1 UNK         0.0695 
     78 H78        21.3582  -26.2407  -47.1358 H         1 UNK         0.0983 
     79 H79        18.4389  -26.3205  -47.2420 H         1 UNK         0.3095 
     80 H80        18.1177  -22.7671  -47.3016 H         1 UNK         0.0454 
     81 H81        17.5737  -24.8893  -49.4485 H         1 UNK         0.0851 
     82 H82        18.4942  -23.4099  -49.6767 H         1 UNK         0.0851 
     83 H83        16.7791  -23.3202  -49.3159 H         1 UNK         0.0851 
     84 H84        16.3219  -25.0572  -47.3188 H         1 UNK         0.2976 
     85 H85        22.5418  -27.2270  -45.3614 H         1 UNK         0.3116 
     86 H86        21.4239  -27.5081  -42.7551 H         1 UNK         0.0646 
     87 H87        21.4727  -24.9919  -42.8349 H         1 UNK         0.0847 
     88 H88        23.1626  -25.0290  -43.3334 H         1 UNK         0.0847 
     89 H89        22.6983  -25.5876  -41.7318 H         1 UNK         0.0847 
     90 H90        23.3510  -27.9294  -41.1997 H         1 UNK         0.3040 
     91 H91        25.8992  -28.5977  -42.3834 H         1 UNK         0.1015 
     92 H92        24.0960  -30.8428  -41.2889 H         1 UNK         0.0786 
     93 H93        25.7683  -31.0325  -41.7939 H         1 UNK         0.0786 
     94 H94        24.5373  -30.6564  -42.9862 H         1 UNK         0.0786 
     95 H95        27.4356  -29.1604  -40.7233 H         1 UNK         0.3172 
     96 H96        26.8729  -28.1224  -38.0400 H         1 UNK         0.0595 
     97 H97        29.3854  -29.4317  -39.2193 H         1 UNK         0.0839 
     98 H98        29.2742  -28.6450  -37.6518 H         1 UNK         0.0839 
     99 H99        29.0759  -27.6978  -39.1160 H         1 UNK         0.0839 
    100 H100       27.0520  -31.2190  -39.6623 H         1 UNK         0.2998 
    101 H101       26.8566  -32.8618  -37.2267 H         1 UNK         0.0822 
    102 H102       28.1381  -33.6567  -39.2588 H         1 UNK         0.0787 
    103 H103       26.8063  -34.7289  -38.8786 H         1 UNK         0.0787 
    104 H104       26.6565  -33.5923  -40.2115 H         1 UNK         0.0787 
    105 H105       25.0023  -34.6113  -37.4990 H         1 UNK         0.3055 
    106 H106       22.4740  -33.2591  -37.2214 H         1 UNK         0.1106 
    107 H107       23.1621  -36.2423  -37.1335 H         1 UNK         0.0828 
    108 H108       21.6718  -35.5070  -36.5594 H         1 UNK         0.0828 
    109 H109       23.1848  -35.1422  -35.7540 H         1 UNK         0.0828 
    110 H110       23.2341  -32.7430  -39.7653 H         1 UNK         0.2931 
    111 H111       22.5500  -32.5709  -41.8478 H         1 UNK         0.0412 
    112 H112       23.2384  -36.2701  -42.6175 H         1 UNK         0.3472 
    113 H113       23.6807  -35.3736  -41.1846 H         1 UNK         0.3472 
    114 H114       19.8478  -33.6178  -40.9063 H         1 UNK         0.0970 
    115 H115       20.1279  -32.6495  -42.3257 H         1 UNK         0.0970 
    116 H116       21.6164  -30.2428  -42.0072 H         1 UNK         0.0612 
    117 H117       20.8242  -29.0881  -40.9636 H         1 UNK         0.0612 
@<TRIPOS>BOND
     1    1    2 1    
     2    1   62 1    
     3    1   63 1    
     4    1   64 1    
     5    2    3 2    
     6    2    4 am   BACKBONE|DICT|INTERRES
     7    4    5 1    
     8    4   65 1    
     9    5    6 1    
    10    5   25 1    
    11    5   66 1    
    12    6    7 1    
    13    6   67 1    
    14    6   68 1    
    15    7    8 1    
    16    8    9 1    
    17    8   69 1    
    18    8   70 1    
    19    9   10 ar   
    20    9   14 ar   
    21   10   11 ar   
    22   10   71 1    
    23   11   12 ar   
    24   11   61 1    
    25   12   13 ar   
    26   12   72 1    
    27   13   14 ar   
    28   13   15 1    
    29   14   73 1    
    30   15   16 1    
    31   15   74 1    
    32   15   75 1    
    33   16   17 1    
    34   17   18 1    
    35   17   76 1    
    36   17   77 1    
    37   18   19 1    
    38   18   27 1    
    39   18   78 1    
    40   19   20 am   BACKBONE|DICT|INTERRES
    41   19   79 1    
    42   20   21 2    
    43   20   22 1    
    44   22   23 1    
    45   22   24 1    
    46   22   80 1    
    47   23   81 1    
    48   23   82 1    
    49   23   83 1    
    50   24   25 am   BACKBONE|DICT|INTERRES
    51   24   84 1    
    52   25   26 2    
    53   27   28 2    
    54   27   29 am   BACKBONE|DICT|INTERRES
    55   29   30 1    
    56   29   85 1    
    57   30   31 1    
    58   30   32 1    
    59   30   86 1    
    60   31   87 1    
    61   31   88 1    
    62   31   89 1    
    63   32   33 2    
    64   32   34 am   BACKBONE|DICT|INTERRES
    65   34   35 1    
    66   34   90 1    
    67   35   36 1    
    68   35   37 1    
    69   35   91 1    
    70   36   92 1    
    71   36   93 1    
    72   36   94 1    
    73   37   38 2    
    74   37   39 am   BACKBONE|DICT|INTERRES
    75   39   40 1    
    76   39   95 1    
    77   40   41 1    
    78   40   42 1    
    79   40   96 1    
    80   41   97 1    
    81   41   98 1    
    82   41   99 1    
    83   42   43 2    
    84   42   44 am   BACKBONE|DICT|INTERRES
    85   44   45 1    
    86   44  100 1    
    87   45   46 1    
    88   45   47 1    
    89   45  101 1    
    90   46  102 1    
    91   46  103 1    
    92   46  104 1    
    93   47   48 2    
    94   47   49 am   BACKBONE|DICT|INTERRES
    95   49   50 1    
    96   49  105 1    
    97   50   51 1    
    98   50   52 1    
    99   50  106 1    
   100   51  107 1    
   101   51  108 1    
   102   51  109 1    
   103   52   53 2    
   104   52   54 am   BACKBONE|DICT|INTERRES
   105   54   55 1    
   106   54  110 1    
   107   55   56 1    
   108   55   59 1    
   109   55  111 1    
   110   56   57 am   BACKBONE|DICT|INTERRES
   111   56   58 2    
   112   57  112 1    
   113   57  113 1    
   114   59   60 1    
   115   59  114 1    
   116   59  115 1    
   117   60   61 1    
   118   61  116 1    
   119   61  117 1    
@<TRIPOS>SUBSTRUCTURE
     1 UNK         1 GROUP             0       ****    0 ROOT    
