@<TRIPOS>MOLECULE
3R8
117   119    1
SMALL
USER_CHARGES


@<TRIPOS>ATOM
      1 CA         13.3455  -25.5609  -49.3183 C.3       0 UNK        -0.2013 
      2 C          14.5623  -26.3820  -48.9190 C.2       0 UNK         0.4866 
      3 O          15.3534  -26.7631  -49.7820 O.2       0 UNK        -0.5176 
      4 N          14.7190  -26.6582  -47.6169 N.am      1 UNK        -0.4884 
      5 CA         15.8389  -27.4276  -47.0556 C.3       1 UNK         0.0853 
      6 C6         15.5019  -27.9455  -45.6317 C.3       10 UNK        -0.0849 
      7 S7         16.3860  -29.4861  -45.2136 S.3       10 UNK        -0.2776 
      8 C8         15.9142  -29.7168  -43.4699 C.3       10 UNK         0.0316 
      9 C9         16.8326  -28.9543  -42.5247 C.ar      10 UNK        -0.0863 
     10 C10        17.9943  -29.5605  -42.0349 C.ar      10 UNK        -0.1009 
     11 C11        18.8296  -28.8868  -41.1334 C.ar      10 UNK        -0.0712 
     12 C12        18.5017  -27.5826  -40.7513 C.ar      10 UNK        -0.0894 
     13 C13        17.3582  -26.9561  -41.2545 C.ar      10 UNK        -0.0745 
     14 C14        16.5162  -27.6534  -42.1247 C.ar      10 UNK        -0.0972 
     15 C15        17.0499  -25.5134  -40.8851 C.3       10 UNK         0.0209 
     16 S16        17.3983  -24.3836  -42.2717 S.3       10 UNK        -0.2568 
     17 C17        19.2013  -24.5887  -42.4960 C.3       10 UNK        -0.0983 
     18 CA         19.5663  -25.6239  -43.6006 C.3       3 UNK         0.0876 
     19 N          18.9432  -25.3734  -44.9038 N.am      3 UNK        -0.4424 
     20 C          18.9462  -24.2583  -45.6440 C.2       2 UNK         0.4918 
     21 O          19.4976  -23.2069  -45.3160 O.2       2 UNK        -0.4875 
     22 CA         18.1628  -24.2965  -46.9747 C.3       2 UNK         0.0481 
     23 CB         19.1197  -24.4232  -48.1764 C.3       2 UNK        -0.1831 
     24 N          17.0799  -25.2954  -47.0392 N.am      2 UNK        -0.4498 
     25 C          17.1663  -26.6362  -47.0610 C.2       1 UNK         0.5027 
     26 O          18.2348  -27.2469  -47.0401 O.2       1 UNK        -0.4969 
     27 C          21.0893  -25.8404  -43.7177 C.2       3 UNK         0.5005 
     28 O          21.7099  -25.4639  -44.7159 O.2       3 UNK        -0.5279 
     29 N          21.6698  -26.4699  -42.6901 N.am      4 UNK        -0.4463 
     30 CA         23.0899  -26.7888  -42.5868 C.3       4 UNK         0.0283 
     31 CB         23.3958  -28.0869  -43.3599 C.3       4 UNK        -0.1875 
     32 C          23.4522  -26.9412  -41.1069 C.2       4 UNK         0.4949 
     33 O          22.5835  -27.2765  -40.2990 O.2       4 UNK        -0.5039 
     34 N          24.7332  -26.7218  -40.7916 N.am      5 UNK        -0.4663 
     35 CA         25.3130  -26.9149  -39.4561 C.3       5 UNK         0.0242 
     36 CB         26.2660  -25.7425  -39.1617 C.3       5 UNK        -0.1982 
     37 C          26.0503  -28.2628  -39.3229 C.2       5 UNK         0.5017 
     38 O          26.5924  -28.5489  -38.2542 O.2       5 UNK        -0.5012 
     39 N          26.0884  -29.0482  -40.4085 N.am      6 UNK        -0.4439 
     40 CA         26.7345  -30.3579  -40.5000 C.3       6 UNK         0.0297 
     41 CB         26.7517  -30.7930  -41.9751 C.3       6 UNK        -0.2006 
     42 C          26.0407  -31.4268  -39.6390 C.2       6 UNK         0.4892 
     43 O          24.8398  -31.3246  -39.3720 O.2       6 UNK        -0.5089 
     44 N          26.8090  -32.4587  -39.2620 N.am      7 UNK        -0.4243 
     45 CA         26.3371  -33.6377  -38.5315 C.3       7 UNK         0.0196 
     46 CB         27.5263  -34.5624  -38.2251 C.3       7 UNK        -0.2007 
     47 C          25.2545  -34.3858  -39.3254 C.2       7 UNK         0.5020 
     48 O          25.4694  -34.6972  -40.4995 O.2       7 UNK        -0.5147 
     49 N          24.0971  -34.6028  -38.6845 N.am      8 UNK        -0.4734 
     50 CA         22.8657  -35.1707  -39.2568 C.3       8 UNK         0.0238 
     51 CB         23.0592  -36.6691  -39.5754 C.3       8 UNK        -0.1912 
     52 C          22.3147  -34.3774  -40.4638 C.2       8 UNK         0.5038 
     53 O          21.6124  -34.9533  -41.2967 O.2       8 UNK        -0.5046 
     54 N          22.6529  -33.0813  -40.5402 N.am      9 UNK        -0.4200 
     55 CA         22.3542  -32.1606  -41.6488 C.3       9 UNK         0.0839 
     56 C          23.1093  -32.4908  -42.9718 C.2       9 UNK         0.5513 
     57 N          24.1591  -33.3057  -42.9531 N.am      9 UNK        -0.7519 
     58 O          22.7634  -31.9725  -44.0299 O.2       9 UNK        -0.4960 
     59 C59        20.8311  -31.9113  -41.8555 C.3       10 UNK        -0.0876 
     60 S60        20.0201  -31.3213  -40.3287 S.3       10 UNK        -0.2414 
     61 C61        20.1032  -29.5157  -40.5697 C.3       10 UNK         0.0169 
     62 H62        12.7311  -25.2952  -48.4583 H         1 UNK         0.0903 
     63 H63        13.6591  -24.6396  -49.8085 H         1 UNK         0.0903 
     64 H64        12.7260  -26.1238  -50.0160 H         1 UNK         0.0903 
     65 H65        14.0306  -26.3275  -46.9546 H         1 UNK         0.3096 
     66 H66        15.9879  -28.2913  -47.7086 H         1 UNK         0.1121 
     67 H67        15.6976  -27.1831  -44.8756 H         1 UNK         0.0849 
     68 H68        14.4367  -28.1717  -45.5583 H         1 UNK         0.0849 
     69 H69        15.9542  -30.7820  -43.2366 H         1 UNK         0.0865 
     70 H70        14.8753  -29.4182  -43.3202 H         1 UNK         0.0865 
     71 H71        18.2369  -30.5642  -42.3539 H         1 UNK         0.1346 
     72 H72        19.1491  -27.0461  -40.0705 H         1 UNK         0.1412 
     73 H73        15.6249  -27.1721  -42.5031 H         1 UNK         0.1426 
     74 H74        17.6215  -25.2012  -40.0097 H         1 UNK         0.0716 
     75 H75        15.9975  -25.4256  -40.6115 H         1 UNK         0.0716 
     76 H76        19.6384  -24.8733  -41.5377 H         1 UNK         0.0695 
     77 H77        19.6254  -23.6113  -42.7302 H         1 UNK         0.0695 
     78 H78        19.1620  -26.5905  -43.3008 H         1 UNK         0.0983 
     79 H79        18.5440  -26.1917  -45.3469 H         1 UNK         0.3095 
     80 H80        17.6641  -23.3298  -47.0596 H         1 UNK         0.0454 
     81 H81        18.5769  -24.4023  -49.1213 H         1 UNK         0.0851 
     82 H82        19.7006  -25.3451  -48.1416 H         1 UNK         0.0851 
     83 H83        19.8317  -23.5971  -48.1927 H         1 UNK         0.0851 
     84 H84        16.1465  -24.9079  -47.0347 H         1 UNK         0.2976 
     85 H85        21.1326  -26.7220  -41.8694 H         1 UNK         0.3116 
     86 H86        23.6744  -25.9655  -43.0037 H         1 UNK         0.0646 
     87 H87        22.8397  -28.9363  -42.9610 H         1 UNK         0.0847 
     88 H88        23.1406  -27.9908  -44.4154 H         1 UNK         0.0847 
     89 H89        24.4559  -28.3372  -43.3111 H         1 UNK         0.0847 
     90 H90        25.3719  -26.4279  -41.5185 H         1 UNK         0.3040 
     91 H91        24.5240  -26.9091  -38.7003 H         1 UNK         0.1015 
     92 H92        25.7462  -24.7859  -39.2195 H         1 UNK         0.0786 
     93 H93        27.1015  -25.7141  -39.8623 H         1 UNK         0.0786 
     94 H94        26.6852  -25.8194  -38.1574 H         1 UNK         0.0786 
     95 H95        25.5789  -28.7389  -41.2207 H         1 UNK         0.3172 
     96 H96        27.7644  -30.2495  -40.1531 H         1 UNK         0.0595 
     97 H97        25.7436  -30.8740  -42.3832 H         1 UNK         0.0839 
     98 H98        27.2270  -31.7677  -42.0947 H         1 UNK         0.0839 
     99 H99        27.3079  -30.0871  -42.5922 H         1 UNK         0.0839 
    100 H100       27.7740  -32.4742  -39.5588 H         1 UNK         0.2998 
    101 H101       25.9158  -33.2924  -37.5850 H         1 UNK         0.0822 
    102 H102       28.0064  -34.9185  -39.1377 H         1 UNK         0.0787 
    103 H103       28.2808  -34.0549  -37.6236 H         1 UNK         0.0787 
    104 H104       27.2024  -35.4402  -37.6641 H         1 UNK         0.0787 
    105 H105       24.0203  -34.2869  -37.7265 H         1 UNK         0.3055 
    106 H106       22.1012  -35.0944  -38.4817 H         1 UNK         0.1106 
    107 H107       22.1159  -37.1348  -39.8633 H         1 UNK         0.0828 
    108 H108       23.7594  -36.8208  -40.3976 H         1 UNK         0.0828 
    109 H109       23.4349  -37.2143  -38.7097 H         1 UNK         0.0828 
    110 H110       23.2673  -32.6980  -39.8314 H         1 UNK         0.2931 
    111 H111       22.7845  -31.2083  -41.3361 H         1 UNK         0.0412 
    112 H112       24.4705  -33.7390  -42.0914 H         1 UNK         0.3472 
    113 H113       24.6417  -33.5029  -43.8151 H         1 UNK         0.3472 
    114 H114       20.6625  -31.1820  -42.6499 H         1 UNK         0.0970 
    115 H115       20.3322  -32.8240  -42.1836 H         1 UNK         0.0970 
    116 H116       20.3307  -29.0725  -39.5988 H         1 UNK         0.0612 
    117 H117       20.9424  -29.2660  -41.2191 H         1 UNK         0.0612 
@<TRIPOS>BOND
     1    1    2 1    
     2    1   62 1    
     3    1   63 1    
     4    1   64 1    
     5    2    3 2    
     6    2    4 am   BACKBONE|DICT|INTERRES
     7    4    5 1    
     8    4   65 1    
     9    5    6 1    
    10    5   25 1    
    11    5   66 1    
    12    6    7 1    
    13    6   67 1    
    14    6   68 1    
    15    7    8 1    
    16    8    9 1    
    17    8   69 1    
    18    8   70 1    
    19    9   10 ar   
    20    9   14 ar   
    21   10   11 ar   
    22   10   71 1    
    23   11   12 ar   
    24   11   61 1    
    25   12   13 ar   
    26   12   72 1    
    27   13   14 ar   
    28   13   15 1    
    29   14   73 1    
    30   15   16 1    
    31   15   74 1    
    32   15   75 1    
    33   16   17 1    
    34   17   18 1    
    35   17   76 1    
    36   17   77 1    
    37   18   19 1    
    38   18   27 1    
    39   18   78 1    
    40   19   20 am   BACKBONE|DICT|INTERRES
    41   19   79 1    
    42   20   21 2    
    43   20   22 1    
    44   22   23 1    
    45   22   24 1    
    46   22   80 1    
    47   23   81 1    
    48   23   82 1    
    49   23   83 1    
    50   24   25 am   BACKBONE|DICT|INTERRES
    51   24   84 1    
    52   25   26 2    
    53   27   28 2    
    54   27   29 am   BACKBONE|DICT|INTERRES
    55   29   30 1    
    56   29   85 1    
    57   30   31 1    
    58   30   32 1    
    59   30   86 1    
    60   31   87 1    
    61   31   88 1    
    62   31   89 1    
    63   32   33 2    
    64   32   34 am   BACKBONE|DICT|INTERRES
    65   34   35 1    
    66   34   90 1    
    67   35   36 1    
    68   35   37 1    
    69   35   91 1    
    70   36   92 1    
    71   36   93 1    
    72   36   94 1    
    73   37   38 2    
    74   37   39 am   BACKBONE|DICT|INTERRES
    75   39   40 1    
    76   39   95 1    
    77   40   41 1    
    78   40   42 1    
    79   40   96 1    
    80   41   97 1    
    81   41   98 1    
    82   41   99 1    
    83   42   43 2    
    84   42   44 am   BACKBONE|DICT|INTERRES
    85   44   45 1    
    86   44  100 1    
    87   45   46 1    
    88   45   47 1    
    89   45  101 1    
    90   46  102 1    
    91   46  103 1    
    92   46  104 1    
    93   47   48 2    
    94   47   49 am   BACKBONE|DICT|INTERRES
    95   49   50 1    
    96   49  105 1    
    97   50   51 1    
    98   50   52 1    
    99   50  106 1    
   100   51  107 1    
   101   51  108 1    
   102   51  109 1    
   103   52   53 2    
   104   52   54 am   BACKBONE|DICT|INTERRES
   105   54   55 1    
   106   54  110 1    
   107   55   56 1    
   108   55   59 1    
   109   55  111 1    
   110   56   57 am   BACKBONE|DICT|INTERRES
   111   56   58 2    
   112   57  112 1    
   113   57  113 1    
   114   59   60 1    
   115   59  114 1    
   116   59  115 1    
   117   60   61 1    
   118   61  116 1    
   119   61  117 1    
@<TRIPOS>SUBSTRUCTURE
     1 UNK         1 GROUP             0       ****    0 ROOT    
