@<TRIPOS>MOLECULE
3R8
117   119    1
SMALL
USER_CHARGES


@<TRIPOS>ATOM
      1 CA         17.5078  -27.6684  -41.6408 C.3       0 UNK        -0.2013 
      2 C          16.7102  -27.2175  -42.8544 C.2       0 UNK         0.4866 
      3 O          15.4788  -27.2142  -42.8085 O.2       0 UNK        -0.5176 
      4 N          17.4059  -26.8327  -43.9280 N.am      1 UNK        -0.4884 
      5 CA         16.8399  -26.3161  -45.1755 C.3       1 UNK         0.0853 
      6 C6         16.9647  -27.3222  -46.3545 C.3       10 UNK        -0.0849 
      7 S7         16.0630  -28.8819  -46.0554 S.3       10 UNK        -0.2776 
      8 C8         17.3695  -30.1351  -46.2664 C.3       10 UNK         0.0316 
      9 C9         18.4171  -30.0869  -45.1614 C.ar      10 UNK        -0.0863 
     10 C10        18.1495  -30.6539  -43.9125 C.ar      10 UNK        -0.1009 
     11 C11        19.1235  -30.6607  -42.9095 C.ar      10 UNK        -0.0712 
     12 C12        20.3733  -30.0856  -43.1687 C.ar      10 UNK        -0.0894 
     13 C13        20.6520  -29.4906  -44.4033 C.ar      10 UNK        -0.0745 
     14 C14        19.6685  -29.5121  -45.4006 C.ar      10 UNK        -0.0972 
     15 C15        22.0371  -28.8816  -44.6292 C.3       10 UNK         0.0209 
     16 S16        22.1222  -27.6150  -45.9454 S.3       10 UNK        -0.2568 
     17 C17        22.8565  -26.1715  -45.0892 C.3       10 UNK        -0.0983 
     18 CA         21.8501  -25.0559  -44.6930 C.3       3 UNK         0.0876 
     19 N          20.8851  -24.7753  -45.7523 N.am      3 UNK        -0.4424 
     20 C          20.2911  -23.5962  -45.9686 C.2       2 UNK         0.4918 
     21 O          20.6504  -22.5354  -45.4571 O.2       2 UNK        -0.4875 
     22 CA         19.0454  -23.6280  -46.8731 C.3       2 UNK         0.0481 
     23 CB         19.4458  -23.6385  -48.3570 C.3       2 UNK        -0.1831 
     24 N          18.1922  -24.7863  -46.5789 N.am      2 UNK        -0.4498 
     25 C          17.5173  -24.9547  -45.4292 C.2       1 UNK         0.5027 
     26 O          17.4323  -24.0783  -44.5653 O.2       1 UNK        -0.4969 
     27 C          21.0615  -25.4085  -43.4183 C.2       3 UNK         0.5005 
     28 O          20.1228  -26.2047  -43.4891 O.2       3 UNK        -0.5279 
     29 N          21.4385  -24.8073  -42.2820 N.am      4 UNK        -0.4463 
     30 CA         20.7791  -25.0208  -40.9881 C.3       4 UNK         0.0283 
     31 CB         21.1730  -23.8907  -40.0231 C.3       4 UNK        -0.1875 
     32 C          21.0928  -26.3921  -40.3639 C.2       4 UNK         0.4949 
     33 O          20.2797  -26.9011  -39.5942 O.2       4 UNK        -0.5039 
     34 N          22.2610  -26.9478  -40.7005 N.am      5 UNK        -0.4663 
     35 CA         22.7688  -28.2482  -40.2797 C.3       5 UNK         0.0242 
     36 CB         23.1811  -28.2139  -38.7958 C.3       5 UNK        -0.1982 
     37 C          23.9716  -28.5871  -41.1655 C.2       5 UNK         0.5017 
     38 O          24.6121  -27.6733  -41.6942 O.2       5 UNK        -0.5012 
     39 N          24.2685  -29.8810  -41.2965 N.am      6 UNK        -0.4439 
     40 CA         25.4492  -30.4105  -41.9742 C.3       6 UNK         0.0297 
     41 CB         25.2283  -30.4335  -43.5032 C.3       6 UNK        -0.2006 
     42 C          25.7583  -31.7780  -41.3486 C.2       6 UNK         0.4892 
     43 O          25.7679  -31.8853  -40.1204 O.2       6 UNK        -0.5089 
     44 N          25.9628  -32.8080  -42.1825 N.am      7 UNK        -0.4243 
     45 CA         26.0146  -34.2116  -41.7575 C.3       7 UNK         0.0196 
     46 CB         26.5112  -35.0816  -42.9234 C.3       7 UNK        -0.2007 
     47 C          24.6504  -34.7146  -41.2457 C.2       7 UNK         0.5020 
     48 O          24.6105  -35.5833  -40.3754 O.2       7 UNK        -0.5147 
     49 N          23.5659  -34.1361  -41.7760 N.am      8 UNK        -0.4734 
     50 CA         22.2037  -34.2773  -41.2721 C.3       8 UNK         0.0238 
     51 CB         21.2363  -34.3286  -42.4666 C.3       8 UNK        -0.1912 
     52 C          21.8759  -33.0782  -40.3684 C.2       8 UNK         0.5038 
     53 O          22.3526  -31.9710  -40.6358 O.2       8 UNK        -0.5046 
     54 N          21.0567  -33.3347  -39.3398 N.am      9 UNK        -0.4200 
     55 CA         20.5116  -32.3963  -38.3375 C.3       9 UNK         0.0839 
     56 C          21.5181  -31.4948  -37.5554 C.2       9 UNK         0.5513 
     57 N          22.8217  -31.7306  -37.6306 N.am      9 UNK        -0.7519 
     58 O          21.1074  -30.6063  -36.8134 O.2       9 UNK        -0.4960 
     59 C59        19.2199  -31.6642  -38.8117 C.3       10 UNK        -0.0876 
     60 S60        19.4481  -30.4246  -40.1305 S.3       10 UNK        -0.2414 
     61 C61        18.8287  -31.3435  -41.5774 C.3       10 UNK         0.0169 
     62 H62        18.5628  -27.8066  -41.8792 H         1 UNK         0.0903 
     63 H63        17.4343  -26.9325  -40.8410 H         1 UNK         0.0903 
     64 H64        17.1242  -28.6183  -41.2702 H         1 UNK         0.0903 
     65 H65        18.4224  -26.7688  -43.8535 H         1 UNK         0.3096 
     66 H66        15.7798  -26.0923  -45.0380 H         1 UNK         0.1121 
     67 H67        18.0118  -27.5419  -46.5641 H         1 UNK         0.0849 
     68 H68        16.5502  -26.8908  -47.2676 H         1 UNK         0.0849 
     69 H69        16.9066  -31.1229  -46.2779 H         1 UNK         0.0865 
     70 H70        17.8337  -30.0120  -47.2463 H         1 UNK         0.0865 
     71 H71        17.1841  -31.1060  -43.7304 H         1 UNK         0.1346 
     72 H72        21.1372  -30.1095  -42.4044 H         1 UNK         0.1412 
     73 H73        19.8745  -29.0917  -46.3740 H         1 UNK         0.1426 
     74 H74        22.7242  -29.6863  -44.8890 H         1 UNK         0.0716 
     75 H75        22.3949  -28.4552  -43.6921 H         1 UNK         0.0716 
     76 H76        23.5846  -25.7454  -45.7810 H         1 UNK         0.0695 
     77 H77        23.4449  -26.4973  -44.2294 H         1 UNK         0.0695 
     78 H78        22.4261  -24.1487  -44.4964 H         1 UNK         0.0983 
     79 H79        20.5006  -25.5984  -46.1913 H         1 UNK         0.3095 
     80 H80        18.4675  -22.7209  -46.6840 H         1 UNK         0.0454 
     81 H81        18.5701  -23.5940  -49.0046 H         1 UNK         0.0851 
     82 H82        20.0140  -24.5313  -48.6208 H         1 UNK         0.0851 
     83 H83        20.0676  -22.7750  -48.5972 H         1 UNK         0.0851 
     84 H84        18.1951  -25.5344  -47.2565 H         1 UNK         0.2976 
     85 H85        22.2093  -24.1540  -42.2979 H         1 UNK         0.3116 
     86 H86        19.6987  -24.9721  -41.1434 H         1 UNK         0.0646 
     87 H87        22.2468  -23.8766  -39.8319 H         1 UNK         0.0847 
     88 H88        20.6736  -24.0102  -39.0605 H         1 UNK         0.0847 
     89 H89        20.8865  -22.9145  -40.4148 H         1 UNK         0.0847 
     90 H90        22.8736  -26.4633  -41.3448 H         1 UNK         0.3040 
     91 H91        21.9935  -29.0012  -40.4302 H         1 UNK         0.1015 
     92 H92        23.8916  -27.4116  -38.5936 H         1 UNK         0.0786 
     93 H93        23.6537  -29.1508  -38.5000 H         1 UNK         0.0786 
     94 H94        22.3177  -28.0733  -38.1452 H         1 UNK         0.0786 
     95 H95        23.6874  -30.5797  -40.8331 H         1 UNK         0.3172 
     96 H96        26.3036  -29.7673  -41.7541 H         1 UNK         0.0595 
     97 H97        24.3911  -31.0739  -43.7828 H         1 UNK         0.0839 
     98 H98        26.1160  -30.7855  -44.0299 H         1 UNK         0.0839 
     99 H99        25.0209  -29.4333  -43.8838 H         1 UNK         0.0839 
    100 H100       25.9669  -32.6315  -43.1769 H         1 UNK         0.2998 
    101 H101       26.7292  -34.2947  -40.9355 H         1 UNK         0.0822 
    102 H102       27.5033  -34.7737  -43.2543 H         1 UNK         0.0787 
    103 H103       26.5814  -36.1284  -42.6245 H         1 UNK         0.0787 
    104 H104       25.8389  -35.0325  -43.7812 H         1 UNK         0.0787 
    105 H105       23.7085  -33.3917  -42.4410 H         1 UNK         0.3055 
    106 H106       22.1097  -35.2040  -40.7005 H         1 UNK         0.1106 
    107 H107       20.2137  -34.5086  -42.1331 H         1 UNK         0.0828 
    108 H108       21.2375  -33.3945  -43.0316 H         1 UNK         0.0828 
    109 H109       21.4956  -35.1351  -43.1529 H         1 UNK         0.0828 
    110 H110       20.7552  -34.2899  -39.2137 H         1 UNK         0.2931 
    111 H111       20.1682  -33.0732  -37.5541 H         1 UNK         0.0412 
    112 H112       23.1777  -32.4310  -38.2612 H         1 UNK         0.3472 
    113 H113       23.4576  -31.1633  -37.0940 H         1 UNK         0.3472 
    114 H114       18.7500  -31.1585  -37.9664 H         1 UNK         0.0970 
    115 H115       18.4850  -32.4009  -39.1386 H         1 UNK         0.0970 
    116 H116       19.2768  -32.3352  -41.5938 H         1 UNK         0.0612 
    117 H117       17.7546  -31.4889  -41.4533 H         1 UNK         0.0612 
@<TRIPOS>BOND
     1    1    2 1    
     2    1   62 1    
     3    1   63 1    
     4    1   64 1    
     5    2    3 2    
     6    2    4 am   BACKBONE|DICT|INTERRES
     7    4    5 1    
     8    4   65 1    
     9    5    6 1    
    10    5   25 1    
    11    5   66 1    
    12    6    7 1    
    13    6   67 1    
    14    6   68 1    
    15    7    8 1    
    16    8    9 1    
    17    8   69 1    
    18    8   70 1    
    19    9   10 ar   
    20    9   14 ar   
    21   10   11 ar   
    22   10   71 1    
    23   11   12 ar   
    24   11   61 1    
    25   12   13 ar   
    26   12   72 1    
    27   13   14 ar   
    28   13   15 1    
    29   14   73 1    
    30   15   16 1    
    31   15   74 1    
    32   15   75 1    
    33   16   17 1    
    34   17   18 1    
    35   17   76 1    
    36   17   77 1    
    37   18   19 1    
    38   18   27 1    
    39   18   78 1    
    40   19   20 am   BACKBONE|DICT|INTERRES
    41   19   79 1    
    42   20   21 2    
    43   20   22 1    
    44   22   23 1    
    45   22   24 1    
    46   22   80 1    
    47   23   81 1    
    48   23   82 1    
    49   23   83 1    
    50   24   25 am   BACKBONE|DICT|INTERRES
    51   24   84 1    
    52   25   26 2    
    53   27   28 2    
    54   27   29 am   BACKBONE|DICT|INTERRES
    55   29   30 1    
    56   29   85 1    
    57   30   31 1    
    58   30   32 1    
    59   30   86 1    
    60   31   87 1    
    61   31   88 1    
    62   31   89 1    
    63   32   33 2    
    64   32   34 am   BACKBONE|DICT|INTERRES
    65   34   35 1    
    66   34   90 1    
    67   35   36 1    
    68   35   37 1    
    69   35   91 1    
    70   36   92 1    
    71   36   93 1    
    72   36   94 1    
    73   37   38 2    
    74   37   39 am   BACKBONE|DICT|INTERRES
    75   39   40 1    
    76   39   95 1    
    77   40   41 1    
    78   40   42 1    
    79   40   96 1    
    80   41   97 1    
    81   41   98 1    
    82   41   99 1    
    83   42   43 2    
    84   42   44 am   BACKBONE|DICT|INTERRES
    85   44   45 1    
    86   44  100 1    
    87   45   46 1    
    88   45   47 1    
    89   45  101 1    
    90   46  102 1    
    91   46  103 1    
    92   46  104 1    
    93   47   48 2    
    94   47   49 am   BACKBONE|DICT|INTERRES
    95   49   50 1    
    96   49  105 1    
    97   50   51 1    
    98   50   52 1    
    99   50  106 1    
   100   51  107 1    
   101   51  108 1    
   102   51  109 1    
   103   52   53 2    
   104   52   54 am   BACKBONE|DICT|INTERRES
   105   54   55 1    
   106   54  110 1    
   107   55   56 1    
   108   55   59 1    
   109   55  111 1    
   110   56   57 am   BACKBONE|DICT|INTERRES
   111   56   58 2    
   112   57  112 1    
   113   57  113 1    
   114   59   60 1    
   115   59  114 1    
   116   59  115 1    
   117   60   61 1    
   118   61  116 1    
   119   61  117 1    
@<TRIPOS>SUBSTRUCTURE
     1 UNK         1 GROUP             0       ****    0 ROOT    
