@<TRIPOS>MOLECULE
3R8
117   119    1
SMALL
USER_CHARGES


@<TRIPOS>ATOM
      1 CA         21.9714  -23.1850  -43.4399 C.3       0 UNK        -0.2013 
      2 C          21.6620  -23.3883  -44.9220 C.2       0 UNK         0.4866 
      3 O          21.6023  -22.4092  -45.6627 O.2       0 UNK        -0.5176 
      4 N          21.4671  -24.6224  -45.4106 N.am      1 UNK        -0.4884 
      5 CA         21.4343  -25.8886  -44.6666 C.3       1 UNK         0.0853 
      6 C6         21.4928  -27.1242  -45.6043 C.3       10 UNK        -0.0849 
      7 S7         20.2654  -27.0889  -46.9583 S.3       10 UNK        -0.2776 
      8 C8         20.5093  -28.7265  -47.7180 C.3       10 UNK         0.0316 
      9 C9         19.7734  -29.8213  -46.9588 C.ar      10 UNK        -0.0863 
     10 C10        20.4791  -30.7933  -46.2421 C.ar      10 UNK        -0.1009 
     11 C11        19.7945  -31.8050  -45.5605 C.ar      10 UNK        -0.0712 
     12 C12        18.3978  -31.8421  -45.5989 C.ar      10 UNK        -0.0894 
     13 C13        17.6826  -30.8562  -46.2838 C.ar      10 UNK        -0.0745 
     14 C14        18.3760  -29.8629  -46.9810 C.ar      10 UNK        -0.0972 
     15 C15        16.1636  -30.8240  -46.2166 C.3       10 UNK         0.0209 
     16 S16        15.5740  -29.4287  -45.1997 S.3       10 UNK        -0.2568 
     17 C17        16.1991  -29.8554  -43.5339 C.3       10 UNK        -0.0983 
     18 CA         17.6291  -29.3150  -43.2389 C.3       3 UNK         0.0876 
     19 N          17.8067  -27.8944  -43.5508 N.am      3 UNK        -0.4424 
     20 C          17.3009  -26.8401  -42.8982 C.2       2 UNK         0.4918 
     21 O          16.5005  -26.9291  -41.9663 O.2       2 UNK        -0.4875 
     22 CA         17.8012  -25.4474  -43.3534 C.3       2 UNK         0.0481 
     23 CB         17.9091  -24.4634  -42.1693 C.3       2 UNK        -0.1831 
     24 N          19.0680  -25.4672  -44.1083 N.am      2 UNK        -0.4498 
     25 C          20.2395  -25.9825  -43.6999 C.2       1 UNK         0.5027 
     26 O          20.3983  -26.5257  -42.6105 O.2       1 UNK        -0.4969 
     27 C          18.1565  -29.7089  -41.8373 C.2       3 UNK         0.5005 
     28 O          17.6275  -30.6409  -41.2281 O.2       3 UNK        -0.5279 
     29 N          19.1955  -29.0104  -41.3559 N.am      4 UNK        -0.4463 
     30 CA         19.8929  -29.2508  -40.0943 C.3       4 UNK         0.0283 
     31 CB         18.9876  -28.9111  -38.8857 C.3       4 UNK        -0.1875 
     32 C          21.2043  -28.4511  -40.1468 C.2       4 UNK         0.4949 
     33 O          21.9469  -28.6058  -41.1171 O.2       4 UNK        -0.5039 
     34 N          21.4498  -27.6088  -39.1307 N.am      5 UNK        -0.4663 
     35 CA         22.4654  -26.5499  -39.0316 C.3       5 UNK         0.0242 
     36 CB         21.8700  -25.2309  -39.5750 C.3       5 UNK        -0.1982 
     37 C          23.8375  -26.9057  -39.6400 C.2       5 UNK         0.5017 
     38 O          24.5443  -27.7429  -39.0787 O.2       5 UNK        -0.5012 
     39 N          24.1790  -26.2685  -40.7690 N.am      6 UNK        -0.4439 
     40 CA         25.4443  -26.4203  -41.4909 C.3       6 UNK         0.0297 
     41 CB         25.5527  -25.3149  -42.5546 C.3       6 UNK        -0.2006 
     42 C          25.6477  -27.8020  -42.1379 C.2       6 UNK         0.4892 
     43 O          26.7973  -28.2062  -42.3167 O.2       6 UNK        -0.5089 
     44 N          24.5536  -28.4978  -42.4807 N.am      7 UNK        -0.4243 
     45 CA         24.5945  -29.8680  -43.0000 C.3       7 UNK         0.0196 
     46 CB         23.3571  -30.1267  -43.8749 C.3       7 UNK        -0.2007 
     47 C          24.6937  -30.9049  -41.8688 C.2       7 UNK         0.5020 
     48 O          25.2191  -31.9941  -42.0971 O.2       7 UNK        -0.5147 
     49 N          24.1860  -30.5463  -40.6787 N.am      8 UNK        -0.4734 
     50 CA         24.1651  -31.3197  -39.4283 C.3       8 UNK         0.0238 
     51 CB         25.5989  -31.5537  -38.9081 C.3       8 UNK        -0.1912 
     52 C          23.3452  -32.6242  -39.5076 C.2       8 UNK         0.5038 
     53 O          23.5369  -33.5177  -38.6813 O.2       8 UNK        -0.5046 
     54 N          22.4410  -32.7051  -40.4897 N.am      9 UNK        -0.4200 
     55 CA         21.5714  -33.8548  -40.7725 C.3       9 UNK         0.0839 
     56 C          20.2972  -33.9552  -39.8820 C.2       9 UNK         0.5513 
     57 N          20.0704  -33.0532  -38.9344 N.am      9 UNK        -0.7519 
     58 O          19.5106  -34.8858  -40.0381 O.2       9 UNK        -0.4960 
     59 C59        21.2614  -33.9520  -42.2899 C.3       10 UNK        -0.0876 
     60 S60        20.5089  -32.4418  -42.9843 S.3       10 UNK        -0.2414 
     61 C61        20.5510  -32.8471  -44.7551 C.3       10 UNK         0.0169 
     62 H62        22.7279  -23.8819  -43.0844 H         1 UNK         0.0903 
     63 H63        22.3543  -22.1790  -43.2695 H         1 UNK         0.0903 
     64 H64        21.0709  -23.3009  -42.8374 H         1 UNK         0.0903 
     65 H65        21.2722  -24.7185  -46.3981 H         1 UNK         0.3096 
     66 H66        22.3309  -25.9312  -44.0459 H         1 UNK         0.1121 
     67 H67        21.3713  -28.0488  -45.0359 H         1 UNK         0.0849 
     68 H68        22.4843  -27.1849  -46.0561 H         1 UNK         0.0849 
     69 H69        21.5759  -28.9446  -47.7917 H         1 UNK         0.0865 
     70 H70        20.1356  -28.6961  -48.7426 H         1 UNK         0.0865 
     71 H71        21.5594  -30.7627  -46.2121 H         1 UNK         0.1346 
     72 H72        17.8695  -32.6101  -45.0503 H         1 UNK         0.1412 
     73 H73        17.8252  -29.0984  -47.5126 H         1 UNK         0.1426 
     74 H74        15.7667  -31.7584  -45.8167 H         1 UNK         0.0716 
     75 H75        15.7602  -30.7241  -47.2252 H         1 UNK         0.0716 
     76 H76        16.1692  -30.9408  -43.4229 H         1 UNK         0.0695 
     77 H77        15.4931  -29.4576  -42.8031 H         1 UNK         0.0695 
     78 H78        18.3198  -29.8186  -43.9095 H         1 UNK         0.0983 
     79 H79        18.4308  -27.7010  -44.3202 H         1 UNK         0.3095 
     80 H80        17.0445  -25.0632  -44.0386 H         1 UNK         0.0454 
     81 H81        16.9433  -24.3266  -41.6815 H         1 UNK         0.0851 
     82 H82        18.2436  -23.4800  -42.4989 H         1 UNK         0.0851 
     83 H83        18.6078  -24.8190  -41.4110 H         1 UNK         0.0851 
     84 H84        19.0362  -25.0625  -45.0347 H         1 UNK         0.2976 
     85 H85        19.5984  -28.2622  -41.9160 H         1 UNK         0.3116 
     86 H86        20.1639  -30.3069  -40.0496 H         1 UNK         0.0646 
     87 H87        18.0939  -29.5344  -38.8697 H         1 UNK         0.0847 
     88 H88        18.6578  -27.8714  -38.9055 H         1 UNK         0.0847 
     89 H89        19.4998  -29.0888  -37.9393 H         1 UNK         0.0847 
     90 H90        20.7867  -27.6227  -38.3690 H         1 UNK         0.3040 
     91 H91        22.6515  -26.4048  -37.9660 H         1 UNK         0.1015 
     92 H92        22.5756  -24.4041  -39.4800 H         1 UNK         0.0786 
     93 H93        20.9782  -24.9475  -39.0156 H         1 UNK         0.0786 
     94 H94        21.5809  -25.3094  -40.6227 H         1 UNK         0.0786 
     95 H95        23.5120  -25.6154  -41.1511 H         1 UNK         0.3172 
     96 H96        26.2518  -26.2777  -40.7696 H         1 UNK         0.0595 
     97 H97        24.7770  -25.4061  -43.3155 H         1 UNK         0.0839 
     98 H98        26.5145  -25.3633  -43.0675 H         1 UNK         0.0839 
     99 H99        25.4770  -24.3224  -42.1099 H         1 UNK         0.0839 
    100 H100       23.6389  -28.1364  -42.2309 H         1 UNK         0.2998 
    101 H101       25.4782  -29.9881  -43.6308 H         1 UNK         0.0822 
    102 H102       23.3498  -31.1527  -44.2451 H         1 UNK         0.0787 
    103 H103       23.3496  -29.4709  -44.7448 H         1 UNK         0.0787 
    104 H104       22.4267  -29.9728  -43.3278 H         1 UNK         0.0787 
    105 H105       23.7424  -29.6353  -40.6297 H         1 UNK         0.3055 
    106 H106       23.6527  -30.6913  -38.6979 H         1 UNK         0.1106 
    107 H107       26.1516  -30.6164  -38.8412 H         1 UNK         0.0828 
    108 H108       25.5885  -31.9928  -37.9098 H         1 UNK         0.0828 
    109 H109       26.1596  -32.2298  -39.5541 H         1 UNK         0.0828 
    110 H110       22.3416  -31.9208  -41.1175 H         1 UNK         0.2931 
    111 H111       22.1441  -34.7512  -40.5266 H         1 UNK         0.0412 
    112 H112       20.7243  -32.3065  -38.7736 H         1 UNK         0.3472 
    113 H113       19.2431  -33.1355  -38.3648 H         1 UNK         0.3472 
    114 H114       20.6129  -34.8042  -42.5021 H         1 UNK         0.0970 
    115 H115       22.1890  -34.1470  -42.8306 H         1 UNK         0.0970 
    116 H116       21.5878  -32.9156  -45.0878 H         1 UNK         0.0612 
    117 H117       20.1045  -33.8297  -44.9159 H         1 UNK         0.0612 
@<TRIPOS>BOND
     1    1    2 1    
     2    1   62 1    
     3    1   63 1    
     4    1   64 1    
     5    2    3 2    
     6    2    4 am   BACKBONE|DICT|INTERRES
     7    4    5 1    
     8    4   65 1    
     9    5    6 1    
    10    5   25 1    
    11    5   66 1    
    12    6    7 1    
    13    6   67 1    
    14    6   68 1    
    15    7    8 1    
    16    8    9 1    
    17    8   69 1    
    18    8   70 1    
    19    9   10 ar   
    20    9   14 ar   
    21   10   11 ar   
    22   10   71 1    
    23   11   12 ar   
    24   11   61 1    
    25   12   13 ar   
    26   12   72 1    
    27   13   14 ar   
    28   13   15 1    
    29   14   73 1    
    30   15   16 1    
    31   15   74 1    
    32   15   75 1    
    33   16   17 1    
    34   17   18 1    
    35   17   76 1    
    36   17   77 1    
    37   18   19 1    
    38   18   27 1    
    39   18   78 1    
    40   19   20 am   BACKBONE|DICT|INTERRES
    41   19   79 1    
    42   20   21 2    
    43   20   22 1    
    44   22   23 1    
    45   22   24 1    
    46   22   80 1    
    47   23   81 1    
    48   23   82 1    
    49   23   83 1    
    50   24   25 am   BACKBONE|DICT|INTERRES
    51   24   84 1    
    52   25   26 2    
    53   27   28 2    
    54   27   29 am   BACKBONE|DICT|INTERRES
    55   29   30 1    
    56   29   85 1    
    57   30   31 1    
    58   30   32 1    
    59   30   86 1    
    60   31   87 1    
    61   31   88 1    
    62   31   89 1    
    63   32   33 2    
    64   32   34 am   BACKBONE|DICT|INTERRES
    65   34   35 1    
    66   34   90 1    
    67   35   36 1    
    68   35   37 1    
    69   35   91 1    
    70   36   92 1    
    71   36   93 1    
    72   36   94 1    
    73   37   38 2    
    74   37   39 am   BACKBONE|DICT|INTERRES
    75   39   40 1    
    76   39   95 1    
    77   40   41 1    
    78   40   42 1    
    79   40   96 1    
    80   41   97 1    
    81   41   98 1    
    82   41   99 1    
    83   42   43 2    
    84   42   44 am   BACKBONE|DICT|INTERRES
    85   44   45 1    
    86   44  100 1    
    87   45   46 1    
    88   45   47 1    
    89   45  101 1    
    90   46  102 1    
    91   46  103 1    
    92   46  104 1    
    93   47   48 2    
    94   47   49 am   BACKBONE|DICT|INTERRES
    95   49   50 1    
    96   49  105 1    
    97   50   51 1    
    98   50   52 1    
    99   50  106 1    
   100   51  107 1    
   101   51  108 1    
   102   51  109 1    
   103   52   53 2    
   104   52   54 am   BACKBONE|DICT|INTERRES
   105   54   55 1    
   106   54  110 1    
   107   55   56 1    
   108   55   59 1    
   109   55  111 1    
   110   56   57 am   BACKBONE|DICT|INTERRES
   111   56   58 2    
   112   57  112 1    
   113   57  113 1    
   114   59   60 1    
   115   59  114 1    
   116   59  115 1    
   117   60   61 1    
   118   61  116 1    
   119   61  117 1    
@<TRIPOS>SUBSTRUCTURE
     1 UNK         1 GROUP             0       ****    0 ROOT    
