@<TRIPOS>MOLECULE
3R8
117   119    1
SMALL
USER_CHARGES


@<TRIPOS>ATOM
      1 CA         15.8587  -27.4711  -41.2198 C.3       0 UNK        -0.2013 
      2 C          16.2346  -26.2577  -42.0577 C.2       0 UNK         0.4866 
      3 O          15.6171  -25.2030  -41.9084 O.2       0 UNK        -0.5176 
      4 N          17.2383  -26.3940  -42.9322 N.am      1 UNK        -0.4884 
      5 CA         17.7615  -25.3110  -43.7664 C.3       1 UNK         0.0853 
      6 C6         16.9517  -25.1037  -45.0805 C.3       10 UNK        -0.0849 
      7 S7         17.1336  -26.3760  -46.3816 S.3       10 UNK        -0.2776 
      8 C8         15.9220  -27.6540  -45.9053 C.3       10 UNK         0.0316 
      9 C9         16.6083  -28.9429  -45.4677 C.ar      10 UNK        -0.0863 
     10 C10        16.3254  -29.5157  -44.2232 C.ar      10 UNK        -0.1009 
     11 C11        16.9614  -30.6952  -43.8185 C.ar      10 UNK        -0.0712 
     12 C12        17.8624  -31.3175  -44.6855 C.ar      10 UNK        -0.0894 
     13 C13        18.1777  -30.7391  -45.9187 C.ar      10 UNK        -0.0745 
     14 C14        17.5300  -29.5677  -46.3140 C.ar      10 UNK        -0.0972 
     15 C15        19.2698  -31.3406  -46.7923 C.3       10 UNK         0.0209 
     16 S16        20.8102  -30.3578  -46.7282 S.3       10 UNK        -0.2568 
     17 C17        21.1869  -30.3646  -44.9404 C.3       10 UNK        -0.0983 
     18 CA         21.9108  -29.1016  -44.4171 C.3       3 UNK         0.0876 
     19 N          21.3713  -27.8428  -44.9449 N.am      3 UNK        -0.4424 
     20 C          22.0018  -26.6646  -44.8357 C.2       2 UNK         0.4918 
     21 O          23.0852  -26.5226  -44.2689 O.2       2 UNK        -0.4875 
     22 CA         21.2819  -25.4276  -45.4003 C.3       2 UNK         0.0481 
     23 CB         21.4983  -25.3265  -46.9180 C.3       2 UNK        -0.1831 
     24 N          19.8456  -25.3771  -45.1040 N.am      2 UNK        -0.4498 
     25 C          19.2924  -25.4563  -43.8860 C.2       1 UNK         0.5027 
     26 O          19.9530  -25.6372  -42.8610 O.2       1 UNK        -0.4969 
     27 C          21.9185  -29.1274  -42.8739 C.2       3 UNK         0.5005 
     28 O          22.7697  -29.7986  -42.2890 O.2       3 UNK        -0.5279 
     29 N          20.9751  -28.4154  -42.2352 N.am      4 UNK        -0.4463 
     30 CA         20.8850  -28.2926  -40.7786 C.3       4 UNK         0.0283 
     31 CB         19.5258  -27.7218  -40.3475 C.3       4 UNK        -0.1875 
     32 C          22.0382  -27.4529  -40.2219 C.2       4 UNK         0.4949 
     33 O          22.6627  -27.8572  -39.2420 O.2       4 UNK        -0.5039 
     34 N          22.3305  -26.3339  -40.8980 N.am      5 UNK        -0.4663 
     35 CA         23.4827  -25.4781  -40.6154 C.3       5 UNK         0.0242 
     36 CB         23.3719  -24.1858  -41.4405 C.3       5 UNK        -0.1982 
     37 C          24.8238  -26.1850  -40.8804 C.2       5 UNK         0.5017 
     38 O          25.7595  -26.0106  -40.0992 O.2       5 UNK        -0.5012 
     39 N          24.8897  -26.9634  -41.9700 N.am      6 UNK        -0.4439 
     40 CA         26.0821  -27.6975  -42.3891 C.3       6 UNK         0.0297 
     41 CB         25.9432  -28.1336  -43.8565 C.3       6 UNK        -0.2006 
     42 C          26.4151  -28.9053  -41.4975 C.2       6 UNK         0.4892 
     43 O          27.5632  -29.0182  -41.0650 O.2       6 UNK        -0.5089 
     44 N          25.4456  -29.8077  -41.2798 N.am      7 UNK        -0.4243 
     45 CA         25.7055  -31.1363  -40.7117 C.3       7 UNK         0.0196 
     46 CB         26.1597  -32.0859  -41.8406 C.3       7 UNK        -0.2007 
     47 C          24.5275  -31.7231  -39.9143 C.2       7 UNK         0.5020 
     48 O          24.5186  -32.9333  -39.6849 O.2       7 UNK        -0.5147 
     49 N          23.5693  -30.8863  -39.4864 N.am      8 UNK        -0.4734 
     50 CA         22.3567  -31.2657  -38.7414 C.3       8 UNK         0.0238 
     51 CB         22.7124  -31.8114  -37.3402 C.3       8 UNK        -0.1912 
     52 C          21.4221  -32.2043  -39.5384 C.2       8 UNK         0.5038 
     53 O          20.8772  -33.1526  -38.9696 O.2       8 UNK        -0.5046 
     54 N          21.2526  -31.9133  -40.8365 N.am      9 UNK        -0.4200 
     55 CA         20.4632  -32.6864  -41.8106 C.3       9 UNK         0.0839 
     56 C          21.1334  -34.0571  -42.1322 C.2       9 UNK         0.5513 
     57 N          20.3726  -35.1208  -42.3839 N.am      9 UNK        -0.7519 
     58 O          22.3593  -34.1516  -42.2227 O.2       9 UNK        -0.4960 
     59 C59        18.9395  -32.7634  -41.4761 C.3       10 UNK        -0.0876 
     60 S60        18.1291  -31.1303  -41.3278 S.3       10 UNK        -0.2414 
     61 C61        16.6885  -31.2888  -42.4422 C.3       10 UNK         0.0169 
     62 H62        14.8160  -27.7374  -41.3907 H         1 UNK         0.0903 
     63 H63        16.4729  -28.3390  -41.4533 H         1 UNK         0.0903 
     64 H64        15.9831  -27.2466  -40.1606 H         1 UNK         0.0903 
     65 H65        17.7241  -27.2753  -43.0158 H         1 UNK         0.3096 
     66 H66        17.6522  -24.3843  -43.1977 H         1 UNK         0.1121 
     67 H67        17.2352  -24.1483  -45.5256 H         1 UNK         0.0849 
     68 H68        15.8921  -24.9921  -44.8455 H         1 UNK         0.0849 
     69 H69        15.2621  -27.2756  -45.1233 H         1 UNK         0.0865 
     70 H70        15.2850  -27.8712  -46.7636 H         1 UNK         0.0865 
     71 H71        15.6079  -29.0416  -43.5693 H         1 UNK         0.1346 
     72 H72        18.3642  -32.2230  -44.3757 H         1 UNK         0.1412 
     73 H73        17.7717  -29.1216  -47.2694 H         1 UNK         0.1426 
     74 H74        19.4878  -32.3657  -46.4884 H         1 UNK         0.0716 
     75 H75        18.9233  -31.3933  -47.8253 H         1 UNK         0.0716 
     76 H76        20.2642  -30.4915  -44.3819 H         1 UNK         0.0695 
     77 H77        21.7860  -31.2527  -44.7299 H         1 UNK         0.0695 
     78 H78        22.9488  -29.1667  -44.7474 H         1 UNK         0.0983 
     79 H79        20.4924  -27.8952  -45.4396 H         1 UNK         0.3095 
     80 H80        21.7349  -24.5496  -44.9354 H         1 UNK         0.0454 
     81 H81        21.0241  -26.1517  -47.4511 H         1 UNK         0.0851 
     82 H82        21.0957  -24.3948  -47.3155 H         1 UNK         0.0851 
     83 H83        22.5611  -25.3478  -47.1634 H         1 UNK         0.0851 
     84 H84        19.2202  -25.2859  -45.8943 H         1 UNK         0.2976 
     85 H85        20.3622  -27.8242  -42.7793 H         1 UNK         0.3116 
     86 H86        20.9552  -29.2929  -40.3604 H         1 UNK         0.0646 
     87 H87        19.3997  -26.6775  -40.6297 H         1 UNK         0.0847 
     88 H88        18.7057  -28.2911  -40.7782 H         1 UNK         0.0847 
     89 H89        19.4165  -27.7725  -39.2636 H         1 UNK         0.0847 
     90 H90        21.7389  -26.0747  -41.6798 H         1 UNK         0.3040 
     91 H91        23.4532  -25.2138  -39.5559 H         1 UNK         0.1015 
     92 H92        23.3731  -24.3875  -42.5124 H         1 UNK         0.0786 
     93 H93        24.2088  -23.5177  -41.2329 H         1 UNK         0.0786 
     94 H94        22.4569  -23.6423  -41.2043 H         1 UNK         0.0786 
     95 H95        24.0932  -26.9807  -42.5991 H         1 UNK         0.3172 
     96 H96        26.9271  -27.0074  -42.3353 H         1 UNK         0.0595 
     97 H97        26.8503  -28.6317  -44.2014 H         1 UNK         0.0839 
     98 H98        25.7749  -27.2791  -44.5122 H         1 UNK         0.0839 
     99 H99        25.1189  -28.8319  -43.9950 H         1 UNK         0.0839 
    100 H100       24.5164  -29.6626  -41.6717 H         1 UNK         0.2998 
    101 H101       26.5195  -31.0594  -39.9881 H         1 UNK         0.0822 
    102 H102       26.4277  -33.0689  -41.4516 H         1 UNK         0.0787 
    103 H103       25.3692  -32.2301  -42.5781 H         1 UNK         0.0787 
    104 H104       27.0374  -31.7011  -42.3600 H         1 UNK         0.0787 
    105 H105       23.6583  -29.8997  -39.6991 H         1 UNK         0.3055 
    106 H106       21.7929  -30.3486  -38.5744 H         1 UNK         0.1106 
    107 H107       23.3602  -31.1223  -36.7987 H         1 UNK         0.0828 
    108 H108       21.8141  -31.9499  -36.7374 H         1 UNK         0.0828 
    109 H109       23.2163  -32.7768  -37.3921 H         1 UNK         0.0828 
    110 H110       21.8098  -31.1630  -41.2318 H         1 UNK         0.2931 
    111 H111       20.5464  -32.1281  -42.7408 H         1 UNK         0.0412 
    112 H112       20.8238  -35.9926  -42.6144 H         1 UNK         0.3472 
    113 H113       19.3635  -35.0817  -42.3309 H         1 UNK         0.3472 
    114 H114       18.4175  -33.3305  -42.2462 H         1 UNK         0.0970 
    115 H115       18.7770  -33.3106  -40.5466 H         1 UNK         0.0970 
    116 H116       16.3863  -32.3321  -42.5392 H         1 UNK         0.0612 
    117 H117       15.8443  -30.7793  -41.9755 H         1 UNK         0.0612 
@<TRIPOS>BOND
     1    1    2 1    
     2    1   62 1    
     3    1   63 1    
     4    1   64 1    
     5    2    3 2    
     6    2    4 am   BACKBONE|DICT|INTERRES
     7    4    5 1    
     8    4   65 1    
     9    5    6 1    
    10    5   25 1    
    11    5   66 1    
    12    6    7 1    
    13    6   67 1    
    14    6   68 1    
    15    7    8 1    
    16    8    9 1    
    17    8   69 1    
    18    8   70 1    
    19    9   10 ar   
    20    9   14 ar   
    21   10   11 ar   
    22   10   71 1    
    23   11   12 ar   
    24   11   61 1    
    25   12   13 ar   
    26   12   72 1    
    27   13   14 ar   
    28   13   15 1    
    29   14   73 1    
    30   15   16 1    
    31   15   74 1    
    32   15   75 1    
    33   16   17 1    
    34   17   18 1    
    35   17   76 1    
    36   17   77 1    
    37   18   19 1    
    38   18   27 1    
    39   18   78 1    
    40   19   20 am   BACKBONE|DICT|INTERRES
    41   19   79 1    
    42   20   21 2    
    43   20   22 1    
    44   22   23 1    
    45   22   24 1    
    46   22   80 1    
    47   23   81 1    
    48   23   82 1    
    49   23   83 1    
    50   24   25 am   BACKBONE|DICT|INTERRES
    51   24   84 1    
    52   25   26 2    
    53   27   28 2    
    54   27   29 am   BACKBONE|DICT|INTERRES
    55   29   30 1    
    56   29   85 1    
    57   30   31 1    
    58   30   32 1    
    59   30   86 1    
    60   31   87 1    
    61   31   88 1    
    62   31   89 1    
    63   32   33 2    
    64   32   34 am   BACKBONE|DICT|INTERRES
    65   34   35 1    
    66   34   90 1    
    67   35   36 1    
    68   35   37 1    
    69   35   91 1    
    70   36   92 1    
    71   36   93 1    
    72   36   94 1    
    73   37   38 2    
    74   37   39 am   BACKBONE|DICT|INTERRES
    75   39   40 1    
    76   39   95 1    
    77   40   41 1    
    78   40   42 1    
    79   40   96 1    
    80   41   97 1    
    81   41   98 1    
    82   41   99 1    
    83   42   43 2    
    84   42   44 am   BACKBONE|DICT|INTERRES
    85   44   45 1    
    86   44  100 1    
    87   45   46 1    
    88   45   47 1    
    89   45  101 1    
    90   46  102 1    
    91   46  103 1    
    92   46  104 1    
    93   47   48 2    
    94   47   49 am   BACKBONE|DICT|INTERRES
    95   49   50 1    
    96   49  105 1    
    97   50   51 1    
    98   50   52 1    
    99   50  106 1    
   100   51  107 1    
   101   51  108 1    
   102   51  109 1    
   103   52   53 2    
   104   52   54 am   BACKBONE|DICT|INTERRES
   105   54   55 1    
   106   54  110 1    
   107   55   56 1    
   108   55   59 1    
   109   55  111 1    
   110   56   57 am   BACKBONE|DICT|INTERRES
   111   56   58 2    
   112   57  112 1    
   113   57  113 1    
   114   59   60 1    
   115   59  114 1    
   116   59  115 1    
   117   60   61 1    
   118   61  116 1    
   119   61  117 1    
@<TRIPOS>SUBSTRUCTURE
     1 UNK         1 GROUP             0       ****    0 ROOT    
