@<TRIPOS>MOLECULE
3R8
117   119    1
SMALL
USER_CHARGES


@<TRIPOS>ATOM
      1 CA         14.5941  -22.4725  -42.5255 C.3       0 UNK        -0.2013 
      2 C          15.0165  -23.5455  -43.5182 C.2       0 UNK         0.4866 
      3 O          14.6921  -23.4455  -44.7022 O.2       0 UNK        -0.5176 
      4 N          15.7301  -24.5749  -43.0446 N.am      1 UNK        -0.4884 
      5 CA         16.2812  -25.6558  -43.8687 C.3       1 UNK         0.0853 
      6 C6         16.5650  -26.9145  -43.0106 C.3       10 UNK        -0.0849 
      7 S7         16.6249  -28.4396  -44.0132 S.3       10 UNK        -0.2776 
      8 C8         17.6392  -29.5110  -42.9520 C.3       10 UNK         0.0316 
      9 C9         18.3910  -30.5465  -43.7721 C.ar      10 UNK        -0.0863 
     10 C10        17.9805  -31.8813  -43.7980 C.ar      10 UNK        -0.1009 
     11 C11        18.7242  -32.8317  -44.5038 C.ar      10 UNK        -0.0712 
     12 C12        19.8905  -32.4386  -45.1691 C.ar      10 UNK        -0.0894 
     13 C13        20.3116  -31.1041  -45.1629 C.ar      10 UNK        -0.0745 
     14 C14        19.5311  -30.1625  -44.4807 C.ar      10 UNK        -0.0972 
     15 C15        21.6394  -30.7597  -45.8505 C.3       10 UNK         0.0209 
     16 S16        21.9933  -28.9920  -46.1693 S.3       10 UNK        -0.2568 
     17 C17        22.2962  -28.3127  -44.4949 C.3       10 UNK        -0.0983 
     18 CA         21.7376  -26.8719  -44.2605 C.3       3 UNK         0.0876 
     19 N          20.4871  -26.5813  -44.9659 N.am      3 UNK        -0.4424 
     20 C          20.3724  -25.8034  -46.0481 C.2       2 UNK         0.4918 
     21 O          21.3248  -25.2464  -46.5962 O.2       2 UNK        -0.4875 
     22 CA         18.9646  -25.6158  -46.6449 C.3       2 UNK         0.0481 
     23 CB         18.8066  -26.4932  -47.8976 C.3       2 UNK        -0.1831 
     24 N          17.8618  -25.9070  -45.7242 N.am      2 UNK        -0.4498 
     25 C          17.5305  -25.1810  -44.6480 C.2       1 UNK         0.5027 
     26 O          18.1665  -24.1938  -44.2682 O.2       1 UNK        -0.4969 
     27 C          21.4689  -26.6256  -42.7678 C.2       3 UNK         0.5005 
     28 O          20.3380  -26.8280  -42.3141 O.2       3 UNK        -0.5279 
     29 N          22.5060  -26.2283  -42.0265 N.am      4 UNK        -0.4463 
     30 CA         22.4793  -25.9952  -40.5860 C.3       4 UNK         0.0283 
     31 CB         21.8838  -24.6088  -40.2795 C.3       4 UNK        -0.1875 
     32 C          23.9135  -26.1081  -40.0621 C.2       4 UNK         0.4949 
     33 O          24.8556  -25.9017  -40.8312 O.2       4 UNK        -0.5039 
     34 N          24.0524  -26.4472  -38.7731 N.am      5 UNK        -0.4663 
     35 CA         25.2915  -26.6608  -38.0012 C.3       5 UNK         0.0242 
     36 CB         26.1676  -25.3925  -37.9729 C.3       5 UNK        -0.1982 
     37 C          26.1180  -27.8944  -38.4192 C.2       5 UNK         0.5017 
     38 O          26.6763  -28.5629  -37.5485 O.2       5 UNK        -0.5012 
     39 N          26.1646  -28.1893  -39.7198 N.am      6 UNK        -0.4439 
     40 CA         26.7602  -29.3715  -40.3302 C.3       6 UNK         0.0297 
     41 CB         28.1664  -29.0247  -40.8477 C.3       6 UNK        -0.2006 
     42 C          25.8483  -29.8339  -41.4734 C.2       6 UNK         0.4892 
     43 O          25.0249  -29.0509  -41.9546 O.2       6 UNK        -0.5089 
     44 N          26.0014  -31.1037  -41.8734 N.am      7 UNK        -0.4243 
     45 CA         25.3031  -31.8208  -42.9559 C.3       7 UNK         0.0196 
     46 CB         25.5590  -31.1491  -44.3206 C.3       7 UNK        -0.2007 
     47 C          23.7937  -32.0616  -42.7461 C.2       7 UNK         0.5020 
     48 O          23.2625  -33.0063  -43.3298 O.2       7 UNK        -0.5147 
     49 N          23.1294  -31.2200  -41.9454 N.am      8 UNK        -0.4734 
     50 CA         21.6997  -31.2680  -41.6409 C.3       8 UNK         0.0238 
     51 CB         21.3316  -30.0557  -40.7709 C.3       8 UNK        -0.1912 
     52 C          21.2675  -32.5725  -40.9538 C.2       8 UNK         0.5038 
     53 O          21.9655  -33.0514  -40.0565 O.2       8 UNK        -0.5046 
     54 N          20.1053  -33.0911  -41.3659 N.am      9 UNK        -0.4200 
     55 CA         19.4858  -34.3079  -40.8175 C.3       9 UNK         0.0839 
     56 C          18.8562  -34.1375  -39.4036 C.2       9 UNK         0.5513 
     57 N          18.7078  -32.9275  -38.8774 N.am      9 UNK        -0.7519 
     58 O          18.4981  -35.1273  -38.7704 O.2       9 UNK        -0.4960 
     59 C59        18.4603  -34.9242  -41.8049 C.3       10 UNK        -0.0876 
     60 S60        19.1976  -35.3506  -43.4206 S.3       10 UNK        -0.2414 
     61 C61        18.2669  -34.2823  -44.5641 C.3       10 UNK         0.0169 
     62 H62        15.0083  -21.5079  -42.8177 H         1 UNK         0.0903 
     63 H63        13.5081  -22.3855  -42.5061 H         1 UNK         0.0903 
     64 H64        14.9343  -22.6949  -41.5142 H         1 UNK         0.0903 
     65 H65        15.9996  -24.5833  -42.0710 H         1 UNK         0.3096 
     66 H66        15.5166  -25.9136  -44.6060 H         1 UNK         0.1121 
     67 H67        17.4867  -26.7911  -42.4379 H         1 UNK         0.0849 
     68 H68        15.7712  -27.0546  -42.2747 H         1 UNK         0.0849 
     69 H69        18.3644  -28.9161  -42.3942 H         1 UNK         0.0865 
     70 H70        17.0004  -29.9895  -42.2079 H         1 UNK         0.0865 
     71 H71        17.0846  -32.1791  -43.2700 H         1 UNK         0.1346 
     72 H72        20.4793  -33.1826  -45.6889 H         1 UNK         0.1412 
     73 H73        19.8104  -29.1236  -44.4619 H         1 UNK         0.1426 
     74 H74        22.4565  -31.1717  -45.2591 H         1 UNK         0.0716 
     75 H75        21.6740  -31.2728  -46.8126 H         1 UNK         0.0716 
     76 H76        23.3747  -28.3093  -44.3293 H         1 UNK         0.0695 
     77 H77        21.9118  -29.0186  -43.7583 H         1 UNK         0.0695 
     78 H78        22.4993  -26.1560  -44.5774 H         1 UNK         0.0983 
     79 H79        19.6509  -26.9144  -44.5080 H         1 UNK         0.3095 
     80 H80        18.8769  -24.5706  -46.9484 H         1 UNK         0.0454 
     81 H81        18.8735  -27.5551  -47.6564 H         1 UNK         0.0851 
     82 H82        17.8503  -26.3177  -48.3904 H         1 UNK         0.0851 
     83 H83        19.5883  -26.2772  -48.6273 H         1 UNK         0.0851 
     84 H84        17.3083  -26.7271  -45.9334 H         1 UNK         0.2976 
     85 H85        23.4306  -26.1418  -42.4340 H         1 UNK         0.3116 
     86 H86        21.8733  -26.7690  -40.1095 H         1 UNK         0.0646 
     87 H87        20.8551  -24.5305  -40.6316 H         1 UNK         0.0847 
     88 H88        22.4602  -23.8114  -40.7503 H         1 UNK         0.0847 
     89 H89        21.8726  -24.4142  -39.2065 H         1 UNK         0.0847 
     90 H90        23.2036  -26.6137  -38.2488 H         1 UNK         0.3040 
     91 H91        24.9661  -26.8500  -36.9766 H         1 UNK         0.1015 
     92 H92        27.0184  -25.5243  -37.3031 H         1 UNK         0.0786 
     93 H93        25.6053  -24.5296  -37.6161 H         1 UNK         0.0786 
     94 H94        26.5688  -25.1487  -38.9570 H         1 UNK         0.0786 
     95 H95        25.6598  -27.5830  -40.3637 H         1 UNK         0.3172 
     96 H96        26.8261  -30.1767  -39.5953 H         1 UNK         0.0595 
     97 H97        28.1345  -28.2329  -41.5975 H         1 UNK         0.0839 
     98 H98        28.6433  -29.8913  -41.3072 H         1 UNK         0.0839 
     99 H99        28.8147  -28.6910  -40.0373 H         1 UNK         0.0839 
    100 H100       26.6833  -31.6616  -41.3771 H         1 UNK         0.2998 
    101 H101       25.7613  -32.8107  -42.9900 H         1 UNK         0.0822 
    102 H102       26.6256  -31.0372  -44.5150 H         1 UNK         0.0787 
    103 H103       25.1427  -31.7468  -45.1327 H         1 UNK         0.0787 
    104 H104       25.1006  -30.1618  -44.3820 H         1 UNK         0.0787 
    105 H105       23.6533  -30.4348  -41.5764 H         1 UNK         0.3055 
    106 H106       21.1742  -31.1903  -42.5901 H         1 UNK         0.1106 
    107 H107       21.6295  -29.1219  -41.2441 H         1 UNK         0.0828 
    108 H108       20.2550  -30.0032  -40.6051 H         1 UNK         0.0828 
    109 H109       21.8133  -30.1009  -39.7932 H         1 UNK         0.0828 
    110 H110       19.6072  -32.6500  -42.1260 H         1 UNK         0.2931 
    111 H111       20.2861  -35.0403  -40.6927 H         1 UNK         0.0412 
    112 H112       18.3014  -32.8358  -37.9594 H         1 UNK         0.3472 
    113 H113       19.0019  -32.1086  -39.3831 H         1 UNK         0.3472 
    114 H114       17.6123  -34.2521  -41.9438 H         1 UNK         0.0970 
    115 H115       18.0436  -35.8450  -41.3920 H         1 UNK         0.0970 
    116 H116       17.1986  -34.3637  -44.3571 H         1 UNK         0.0612 
    117 H117       18.4055  -34.6584  -45.5788 H         1 UNK         0.0612 
@<TRIPOS>BOND
     1    1    2 1    
     2    1   62 1    
     3    1   63 1    
     4    1   64 1    
     5    2    3 2    
     6    2    4 am   BACKBONE|DICT|INTERRES
     7    4    5 1    
     8    4   65 1    
     9    5    6 1    
    10    5   25 1    
    11    5   66 1    
    12    6    7 1    
    13    6   67 1    
    14    6   68 1    
    15    7    8 1    
    16    8    9 1    
    17    8   69 1    
    18    8   70 1    
    19    9   10 ar   
    20    9   14 ar   
    21   10   11 ar   
    22   10   71 1    
    23   11   12 ar   
    24   11   61 1    
    25   12   13 ar   
    26   12   72 1    
    27   13   14 ar   
    28   13   15 1    
    29   14   73 1    
    30   15   16 1    
    31   15   74 1    
    32   15   75 1    
    33   16   17 1    
    34   17   18 1    
    35   17   76 1    
    36   17   77 1    
    37   18   19 1    
    38   18   27 1    
    39   18   78 1    
    40   19   20 am   BACKBONE|DICT|INTERRES
    41   19   79 1    
    42   20   21 2    
    43   20   22 1    
    44   22   23 1    
    45   22   24 1    
    46   22   80 1    
    47   23   81 1    
    48   23   82 1    
    49   23   83 1    
    50   24   25 am   BACKBONE|DICT|INTERRES
    51   24   84 1    
    52   25   26 2    
    53   27   28 2    
    54   27   29 am   BACKBONE|DICT|INTERRES
    55   29   30 1    
    56   29   85 1    
    57   30   31 1    
    58   30   32 1    
    59   30   86 1    
    60   31   87 1    
    61   31   88 1    
    62   31   89 1    
    63   32   33 2    
    64   32   34 am   BACKBONE|DICT|INTERRES
    65   34   35 1    
    66   34   90 1    
    67   35   36 1    
    68   35   37 1    
    69   35   91 1    
    70   36   92 1    
    71   36   93 1    
    72   36   94 1    
    73   37   38 2    
    74   37   39 am   BACKBONE|DICT|INTERRES
    75   39   40 1    
    76   39   95 1    
    77   40   41 1    
    78   40   42 1    
    79   40   96 1    
    80   41   97 1    
    81   41   98 1    
    82   41   99 1    
    83   42   43 2    
    84   42   44 am   BACKBONE|DICT|INTERRES
    85   44   45 1    
    86   44  100 1    
    87   45   46 1    
    88   45   47 1    
    89   45  101 1    
    90   46  102 1    
    91   46  103 1    
    92   46  104 1    
    93   47   48 2    
    94   47   49 am   BACKBONE|DICT|INTERRES
    95   49   50 1    
    96   49  105 1    
    97   50   51 1    
    98   50   52 1    
    99   50  106 1    
   100   51  107 1    
   101   51  108 1    
   102   51  109 1    
   103   52   53 2    
   104   52   54 am   BACKBONE|DICT|INTERRES
   105   54   55 1    
   106   54  110 1    
   107   55   56 1    
   108   55   59 1    
   109   55  111 1    
   110   56   57 am   BACKBONE|DICT|INTERRES
   111   56   58 2    
   112   57  112 1    
   113   57  113 1    
   114   59   60 1    
   115   59  114 1    
   116   59  115 1    
   117   60   61 1    
   118   61  116 1    
   119   61  117 1    
@<TRIPOS>SUBSTRUCTURE
     1 UNK         1 GROUP             0       ****    0 ROOT    
