@<TRIPOS>MOLECULE
3R8
117   119    1
SMALL
USER_CHARGES


@<TRIPOS>ATOM
      1 CA         13.6834  -23.2490  -44.5215 C.3       0 UNK        -0.2013 
      2 C          14.8629  -24.1734  -44.7806 C.2       0 UNK         0.4866 
      3 O          15.2246  -24.4000  -45.9362 O.2       0 UNK        -0.5176 
      4 N          15.4775  -24.7055  -43.7167 N.am      1 UNK        -0.4884 
      5 CA         16.6169  -25.6309  -43.7626 C.3       1 UNK         0.0853 
      6 C6         16.6970  -26.5097  -42.4888 C.3       10 UNK        -0.0849 
      7 S7         15.2122  -27.5357  -42.2016 S.3       10 UNK        -0.2776 
      8 C8         15.1702  -28.6360  -43.6633 C.3       10 UNK         0.0316 
      9 C9         16.5094  -29.2943  -43.9841 C.ar      10 UNK        -0.0863 
     10 C10        17.2454  -29.9403  -42.9852 C.ar      10 UNK        -0.1009 
     11 C11        18.4821  -30.5218  -43.2751 C.ar      10 UNK        -0.0712 
     12 C12        18.9696  -30.4864  -44.5843 C.ar      10 UNK        -0.0894 
     13 C13        18.2396  -29.8544  -45.5968 C.ar      10 UNK        -0.0745 
     14 C14        17.0113  -29.2602  -45.2900 C.ar      10 UNK        -0.0972 
     15 C15        18.7768  -29.8183  -47.0230 C.3       10 UNK         0.0209 
     16 S16        19.4280  -28.1791  -47.4874 S.3       10 UNK        -0.2568 
     17 C17        20.8273  -28.0073  -46.3291 C.3       10 UNK        -0.0983 
     18 CA         21.3722  -26.5612  -46.1961 C.3       3 UNK         0.0876 
     19 N          20.2965  -25.5814  -46.0221 N.am      3 UNK        -0.4424 
     20 C          20.4344  -24.2513  -45.9356 C.2       2 UNK         0.4918 
     21 O          21.5113  -23.6649  -46.0463 O.2       2 UNK        -0.4875 
     22 CA         19.1556  -23.4290  -45.6777 C.3       2 UNK         0.0481 
     23 CB         18.7392  -22.6729  -46.9495 C.3       2 UNK        -0.1831 
     24 N          18.0107  -24.2113  -45.1954 N.am      2 UNK        -0.4498 
     25 C          17.9420  -24.8865  -44.0397 C.2       1 UNK         0.5027 
     26 O          18.8708  -24.9406  -43.2305 O.2       1 UNK        -0.4969 
     27 C          22.3947  -26.5291  -45.0414 C.2       3 UNK         0.5005 
     28 O          23.5866  -26.7314  -45.2811 O.2       3 UNK        -0.5279 
     29 N          21.8956  -26.3270  -43.8095 N.am      4 UNK        -0.4463 
     30 CA         22.5792  -26.3681  -42.5079 C.3       4 UNK         0.0283 
     31 CB         23.6649  -25.2800  -42.4027 C.3       4 UNK        -0.1875 
     32 C          23.1407  -27.7508  -42.1236 C.2       4 UNK         0.4949 
     33 O          22.9222  -28.1966  -40.9968 O.2       4 UNK        -0.5039 
     34 N          23.8702  -28.3918  -43.0489 N.am      5 UNK        -0.4663 
     35 CA         24.4767  -29.7311  -42.9728 C.3       5 UNK         0.0242 
     36 CB         23.3694  -30.8080  -42.9492 C.3       5 UNK        -0.1982 
     37 C          25.4735  -29.9194  -41.8102 C.2       5 UNK         0.5017 
     38 O          25.7363  -31.0565  -41.4200 O.2       5 UNK        -0.5012 
     39 N          25.9633  -28.8105  -41.2319 N.am      6 UNK        -0.4439 
     40 CA         26.7150  -28.7296  -39.9698 C.3       6 UNK         0.0297 
     41 CB         28.1353  -29.3076  -40.1458 C.3       6 UNK        -0.2006 
     42 C          25.9597  -29.3604  -38.7758 C.2       6 UNK         0.4892 
     43 O          26.5955  -29.8861  -37.8613 O.2       6 UNK        -0.5089 
     44 N          24.6169  -29.3317  -38.8371 N.am      7 UNK        -0.4243 
     45 CA         23.6471  -29.9986  -37.9585 C.3       7 UNK         0.0196 
     46 CB         23.7768  -29.5115  -36.5000 C.3       7 UNK        -0.2007 
     47 C          23.6408  -31.5400  -38.0553 C.2       7 UNK         0.5020 
     48 O          22.8673  -32.1767  -37.3387 O.2       7 UNK        -0.5147 
     49 N          24.4454  -32.1331  -38.9486 N.am      8 UNK        -0.4734 
     50 CA         24.5339  -33.5768  -39.1763 C.3       8 UNK         0.0238 
     51 CB         25.9874  -33.9410  -39.5332 C.3       8 UNK        -0.1912 
     52 C          23.5272  -34.0055  -40.2575 C.2       8 UNK         0.5038 
     53 O          23.9216  -34.5047  -41.3131 O.2       8 UNK        -0.5046 
     54 N          22.2388  -33.7742  -39.9772 N.am      9 UNK        -0.4200 
     55 CA         21.1101  -34.0986  -40.8636 C.3       9 UNK         0.0839 
     56 C          20.8224  -35.6226  -41.0191 C.2       9 UNK         0.5513 
     57 N          21.3017  -36.4805  -40.1255 N.am      9 UNK        -0.7519 
     58 O          20.1653  -36.0359  -41.9705 O.2       9 UNK        -0.4960 
     59 C59        19.8405  -33.3069  -40.4465 C.3       10 UNK        -0.0876 
     60 S60        18.7730  -32.8761  -41.8619 S.3       10 UNK        -0.2414 
     61 C61        19.2977  -31.1634  -42.1650 C.3       10 UNK         0.0169 
     62 H62        13.8865  -22.2589  -44.9286 H         1 UNK         0.0903 
     63 H63        13.4747  -23.1425  -43.4571 H         1 UNK         0.0903 
     64 H64        12.7884  -23.6396  -45.0050 H         1 UNK         0.0903 
     65 H65        15.1465  -24.4763  -42.7898 H         1 UNK         0.3096 
     66 H66        16.4773  -26.3015  -44.6125 H         1 UNK         0.1121 
     67 H67        16.8444  -25.8832  -41.6070 H         1 UNK         0.0849 
     68 H68        17.5664  -27.1685  -42.5283 H         1 UNK         0.0849 
     69 H69        14.4300  -29.4182  -43.4897 H         1 UNK         0.0865 
     70 H70        14.8068  -28.0625  -44.5174 H         1 UNK         0.0865 
     71 H71        16.8641  -29.9732  -41.9735 H         1 UNK         0.1346 
     72 H72        19.9237  -30.9419  -44.8121 H         1 UNK         0.1412 
     73 H73        16.4500  -28.7696  -46.0739 H         1 UNK         0.1426 
     74 H74        19.5604  -30.5653  -47.1597 H         1 UNK         0.0716 
     75 H75        17.9775  -30.0876  -47.7150 H         1 UNK         0.0716 
     76 H76        21.6214  -28.6838  -46.6515 H         1 UNK         0.0695 
     77 H77        20.5009  -28.3667  -45.3527 H         1 UNK         0.0695 
     78 H78        21.9016  -26.3016  -47.1153 H         1 UNK         0.0983 
     79 H79        19.3645  -25.9643  -45.9738 H         1 UNK         0.3095 
     80 H80        19.3972  -22.6938  -44.9076 H         1 UNK         0.0454 
     81 H81        17.8900  -22.0157  -46.7614 H         1 UNK         0.0851 
     82 H82        18.4631  -23.3571  -47.7528 H         1 UNK         0.0851 
     83 H83        19.5535  -22.0480  -47.3189 H         1 UNK         0.0851 
     84 H84        17.1736  -24.2064  -45.7725 H         1 UNK         0.2976 
     85 H85        20.8985  -26.1601  -43.7485 H         1 UNK         0.3116 
     86 H86        21.8102  -26.1308  -41.7708 H         1 UNK         0.0646 
     87 H87        23.2511  -24.2906  -42.5978 H         1 UNK         0.0847 
     88 H88        24.0976  -25.2577  -41.4017 H         1 UNK         0.0847 
     89 H89        24.4823  -25.4434  -43.1055 H         1 UNK         0.0847 
     90 H90        23.9895  -27.9020  -43.9352 H         1 UNK         0.3040 
     91 H91        25.0536  -29.8622  -43.8896 H         1 UNK         0.1015 
     92 H92        22.6653  -30.6733  -43.7702 H         1 UNK         0.0786 
     93 H93        22.8064  -30.7857  -42.0153 H         1 UNK         0.0786 
     94 H94        23.7900  -31.8100  -43.0469 H         1 UNK         0.0786 
     95 H95        25.6825  -27.9270  -41.6339 H         1 UNK         0.3172 
     96 H96        26.8142  -27.6681  -39.7388 H         1 UNK         0.0595 
     97 H97        28.6504  -28.8468  -40.9885 H         1 UNK         0.0839 
     98 H98        28.1162  -30.3852  -40.3127 H         1 UNK         0.0839 
     99 H99        28.7443  -29.1281  -39.2589 H         1 UNK         0.0839 
    100 H100       24.1951  -28.8786  -39.6442 H         1 UNK         0.2998 
    101 H101       22.6681  -29.6808  -38.3209 H         1 UNK         0.0822 
    102 H102       23.7593  -28.4233  -36.4416 H         1 UNK         0.0787 
    103 H103       22.9508  -29.8805  -35.8908 H         1 UNK         0.0787 
    104 H104       24.6990  -29.8594  -36.0342 H         1 UNK         0.0787 
    105 H105       24.9983  -31.5563  -39.5748 H         1 UNK         0.3055 
    106 H106       24.2775  -34.1130  -38.2597 H         1 UNK         0.1106 
    107 H107       26.6768  -33.6365  -38.7456 H         1 UNK         0.0828 
    108 H108       26.0985  -35.0183  -39.6629 H         1 UNK         0.0828 
    109 H109       26.3102  -33.4672  -40.4607 H         1 UNK         0.0828 
    110 H110       22.0144  -33.3633  -39.0802 H         1 UNK         0.2931 
    111 H111       21.4081  -33.7468  -41.8538 H         1 UNK         0.0412 
    112 H112       21.8427  -36.1562  -39.3402 H         1 UNK         0.3472 
    113 H113       21.1162  -37.4651  -40.2381 H         1 UNK         0.3472 
    114 H114       19.2511  -33.8634  -39.7149 H         1 UNK         0.0970 
    115 H115       20.1162  -32.3799  -39.9409 H         1 UNK         0.0970 
    116 H116       19.1899  -30.5795  -41.2495 H         1 UNK         0.0612 
    117 H117       20.3589  -31.1516  -42.4170 H         1 UNK         0.0612 
@<TRIPOS>BOND
     1    1    2 1    
     2    1   62 1    
     3    1   63 1    
     4    1   64 1    
     5    2    3 2    
     6    2    4 am   BACKBONE|DICT|INTERRES
     7    4    5 1    
     8    4   65 1    
     9    5    6 1    
    10    5   25 1    
    11    5   66 1    
    12    6    7 1    
    13    6   67 1    
    14    6   68 1    
    15    7    8 1    
    16    8    9 1    
    17    8   69 1    
    18    8   70 1    
    19    9   10 ar   
    20    9   14 ar   
    21   10   11 ar   
    22   10   71 1    
    23   11   12 ar   
    24   11   61 1    
    25   12   13 ar   
    26   12   72 1    
    27   13   14 ar   
    28   13   15 1    
    29   14   73 1    
    30   15   16 1    
    31   15   74 1    
    32   15   75 1    
    33   16   17 1    
    34   17   18 1    
    35   17   76 1    
    36   17   77 1    
    37   18   19 1    
    38   18   27 1    
    39   18   78 1    
    40   19   20 am   BACKBONE|DICT|INTERRES
    41   19   79 1    
    42   20   21 2    
    43   20   22 1    
    44   22   23 1    
    45   22   24 1    
    46   22   80 1    
    47   23   81 1    
    48   23   82 1    
    49   23   83 1    
    50   24   25 am   BACKBONE|DICT|INTERRES
    51   24   84 1    
    52   25   26 2    
    53   27   28 2    
    54   27   29 am   BACKBONE|DICT|INTERRES
    55   29   30 1    
    56   29   85 1    
    57   30   31 1    
    58   30   32 1    
    59   30   86 1    
    60   31   87 1    
    61   31   88 1    
    62   31   89 1    
    63   32   33 2    
    64   32   34 am   BACKBONE|DICT|INTERRES
    65   34   35 1    
    66   34   90 1    
    67   35   36 1    
    68   35   37 1    
    69   35   91 1    
    70   36   92 1    
    71   36   93 1    
    72   36   94 1    
    73   37   38 2    
    74   37   39 am   BACKBONE|DICT|INTERRES
    75   39   40 1    
    76   39   95 1    
    77   40   41 1    
    78   40   42 1    
    79   40   96 1    
    80   41   97 1    
    81   41   98 1    
    82   41   99 1    
    83   42   43 2    
    84   42   44 am   BACKBONE|DICT|INTERRES
    85   44   45 1    
    86   44  100 1    
    87   45   46 1    
    88   45   47 1    
    89   45  101 1    
    90   46  102 1    
    91   46  103 1    
    92   46  104 1    
    93   47   48 2    
    94   47   49 am   BACKBONE|DICT|INTERRES
    95   49   50 1    
    96   49  105 1    
    97   50   51 1    
    98   50   52 1    
    99   50  106 1    
   100   51  107 1    
   101   51  108 1    
   102   51  109 1    
   103   52   53 2    
   104   52   54 am   BACKBONE|DICT|INTERRES
   105   54   55 1    
   106   54  110 1    
   107   55   56 1    
   108   55   59 1    
   109   55  111 1    
   110   56   57 am   BACKBONE|DICT|INTERRES
   111   56   58 2    
   112   57  112 1    
   113   57  113 1    
   114   59   60 1    
   115   59  114 1    
   116   59  115 1    
   117   60   61 1    
   118   61  116 1    
   119   61  117 1    
@<TRIPOS>SUBSTRUCTURE
     1 UNK         1 GROUP             0       ****    0 ROOT    
