@<TRIPOS>MOLECULE
3R8
117   119    1
SMALL
USER_CHARGES


@<TRIPOS>ATOM
      1 CA         17.0447  -24.3392  -48.6899 C.3       0 UNK        -0.2013 
      2 C          17.4334  -25.5350  -47.8330 C.2       0 UNK         0.4866 
      3 O          18.4815  -26.1370  -48.0675 O.2       0 UNK        -0.5176 
      4 N          16.6005  -25.8719  -46.8428 N.am      1 UNK        -0.4884 
      5 CA         16.8153  -26.9542  -45.8789 C.3       1 UNK         0.0853 
      6 C6         15.9406  -28.1986  -46.1931 C.3       10 UNK        -0.0849 
      7 S7         16.7771  -29.2842  -47.3929 S.3       10 UNK        -0.2776 
      8 C8         17.4155  -30.6124  -46.3139 C.3       10 UNK         0.0316 
      9 C9         18.3165  -30.1128  -45.1857 C.ar      10 UNK        -0.0863 
     10 C10        18.0329  -30.4570  -43.8606 C.ar      10 UNK        -0.1009 
     11 C11        18.8807  -30.0691  -42.8183 C.ar      10 UNK        -0.0712 
     12 C12        20.0249  -29.3212  -43.1193 C.ar      10 UNK        -0.0894 
     13 C13        20.3118  -28.9397  -44.4364 C.ar      10 UNK        -0.0745 
     14 C14        19.4577  -29.3540  -45.4634 C.ar      10 UNK        -0.0972 
     15 C15        21.5752  -28.1621  -44.8020 C.3       10 UNK         0.0209 
     16 S16        22.3101  -27.1873  -43.4434 S.3       10 UNK        -0.2568 
     17 C17        21.3976  -25.6032  -43.5199 C.3       10 UNK        -0.0983 
     18 CA         20.4489  -25.3221  -42.3242 C.3       3 UNK         0.0876 
     19 N          19.2710  -26.1926  -42.3616 N.am      3 UNK        -0.4424 
     20 C          18.1097  -25.9516  -41.7353 C.2       2 UNK         0.4918 
     21 O          17.9174  -24.9898  -40.9906 O.2       2 UNK        -0.4875 
     22 CA         16.9769  -26.9535  -42.0282 C.3       2 UNK         0.0481 
     23 CB         15.6085  -26.5235  -41.4584 C.3       2 UNK        -0.1831 
     24 N          16.9035  -27.2645  -43.4613 N.am      2 UNK        -0.4498 
     25 C          16.5837  -26.4208  -44.4557 C.2       1 UNK         0.5027 
     26 O          16.1581  -25.2745  -44.2870 O.2       1 UNK        -0.4969 
     27 C          21.1887  -25.3299  -40.9665 C.2       3 UNK         0.5005 
     28 O          21.9816  -24.4212  -40.7144 O.2       3 UNK        -0.5279 
     29 N          20.9268  -26.3504  -40.1323 N.am      4 UNK        -0.4463 
     30 CA         21.5243  -26.6062  -38.8148 C.3       4 UNK         0.0283 
     31 CB         21.1918  -25.4731  -37.8204 C.3       4 UNK        -0.1875 
     32 C          23.0315  -26.9337  -38.8653 C.2       4 UNK         0.4949 
     33 O          23.7194  -26.7701  -37.8564 O.2       4 UNK        -0.5039 
     34 N          23.5142  -27.4125  -40.0191 N.am      5 UNK        -0.4663 
     35 CA         24.8872  -27.8620  -40.2383 C.3       5 UNK         0.0242 
     36 CB         25.5047  -27.0470  -41.3875 C.3       5 UNK        -0.1982 
     37 C          24.8977  -29.3578  -40.5775 C.2       5 UNK         0.5017 
     38 O          23.8917  -29.8971  -41.0501 O.2       5 UNK        -0.5012 
     39 N          26.0677  -29.9808  -40.3798 N.am      6 UNK        -0.4439 
     40 CA         26.3511  -31.4131  -40.5494 C.3       6 UNK         0.0297 
     41 CB         27.7777  -31.6925  -40.0447 C.3       6 UNK        -0.2006 
     42 C          26.1601  -31.9816  -41.9714 C.2       6 UNK         0.4892 
     43 O          26.2962  -33.1922  -42.1528 O.2       6 UNK        -0.5089 
     44 N          25.8487  -31.1200  -42.9492 N.am      7 UNK        -0.4243 
     45 CA         25.5041  -31.4752  -44.3262 C.3       7 UNK         0.0196 
     46 CB         25.3611  -30.1862  -45.1515 C.3       7 UNK        -0.2007 
     47 C          24.2321  -32.3368  -44.4439 C.2       7 UNK         0.5020 
     48 O          24.1350  -33.1198  -45.3895 O.2       7 UNK        -0.5147 
     49 N          23.3004  -32.2019  -43.4888 N.am      8 UNK        -0.4734 
     50 CA         22.0988  -33.0379  -43.3888 C.3       8 UNK         0.0238 
     51 CB         21.0764  -32.6860  -44.4859 C.3       8 UNK        -0.1912 
     52 C          21.4499  -33.0014  -41.9977 C.2       8 UNK         0.5038 
     53 O          20.8706  -34.0122  -41.5969 O.2       8 UNK        -0.5046 
     54 N          21.5454  -31.8719  -41.2814 N.am      9 UNK        -0.4200 
     55 CA         21.0875  -31.7518  -39.8880 C.3       9 UNK         0.0839 
     56 C          22.0724  -32.4351  -38.8953 C.2       9 UNK         0.5513 
     57 N          21.6214  -32.7187  -37.6806 N.am      9 UNK        -0.7519 
     58 O          23.2342  -32.6971  -39.1970 O.2       9 UNK        -0.4960 
     59 C59        20.8181  -30.2719  -39.4943 C.3       10 UNK        -0.0876 
     60 S60        19.2624  -29.4799  -40.0624 S.3       10 UNK        -0.2414 
     61 C61        18.5347  -30.5066  -41.3939 C.3       10 UNK         0.0169 
     62 H62        16.0970  -23.9020  -48.3756 H         1 UNK         0.0903 
     63 H63        17.8115  -23.5674  -48.6273 H         1 UNK         0.0903 
     64 H64        16.9490  -24.6409  -49.7326 H         1 UNK         0.0903 
     65 H65        15.7993  -25.2881  -46.6404 H         1 UNK         0.3096 
     66 H66        17.8696  -27.2333  -45.8959 H         1 UNK         0.1121 
     67 H67        15.7101  -28.7893  -45.3047 H         1 UNK         0.0849 
     68 H68        14.9725  -27.9000  -46.5991 H         1 UNK         0.0849 
     69 H69        16.5684  -31.1724  -45.9145 H         1 UNK         0.0865 
     70 H70        17.9816  -31.3169  -46.9247 H         1 UNK         0.0865 
     71 H71        17.1590  -31.0551  -43.6386 H         1 UNK         0.1346 
     72 H72        20.7089  -29.0573  -42.3276 H         1 UNK         0.1412 
     73 H73        19.6878  -29.0984  -46.4895 H         1 UNK         0.1426 
     74 H74        21.3850  -27.5064  -45.6531 H         1 UNK         0.0716 
     75 H75        22.3185  -28.8855  -45.1373 H         1 UNK         0.0716 
     76 H76        20.8376  -25.5484  -44.4547 H         1 UNK         0.0695 
     77 H77        22.1413  -24.8071  -43.5869 H         1 UNK         0.0695 
     78 H78        20.0823  -24.3004  -42.4489 H         1 UNK         0.0983 
     79 H79        19.3466  -27.0101  -42.9498 H         1 UNK         0.3095 
     80 H80        17.2503  -27.8817  -41.5292 H         1 UNK         0.0454 
     81 H81        15.6513  -26.4428  -40.3717 H         1 UNK         0.0851 
     82 H82        14.8326  -27.2500  -41.6983 H         1 UNK         0.0851 
     83 H83        15.2902  -25.5528  -41.8389 H         1 UNK         0.0851 
     84 H84        17.2363  -28.1866  -43.7136 H         1 UNK         0.2976 
     85 H85        20.2539  -27.0383  -40.4419 H         1 UNK         0.3116 
     86 H86        21.0403  -27.5077  -38.4389 H         1 UNK         0.0646 
     87 H87        20.1228  -25.2612  -37.8027 H         1 UNK         0.0847 
     88 H88        21.7140  -24.5487  -38.0678 H         1 UNK         0.0847 
     89 H89        21.4828  -25.7455  -36.8052 H         1 UNK         0.0847 
     90 H90        22.8804  -27.5579  -40.7929 H         1 UNK         0.3040 
     91 H91        25.4865  -27.7097  -39.3379 H         1 UNK         0.1015 
     92 H92        26.5616  -27.2843  -41.5149 H         1 UNK         0.0786 
     93 H93        25.4359  -25.9763  -41.1940 H         1 UNK         0.0786 
     94 H94        25.0121  -27.2454  -42.3393 H         1 UNK         0.0786 
     95 H95        26.8373  -29.4285  -40.0287 H         1 UNK         0.3172 
     96 H96        25.6571  -31.9544  -39.9053 H         1 UNK         0.0595 
     97 H97        28.5256  -31.1644  -40.6375 H         1 UNK         0.0839 
     98 H98        28.0133  -32.7565  -40.0983 H         1 UNK         0.0839 
     99 H99        27.8986  -31.3932  -39.0034 H         1 UNK         0.0839 
    100 H100       25.7448  -30.1491  -42.6944 H         1 UNK         0.2998 
    101 H101       26.3314  -32.0584  -44.7361 H         1 UNK         0.0822 
    102 H102       26.2986  -29.6308  -45.1845 H         1 UNK         0.0787 
    103 H103       25.0814  -30.4088  -46.1823 H         1 UNK         0.0787 
    104 H104       24.5963  -29.5274  -44.7391 H         1 UNK         0.0787 
    105 H105       23.4957  -31.5723  -42.7206 H         1 UNK         0.3055 
    106 H106       22.4074  -34.0748  -43.5417 H         1 UNK         0.1106 
    107 H107       21.4334  -32.9718  -45.4748 H         1 UNK         0.0828 
    108 H108       20.1271  -33.1997  -44.3274 H         1 UNK         0.0828 
    109 H109       20.8711  -31.6197  -44.5061 H         1 UNK         0.0828 
    110 H110       22.0757  -31.0880  -41.6328 H         1 UNK         0.2931 
    111 H111       20.1529  -32.3032  -39.7795 H         1 UNK         0.0412 
    112 H112       20.6694  -32.5186  -37.4152 H         1 UNK         0.3472 
    113 H113       22.2433  -33.1571  -37.0190 H         1 UNK         0.3472 
    114 H114       20.7990  -30.1700  -38.4076 H         1 UNK         0.0970 
    115 H115       21.6500  -29.6466  -39.8145 H         1 UNK         0.0970 
    116 H116       17.4528  -30.4363  -41.2726 H         1 UNK         0.0612 
    117 H117       18.7655  -31.5621  -41.2730 H         1 UNK         0.0612 
@<TRIPOS>BOND
     1    1    2 1    
     2    1   62 1    
     3    1   63 1    
     4    1   64 1    
     5    2    3 2    
     6    2    4 am   BACKBONE|DICT|INTERRES
     7    4    5 1    
     8    4   65 1    
     9    5    6 1    
    10    5   25 1    
    11    5   66 1    
    12    6    7 1    
    13    6   67 1    
    14    6   68 1    
    15    7    8 1    
    16    8    9 1    
    17    8   69 1    
    18    8   70 1    
    19    9   10 ar   
    20    9   14 ar   
    21   10   11 ar   
    22   10   71 1    
    23   11   12 ar   
    24   11   61 1    
    25   12   13 ar   
    26   12   72 1    
    27   13   14 ar   
    28   13   15 1    
    29   14   73 1    
    30   15   16 1    
    31   15   74 1    
    32   15   75 1    
    33   16   17 1    
    34   17   18 1    
    35   17   76 1    
    36   17   77 1    
    37   18   19 1    
    38   18   27 1    
    39   18   78 1    
    40   19   20 am   BACKBONE|DICT|INTERRES
    41   19   79 1    
    42   20   21 2    
    43   20   22 1    
    44   22   23 1    
    45   22   24 1    
    46   22   80 1    
    47   23   81 1    
    48   23   82 1    
    49   23   83 1    
    50   24   25 am   BACKBONE|DICT|INTERRES
    51   24   84 1    
    52   25   26 2    
    53   27   28 2    
    54   27   29 am   BACKBONE|DICT|INTERRES
    55   29   30 1    
    56   29   85 1    
    57   30   31 1    
    58   30   32 1    
    59   30   86 1    
    60   31   87 1    
    61   31   88 1    
    62   31   89 1    
    63   32   33 2    
    64   32   34 am   BACKBONE|DICT|INTERRES
    65   34   35 1    
    66   34   90 1    
    67   35   36 1    
    68   35   37 1    
    69   35   91 1    
    70   36   92 1    
    71   36   93 1    
    72   36   94 1    
    73   37   38 2    
    74   37   39 am   BACKBONE|DICT|INTERRES
    75   39   40 1    
    76   39   95 1    
    77   40   41 1    
    78   40   42 1    
    79   40   96 1    
    80   41   97 1    
    81   41   98 1    
    82   41   99 1    
    83   42   43 2    
    84   42   44 am   BACKBONE|DICT|INTERRES
    85   44   45 1    
    86   44  100 1    
    87   45   46 1    
    88   45   47 1    
    89   45  101 1    
    90   46  102 1    
    91   46  103 1    
    92   46  104 1    
    93   47   48 2    
    94   47   49 am   BACKBONE|DICT|INTERRES
    95   49   50 1    
    96   49  105 1    
    97   50   51 1    
    98   50   52 1    
    99   50  106 1    
   100   51  107 1    
   101   51  108 1    
   102   51  109 1    
   103   52   53 2    
   104   52   54 am   BACKBONE|DICT|INTERRES
   105   54   55 1    
   106   54  110 1    
   107   55   56 1    
   108   55   59 1    
   109   55  111 1    
   110   56   57 am   BACKBONE|DICT|INTERRES
   111   56   58 2    
   112   57  112 1    
   113   57  113 1    
   114   59   60 1    
   115   59  114 1    
   116   59  115 1    
   117   60   61 1    
   118   61  116 1    
   119   61  117 1    
@<TRIPOS>SUBSTRUCTURE
     1 UNK         1 GROUP             0       ****    0 ROOT    
