@<TRIPOS>MOLECULE
3R8
117   119    1
SMALL
USER_CHARGES


@<TRIPOS>ATOM
      1 CA         16.3687  -22.5769  -41.6491 C.3       0 UNK        -0.2013 
      2 C          16.7145  -23.1950  -42.9953 C.2       0 UNK         0.4866 
      3 O          17.6025  -22.6984  -43.6881 O.2       0 UNK        -0.5176 
      4 N          16.0213  -24.2772  -43.3717 N.am      1 UNK        -0.4884 
      5 CA         16.2312  -25.0140  -44.6260 C.3       1 UNK         0.0853 
      6 C6         14.9851  -25.8521  -45.0104 C.3       10 UNK        -0.0849 
      7 S7         14.4970  -27.0834  -43.7468 S.3       10 UNK        -0.2776 
      8 C8         14.4684  -28.6333  -44.7059 C.3       10 UNK         0.0316 
      9 C9         15.8349  -29.3007  -44.8265 C.ar      10 UNK        -0.0863 
     10 C10        16.3931  -29.9515  -43.7217 C.ar      10 UNK        -0.1009 
     11 C11        17.5824  -30.6771  -43.8472 C.ar      10 UNK        -0.0712 
     12 C12        18.2227  -30.7404  -45.0878 C.ar      10 UNK        -0.0894 
     13 C13        17.6839  -30.0841  -46.1987 C.ar      10 UNK        -0.0745 
     14 C14        16.4952  -29.3575  -46.0591 C.ar      10 UNK        -0.0972 
     15 C15        18.3361  -30.2299  -47.5678 C.3       10 UNK         0.0209 
     16 S16        19.4698  -28.8622  -47.9634 S.3       10 UNK        -0.2568 
     17 C17        20.9764  -29.3128  -47.0359 C.3       10 UNK        -0.0983 
     18 CA         21.3536  -28.2338  -45.9943 C.3       3 UNK         0.0876 
     19 N          20.3263  -28.0829  -44.9666 N.am      3 UNK        -0.4424 
     20 C          20.2846  -27.1119  -44.0484 C.2       2 UNK         0.4918 
     21 O          21.1198  -26.2091  -43.9526 O.2       2 UNK        -0.4875 
     22 CA         19.0812  -27.1498  -43.0935 C.3       2 UNK         0.0481 
     23 CB         19.5251  -26.9312  -41.6371 C.3       2 UNK        -0.1831 
     24 N          18.0162  -26.1963  -43.4168 N.am      2 UNK        -0.4498 
     25 C          17.5001  -25.8915  -44.6202 C.2       1 UNK         0.5027 
     26 O          17.9415  -26.2834  -45.6999 O.2       1 UNK        -0.4969 
     27 C          22.7146  -28.5287  -45.3377 C.2       3 UNK         0.5005 
     28 O          22.8581  -29.5617  -44.6823 O.2       3 UNK        -0.5279 
     29 N          23.6613  -27.5927  -45.5026 N.am      4 UNK        -0.4463 
     30 CA         24.9796  -27.5379  -44.8567 C.3       4 UNK         0.0283 
     31 CB         25.8693  -28.7291  -45.2719 C.3       4 UNK        -0.1875 
     32 C          24.9181  -27.3154  -43.3284 C.2       4 UNK         0.4949 
     33 O          25.8775  -27.6446  -42.6302 O.2       4 UNK        -0.5039 
     34 N          23.8227  -26.7013  -42.8536 N.am      5 UNK        -0.4663 
     35 CA         23.5628  -26.2642  -41.4783 C.3       5 UNK         0.0242 
     36 CB         24.5325  -25.1254  -41.0814 C.3       5 UNK        -0.1982 
     37 C          23.4984  -27.4279  -40.4665 C.2       5 UNK         0.5017 
     38 O          22.9586  -28.4886  -40.7883 O.2       5 UNK        -0.5012 
     39 N          23.9873  -27.1840  -39.2424 N.am      6 UNK        -0.4439 
     40 CA         23.9914  -28.1205  -38.1170 C.3       6 UNK         0.0297 
     41 CB         24.4675  -27.3808  -36.8559 C.3       6 UNK        -0.2006 
     42 C          24.8679  -29.3571  -38.3745 C.2       6 UNK         0.4892 
     43 O          25.8276  -29.2858  -39.1448 O.2       6 UNK        -0.5089 
     44 N          24.5135  -30.4675  -37.7131 N.am      7 UNK        -0.4243 
     45 CA         25.1227  -31.8067  -37.7667 C.3       7 UNK         0.0196 
     46 CB         26.6088  -31.7802  -37.3579 C.3       7 UNK        -0.2007 
     47 C          24.9257  -32.5486  -39.1017 C.2       7 UNK         0.5020 
     48 O          24.7220  -33.7621  -39.0807 O.2       7 UNK        -0.5147 
     49 N          24.9417  -31.8281  -40.2304 N.am      8 UNK        -0.4734 
     50 CA         24.7024  -32.3515  -41.5802 C.3       8 UNK         0.0238 
     51 CB         24.9535  -31.2365  -42.6038 C.3       8 UNK        -0.1912 
     52 C          23.2982  -32.9542  -41.7696 C.2       8 UNK         0.5038 
     53 O          23.1551  -33.9272  -42.5113 O.2       8 UNK        -0.5046 
     54 N          22.3065  -32.3942  -41.0656 N.am      9 UNK        -0.4200 
     55 CA         20.9462  -32.9394  -40.9423 C.3       9 UNK         0.0839 
     56 C          20.8277  -34.1669  -39.9881 C.2       9 UNK         0.5513 
     57 N          21.8768  -34.6040  -39.3010 N.am      9 UNK        -0.7519 
     58 O          19.7516  -34.7484  -39.8760 O.2       9 UNK        -0.4960 
     59 C59        19.9258  -31.8309  -40.5692 C.3       10 UNK        -0.0876 
     60 S60        19.6198  -30.6808  -41.9517 S.3       10 UNK        -0.2414 
     61 C61        18.1347  -31.4547  -42.6623 C.3       10 UNK         0.0169 
     62 H62        16.0509  -21.5430  -41.7819 H         1 UNK         0.0903 
     63 H63        15.5659  -23.1159  -41.1463 H         1 UNK         0.0903 
     64 H64        17.2420  -22.5838  -40.9974 H         1 UNK         0.0903 
     65 H65        15.2967  -24.6478  -42.7712 H         1 UNK         0.3096 
     66 H66        16.3818  -24.2771  -45.4187 H         1 UNK         0.1121 
     67 H67        15.1450  -26.3464  -45.9708 H         1 UNK         0.0849 
     68 H68        14.1362  -25.1853  -45.1692 H         1 UNK         0.0849 
     69 H69        13.7884  -29.3273  -44.2096 H         1 UNK         0.0865 
     70 H70        14.0325  -28.4515  -45.6895 H         1 UNK         0.0865 
     71 H71        15.8783  -29.9217  -42.7708 H         1 UNK         0.1346 
     72 H72        19.1263  -31.3261  -45.1904 H         1 UNK         0.1412 
     73 H73        16.0651  -28.8692  -46.9230 H         1 UNK         0.1426 
     74 H74        17.5597  -30.2631  -48.3337 H         1 UNK         0.0716 
     75 H75        18.8659  -31.1808  -47.6432 H         1 UNK         0.0716 
     76 H76        21.7813  -29.4348  -47.7633 H         1 UNK         0.0695 
     77 H77        20.8512  -30.2860  -46.5587 H         1 UNK         0.0695 
     78 H78        21.4223  -27.2777  -46.5184 H         1 UNK         0.0983 
     79 H79        19.5715  -28.7536  -44.9970 H         1 UNK         0.3095 
     80 H80        18.6325  -28.1406  -43.1546 H         1 UNK         0.0454 
     81 H81        18.7053  -27.1054  -40.9404 H         1 UNK         0.0851 
     82 H82        19.8979  -25.9192  -41.4757 H         1 UNK         0.0851 
     83 H83        20.3258  -27.6217  -41.3678 H         1 UNK         0.0851 
     84 H84        17.5491  -25.7827  -42.6241 H         1 UNK         0.2976 
     85 H85        23.4262  -26.7783  -46.0545 H         1 UNK         0.3116 
     86 H86        25.4569  -26.6395  -45.2510 H         1 UNK         0.0646 
     87 H87        25.4807  -29.6764  -44.9035 H         1 UNK         0.0847 
     88 H88        25.9514  -28.8019  -46.3561 H         1 UNK         0.0847 
     89 H89        26.8812  -28.6203  -44.8798 H         1 UNK         0.0847 
     90 H90        23.0570  -26.5287  -43.4976 H         1 UNK         0.3040 
     91 H91        22.5573  -25.8408  -41.4942 H         1 UNK         0.1015 
     92 H92        24.2257  -24.6414  -40.1534 H         1 UNK         0.0786 
     93 H93        24.5543  -24.3472  -41.8447 H         1 UNK         0.0786 
     94 H94        25.5539  -25.4858  -40.9509 H         1 UNK         0.0786 
     95 H95        24.4398  -26.2956  -39.0869 H         1 UNK         0.3172 
     96 H96        22.9625  -28.4520  -37.9613 H         1 UNK         0.0595 
     97 H97        25.4894  -27.0145  -36.9651 H         1 UNK         0.0839 
     98 H98        24.4504  -28.0368  -35.9845 H         1 UNK         0.0839 
     99 H99        23.8270  -26.5286  -36.6275 H         1 UNK         0.0839 
    100 H100       23.6990  -30.4052  -37.1171 H         1 UNK         0.2998 
    101 H101       24.5933  -32.3929  -37.0135 H         1 UNK         0.0822 
    102 H102       27.0062  -32.7930  -37.2794 H         1 UNK         0.0787 
    103 H103       27.2254  -31.2494  -38.0838 H         1 UNK         0.0787 
    104 H104       26.7452  -31.3024  -36.3878 H         1 UNK         0.0787 
    105 H105       25.1587  -30.8387  -40.1469 H         1 UNK         0.3055 
    106 H106       25.4242  -33.1516  -41.7576 H         1 UNK         0.1106 
    107 H107       24.2856  -30.3879  -42.4468 H         1 UNK         0.0828 
    108 H108       25.9780  -30.8676  -42.5522 H         1 UNK         0.0828 
    109 H109       24.7860  -31.5971  -43.6196 H         1 UNK         0.0828 
    110 H110       22.5195  -31.5831  -40.5044 H         1 UNK         0.2931 
    111 H111       20.6611  -33.3248  -41.9233 H         1 UNK         0.0412 
    112 H112       21.7624  -35.4038  -38.6987 H         1 UNK         0.3472 
    113 H113       22.7915  -34.1767  -39.3903 H         1 UNK         0.3472 
    114 H114       18.9692  -32.2565  -40.2601 H         1 UNK         0.0970 
    115 H115       20.2801  -31.2591  -39.7099 H         1 UNK         0.0970 
    116 H116       18.3770  -32.4706  -42.9780 H         1 UNK         0.0612 
    117 H117       17.3731  -31.5471  -41.8864 H         1 UNK         0.0612 
@<TRIPOS>BOND
     1    1    2 1    
     2    1   62 1    
     3    1   63 1    
     4    1   64 1    
     5    2    3 2    
     6    2    4 am   BACKBONE|DICT|INTERRES
     7    4    5 1    
     8    4   65 1    
     9    5    6 1    
    10    5   25 1    
    11    5   66 1    
    12    6    7 1    
    13    6   67 1    
    14    6   68 1    
    15    7    8 1    
    16    8    9 1    
    17    8   69 1    
    18    8   70 1    
    19    9   10 ar   
    20    9   14 ar   
    21   10   11 ar   
    22   10   71 1    
    23   11   12 ar   
    24   11   61 1    
    25   12   13 ar   
    26   12   72 1    
    27   13   14 ar   
    28   13   15 1    
    29   14   73 1    
    30   15   16 1    
    31   15   74 1    
    32   15   75 1    
    33   16   17 1    
    34   17   18 1    
    35   17   76 1    
    36   17   77 1    
    37   18   19 1    
    38   18   27 1    
    39   18   78 1    
    40   19   20 am   BACKBONE|DICT|INTERRES
    41   19   79 1    
    42   20   21 2    
    43   20   22 1    
    44   22   23 1    
    45   22   24 1    
    46   22   80 1    
    47   23   81 1    
    48   23   82 1    
    49   23   83 1    
    50   24   25 am   BACKBONE|DICT|INTERRES
    51   24   84 1    
    52   25   26 2    
    53   27   28 2    
    54   27   29 am   BACKBONE|DICT|INTERRES
    55   29   30 1    
    56   29   85 1    
    57   30   31 1    
    58   30   32 1    
    59   30   86 1    
    60   31   87 1    
    61   31   88 1    
    62   31   89 1    
    63   32   33 2    
    64   32   34 am   BACKBONE|DICT|INTERRES
    65   34   35 1    
    66   34   90 1    
    67   35   36 1    
    68   35   37 1    
    69   35   91 1    
    70   36   92 1    
    71   36   93 1    
    72   36   94 1    
    73   37   38 2    
    74   37   39 am   BACKBONE|DICT|INTERRES
    75   39   40 1    
    76   39   95 1    
    77   40   41 1    
    78   40   42 1    
    79   40   96 1    
    80   41   97 1    
    81   41   98 1    
    82   41   99 1    
    83   42   43 2    
    84   42   44 am   BACKBONE|DICT|INTERRES
    85   44   45 1    
    86   44  100 1    
    87   45   46 1    
    88   45   47 1    
    89   45  101 1    
    90   46  102 1    
    91   46  103 1    
    92   46  104 1    
    93   47   48 2    
    94   47   49 am   BACKBONE|DICT|INTERRES
    95   49   50 1    
    96   49  105 1    
    97   50   51 1    
    98   50   52 1    
    99   50  106 1    
   100   51  107 1    
   101   51  108 1    
   102   51  109 1    
   103   52   53 2    
   104   52   54 am   BACKBONE|DICT|INTERRES
   105   54   55 1    
   106   54  110 1    
   107   55   56 1    
   108   55   59 1    
   109   55  111 1    
   110   56   57 am   BACKBONE|DICT|INTERRES
   111   56   58 2    
   112   57  112 1    
   113   57  113 1    
   114   59   60 1    
   115   59  114 1    
   116   59  115 1    
   117   60   61 1    
   118   61  116 1    
   119   61  117 1    
@<TRIPOS>SUBSTRUCTURE
     1 UNK         1 GROUP             0       ****    0 ROOT    
