@<TRIPOS>MOLECULE
3R8
117   119    1
SMALL
USER_CHARGES


@<TRIPOS>ATOM
      1 CA         23.3073  -32.1552  -45.4223 C.3       0 UNK        -0.2013 
      2 C          22.5886  -30.9467  -46.0049 C.2       0 UNK         0.4866 
      3 O          22.9146  -30.5192  -47.1127 O.2       0 UNK        -0.5176 
      4 N          21.6170  -30.4087  -45.2589 N.am      1 UNK        -0.4884 
      5 CA         20.8113  -29.2196  -45.5676 C.3       1 UNK         0.0853 
      6 C6         20.0661  -29.2440  -46.9366 C.3       10 UNK        -0.0849 
      7 S7         19.0060  -30.7122  -47.1528 S.3       10 UNK        -0.2776 
      8 C8         17.3757  -30.0810  -46.6132 C.3       10 UNK         0.0316 
      9 C9         17.2578  -29.8385  -45.1079 C.ar      10 UNK        -0.0863 
     10 C10        17.8666  -30.6984  -44.1875 C.ar      10 UNK        -0.1009 
     11 C11        17.7163  -30.5038  -42.8118 C.ar      10 UNK        -0.0712 
     12 C12        16.9310  -29.4431  -42.3533 C.ar      10 UNK        -0.0894 
     13 C13        16.3083  -28.5756  -43.2569 C.ar      10 UNK        -0.0745 
     14 C14        16.4826  -28.7748  -44.6316 C.ar      10 UNK        -0.0972 
     15 C15        15.3929  -27.4666  -42.7490 C.3       10 UNK         0.0209 
     16 S16        16.2158  -26.3242  -41.5900 S.3       10 UNK        -0.2568 
     17 C17        17.2804  -25.3390  -42.6962 C.3       10 UNK        -0.0983 
     18 CA         18.7952  -25.5723  -42.4554 C.3       3 UNK         0.0876 
     19 N          19.5529  -25.3078  -43.6904 N.am      3 UNK        -0.4424 
     20 C          20.8814  -25.2948  -43.8708 C.2       2 UNK         0.4918 
     21 O          21.7103  -25.2979  -42.9629 O.2       2 UNK        -0.4875 
     22 CA         21.3430  -25.4152  -45.3324 C.3       2 UNK         0.0481 
     23 CB         22.8168  -25.0059  -45.5427 C.3       2 UNK        -0.1831 
     24 N          21.0731  -26.7846  -45.7919 N.am      2 UNK        -0.4498 
     25 C          21.5947  -27.9191  -45.2915 C.2       1 UNK         0.5027 
     26 O          22.5878  -27.9515  -44.5621 O.2       1 UNK        -0.4969 
     27 C          19.2855  -24.8524  -41.1743 C.2       3 UNK         0.5005 
     28 O          19.1535  -25.4116  -40.0848 O.2       3 UNK        -0.5279 
     29 N          19.8697  -23.6526  -41.3157 N.am      4 UNK        -0.4463 
     30 CA         20.5076  -22.9013  -40.2273 C.3       4 UNK         0.0283 
     31 CB         20.9096  -21.5084  -40.7378 C.3       4 UNK        -0.1875 
     32 C          21.7257  -23.6181  -39.6079 C.2       4 UNK         0.4949 
     33 O          21.9631  -23.4709  -38.4087 O.2       4 UNK        -0.5039 
     34 N          22.4615  -24.3799  -40.4273 N.am      5 UNK        -0.4663 
     35 CA         23.5715  -25.2418  -40.0161 C.3       5 UNK         0.0242 
     36 CB         24.7480  -25.0425  -40.9859 C.3       5 UNK        -0.1982 
     37 C          23.1540  -26.7210  -39.9921 C.2       5 UNK         0.5017 
     38 O          23.6619  -27.4726  -39.1603 O.2       5 UNK        -0.5012 
     39 N          22.2672  -27.1208  -40.9170 N.am      6 UNK        -0.4439 
     40 CA         21.6659  -28.4471  -41.1344 C.3       6 UNK         0.0297 
     41 CB         20.8788  -28.9147  -39.8954 C.3       6 UNK        -0.2006 
     42 C          22.6312  -29.5442  -41.6238 C.2       6 UNK         0.4892 
     43 O          22.1754  -30.4703  -42.2989 O.2       6 UNK        -0.5089 
     44 N          23.9240  -29.4334  -41.2807 N.am      7 UNK        -0.4243 
     45 CA         25.0457  -30.2916  -41.6866 C.3       7 UNK         0.0196 
     46 CB         25.4094  -30.0198  -43.1599 C.3       7 UNK        -0.2007 
     47 C          24.8075  -31.7831  -41.3797 C.2       7 UNK         0.5020 
     48 O          25.0580  -32.6441  -42.2244 O.2       7 UNK        -0.5147 
     49 N          24.2692  -32.0442  -40.1784 N.am      8 UNK        -0.4734 
     50 CA         23.8404  -33.3455  -39.6414 C.3       8 UNK         0.0238 
     51 CB         25.0380  -34.3103  -39.5077 C.3       8 UNK        -0.1912 
     52 C          22.6582  -33.9970  -40.3914 C.2       8 UNK         0.5038 
     53 O          22.3089  -35.1354  -40.0755 O.2       8 UNK        -0.5046 
     54 N          22.0475  -33.2748  -41.3418 N.am      9 UNK        -0.4200 
     55 CA         20.9226  -33.7133  -42.1787 C.3       9 UNK         0.0839 
     56 C          21.2444  -34.8907  -43.1492 C.2       9 UNK         0.5513 
     57 N          22.5079  -35.1382  -43.4760 N.am      9 UNK        -0.7519 
     58 O          20.3454  -35.5719  -43.6350 O.2       9 UNK        -0.4960 
     59 C59        19.6169  -33.8982  -41.3456 C.3       10 UNK        -0.0876 
     60 S60        18.1610  -33.1858  -42.1773 S.3       10 UNK        -0.2414 
     61 C61        18.4309  -31.4163  -41.8249 C.3       10 UNK         0.0169 
     62 H62        24.3855  -32.0499  -45.5402 H         1 UNK         0.0903 
     63 H63        23.0984  -32.2766  -44.3593 H         1 UNK         0.0903 
     64 H64        22.9948  -33.0632  -45.9371 H         1 UNK         0.0903 
     65 H65        21.5192  -30.7343  -44.3035 H         1 UNK         0.3096 
     66 H66        20.0442  -29.2092  -44.7942 H         1 UNK         0.1121 
     67 H67        20.7770  -29.2103  -47.7634 H         1 UNK         0.0849 
     68 H68        19.4307  -28.3666  -47.0592 H         1 UNK         0.0849 
     69 H69        17.1449  -29.1716  -47.1702 H         1 UNK         0.0865 
     70 H70        16.6162  -30.8106  -46.8970 H         1 UNK         0.0865 
     71 H71        18.4639  -31.5279  -44.5399 H         1 UNK         0.1346 
     72 H72        16.7990  -29.2903  -41.2907 H         1 UNK         0.1412 
     73 H73        15.9878  -28.1173  -45.3338 H         1 UNK         0.1426 
     74 H74        14.9669  -26.8954  -43.5754 H         1 UNK         0.0716 
     75 H75        14.5488  -27.9281  -42.2350 H         1 UNK         0.0716 
     76 H76        17.0232  -24.2835  -42.5873 H         1 UNK         0.0695 
     77 H77        17.0174  -25.5962  -43.7234 H         1 UNK         0.0695 
     78 H78        18.9408  -26.6388  -42.2688 H         1 UNK         0.0983 
     79 H79        18.9858  -25.2800  -44.5249 H         1 UNK         0.3095 
     80 H80        20.7249  -24.7463  -45.9333 H         1 UNK         0.0454 
     81 H81        23.1177  -25.1319  -46.5824 H         1 UNK         0.0851 
     82 H82        23.5045  -25.5829  -44.9242 H         1 UNK         0.0851 
     83 H83        22.9640  -23.9564  -45.2860 H         1 UNK         0.0851 
     84 H84        20.2770  -26.8727  -46.4071 H         1 UNK         0.2976 
     85 H85        19.9458  -23.2662  -42.2455 H         1 UNK         0.3116 
     86 H86        19.7662  -22.7730  -39.4357 H         1 UNK         0.0646 
     87 H87        20.0448  -20.9509  -41.0978 H         1 UNK         0.0847 
     88 H88        21.3637  -20.9179  -39.9408 H         1 UNK         0.0847 
     89 H89        21.6347  -21.5691  -41.5504 H         1 UNK         0.0847 
     90 H90        22.1677  -24.4646  -41.3973 H         1 UNK         0.3040 
     91 H91        23.9061  -24.9758  -39.0108 H         1 UNK         0.1015 
     92 H92        24.4767  -25.3000  -42.0111 H         1 UNK         0.0786 
     93 H93        25.5968  -25.6676  -40.7051 H         1 UNK         0.0786 
     94 H94        25.0921  -24.0081  -40.9813 H         1 UNK         0.0786 
     95 H95        22.0148  -26.4315  -41.6227 H         1 UNK         0.3172 
     96 H96        20.9461  -28.3047  -41.9420 H         1 UNK         0.0595 
     97 H97        21.5265  -29.0665  -39.0319 H         1 UNK         0.0839 
     98 H98        20.3727  -29.8610  -40.0851 H         1 UNK         0.0839 
     99 H99        20.1142  -28.1886  -39.6179 H         1 UNK         0.0839 
    100 H100       24.1513  -28.6765  -40.6440 H         1 UNK         0.2998 
    101 H101       25.9014  -29.9953  -41.0781 H         1 UNK         0.0822 
    102 H102       26.2482  -30.6361  -43.4857 H         1 UNK         0.0787 
    103 H103       24.5701  -30.2232  -43.8226 H         1 UNK         0.0787 
    104 H104       25.6958  -28.9785  -43.3073 H         1 UNK         0.0787 
    105 H105       24.0831  -31.2509  -39.5793 H         1 UNK         0.3055 
    106 H106       23.4692  -33.1457  -38.6348 H         1 UNK         0.1106 
    107 H107       24.7544  -35.2148  -38.9681 H         1 UNK         0.0828 
    108 H108       25.4198  -34.6229  -40.4800 H         1 UNK         0.0828 
    109 H109       25.8584  -33.8517  -38.9560 H         1 UNK         0.0828 
    110 H110       22.3954  -32.3446  -41.5478 H         1 UNK         0.2931 
    111 H111       20.7780  -32.8696  -42.8537 H         1 UNK         0.0412 
    112 H112       22.7158  -35.8957  -44.1073 H         1 UNK         0.3472 
    113 H113       23.2552  -34.5839  -43.0856 H         1 UNK         0.3472 
    114 H114       19.7018  -33.4146  -40.3710 H         1 UNK         0.0970 
    115 H115       19.4307  -34.9513  -41.1270 H         1 UNK         0.0970 
    116 H116       19.4952  -31.1877  -41.8746 H         1 UNK         0.0612 
    117 H117       18.1156  -31.2115  -40.8007 H         1 UNK         0.0612 
@<TRIPOS>BOND
     1    1    2 1    
     2    1   62 1    
     3    1   63 1    
     4    1   64 1    
     5    2    3 2    
     6    2    4 am   BACKBONE|DICT|INTERRES
     7    4    5 1    
     8    4   65 1    
     9    5    6 1    
    10    5   25 1    
    11    5   66 1    
    12    6    7 1    
    13    6   67 1    
    14    6   68 1    
    15    7    8 1    
    16    8    9 1    
    17    8   69 1    
    18    8   70 1    
    19    9   10 ar   
    20    9   14 ar   
    21   10   11 ar   
    22   10   71 1    
    23   11   12 ar   
    24   11   61 1    
    25   12   13 ar   
    26   12   72 1    
    27   13   14 ar   
    28   13   15 1    
    29   14   73 1    
    30   15   16 1    
    31   15   74 1    
    32   15   75 1    
    33   16   17 1    
    34   17   18 1    
    35   17   76 1    
    36   17   77 1    
    37   18   19 1    
    38   18   27 1    
    39   18   78 1    
    40   19   20 am   BACKBONE|DICT|INTERRES
    41   19   79 1    
    42   20   21 2    
    43   20   22 1    
    44   22   23 1    
    45   22   24 1    
    46   22   80 1    
    47   23   81 1    
    48   23   82 1    
    49   23   83 1    
    50   24   25 am   BACKBONE|DICT|INTERRES
    51   24   84 1    
    52   25   26 2    
    53   27   28 2    
    54   27   29 am   BACKBONE|DICT|INTERRES
    55   29   30 1    
    56   29   85 1    
    57   30   31 1    
    58   30   32 1    
    59   30   86 1    
    60   31   87 1    
    61   31   88 1    
    62   31   89 1    
    63   32   33 2    
    64   32   34 am   BACKBONE|DICT|INTERRES
    65   34   35 1    
    66   34   90 1    
    67   35   36 1    
    68   35   37 1    
    69   35   91 1    
    70   36   92 1    
    71   36   93 1    
    72   36   94 1    
    73   37   38 2    
    74   37   39 am   BACKBONE|DICT|INTERRES
    75   39   40 1    
    76   39   95 1    
    77   40   41 1    
    78   40   42 1    
    79   40   96 1    
    80   41   97 1    
    81   41   98 1    
    82   41   99 1    
    83   42   43 2    
    84   42   44 am   BACKBONE|DICT|INTERRES
    85   44   45 1    
    86   44  100 1    
    87   45   46 1    
    88   45   47 1    
    89   45  101 1    
    90   46  102 1    
    91   46  103 1    
    92   46  104 1    
    93   47   48 2    
    94   47   49 am   BACKBONE|DICT|INTERRES
    95   49   50 1    
    96   49  105 1    
    97   50   51 1    
    98   50   52 1    
    99   50  106 1    
   100   51  107 1    
   101   51  108 1    
   102   51  109 1    
   103   52   53 2    
   104   52   54 am   BACKBONE|DICT|INTERRES
   105   54   55 1    
   106   54  110 1    
   107   55   56 1    
   108   55   59 1    
   109   55  111 1    
   110   56   57 am   BACKBONE|DICT|INTERRES
   111   56   58 2    
   112   57  112 1    
   113   57  113 1    
   114   59   60 1    
   115   59  114 1    
   116   59  115 1    
   117   60   61 1    
   118   61  116 1    
   119   61  117 1    
@<TRIPOS>SUBSTRUCTURE
     1 UNK         1 GROUP             0       ****    0 ROOT    
