@<TRIPOS>MOLECULE
3R8
117   119    1
SMALL
USER_CHARGES


@<TRIPOS>ATOM
      1 CA         18.5779  -28.9813  -41.3038 C.3       0 UNK        -0.2013 
      2 C          18.2095  -27.9858  -42.3885 C.2       0 UNK         0.4866 
      3 O          19.0111  -27.7247  -43.2832 O.2       0 UNK        -0.5176 
      4 N          17.0003  -27.4151  -42.3046 N.am      1 UNK        -0.4884 
      5 CA         16.4441  -26.4279  -43.2412 C.3       1 UNK         0.0853 
      6 C6         16.1391  -27.0242  -44.6472 C.3       10 UNK        -0.0849 
      7 S7         15.0266  -28.4700  -44.5650 S.3       10 UNK        -0.2776 
      8 C8         15.5853  -29.4611  -45.9897 C.3       10 UNK         0.0316 
      9 C9         16.9896  -30.0252  -45.8074 C.ar      10 UNK        -0.0863 
     10 C10        17.2124  -31.0998  -44.9401 C.ar      10 UNK        -0.1009 
     11 C11        18.4917  -31.6483  -44.8031 C.ar      10 UNK        -0.0712 
     12 C12        19.5568  -31.1013  -45.5264 C.ar      10 UNK        -0.0894 
     13 C13        19.3457  -30.0363  -46.4081 C.ar      10 UNK        -0.0745 
     14 C14        18.0591  -29.5051  -46.5444 C.ar      10 UNK        -0.0972 
     15 C15        20.4912  -29.5089  -47.2655 C.3       10 UNK         0.0209 
     16 S16        20.8396  -27.7430  -46.9903 S.3       10 UNK        -0.2568 
     17 C17        21.6533  -27.7938  -45.3606 C.3       10 UNK        -0.0983 
     18 CA         21.8313  -26.3784  -44.7499 C.3       3 UNK         0.0876 
     19 N          20.5502  -25.6831  -44.5961 N.am      3 UNK        -0.4424 
     20 C          20.3733  -24.3567  -44.6726 C.2       2 UNK         0.4918 
     21 O          21.3101  -23.5661  -44.7975 O.2       2 UNK        -0.4875 
     22 CA         18.9356  -23.8025  -44.6110 C.3       2 UNK         0.0481 
     23 CB         18.6036  -23.0318  -45.9004 C.3       2 UNK        -0.1831 
     24 N          17.9370  -24.8580  -44.4290 N.am      2 UNK        -0.4498 
     25 C          17.3390  -25.1656  -43.2699 C.2       1 UNK         0.5027 
     26 O          17.4892  -24.5189  -42.2308 O.2       1 UNK        -0.4969 
     27 C          22.5747  -26.4113  -43.4005 C.2       3 UNK         0.5005 
     28 O          22.8411  -27.4877  -42.8657 O.2       3 UNK        -0.5279 
     29 N          22.8997  -25.2235  -42.8679 N.am      4 UNK        -0.4463 
     30 CA         23.5046  -24.9989  -41.5472 C.3       4 UNK         0.0283 
     31 CB         23.7066  -23.4904  -41.3354 C.3       4 UNK        -0.1875 
     32 C          24.8214  -25.7565  -41.2879 C.2       4 UNK         0.4949 
     33 O          25.1162  -26.0771  -40.1368 O.2       4 UNK        -0.5039 
     34 N          25.5706  -26.0581  -42.3569 N.am      5 UNK        -0.4663 
     35 CA         26.7906  -26.8694  -42.3281 C.3       5 UNK         0.0242 
     36 CB         27.5215  -26.7111  -43.6716 C.3       5 UNK        -0.1982 
     37 C          26.5492  -28.3619  -42.0217 C.2       5 UNK         0.5017 
     38 O          27.5022  -29.0507  -41.6555 O.2       5 UNK        -0.5012 
     39 N          25.3072  -28.8402  -42.1774 N.am      6 UNK        -0.4439 
     40 CA         24.8938  -30.2224  -41.9360 C.3       6 UNK         0.0297 
     41 CB         24.8987  -30.9993  -43.2669 C.3       6 UNK        -0.2006 
     42 C          23.5254  -30.2447  -41.2366 C.2       6 UNK         0.4892 
     43 O          22.6789  -31.0736  -41.5731 O.2       6 UNK        -0.5089 
     44 N          23.3348  -29.3301  -40.2722 N.am      7 UNK        -0.4243 
     45 CA         22.0668  -29.0501  -39.5853 C.3       7 UNK         0.0196 
     46 CB         22.2745  -27.8845  -38.6051 C.3       7 UNK        -0.2007 
     47 C          21.4277  -30.2452  -38.8533 C.2       7 UNK         0.5020 
     48 O          20.2168  -30.2383  -38.6339 O.2       7 UNK        -0.5147 
     49 N          22.2398  -31.2432  -38.4832 N.am      8 UNK        -0.4734 
     50 CA         21.7866  -32.4935  -37.8708 C.3       8 UNK         0.0238 
     51 CB         22.9836  -33.1764  -37.1883 C.3       8 UNK        -0.1912 
     52 C          21.1136  -33.4607  -38.8643 C.2       8 UNK         0.5038 
     53 O          20.3893  -34.3505  -38.4147 O.2       8 UNK        -0.5046 
     54 N          21.3684  -33.2903  -40.1717 N.am      9 UNK        -0.4200 
     55 CA         20.9327  -34.1736  -41.2677 C.3       9 UNK         0.0839 
     56 C          21.4923  -35.6276  -41.1524 C.2       9 UNK         0.5513 
     57 N          20.9812  -36.5756  -41.9277 N.am      9 UNK        -0.7519 
     58 O          22.4339  -35.9033  -40.4107 O.2       9 UNK        -0.4960 
     59 C59        19.3957  -34.0925  -41.5164 C.3       10 UNK        -0.0876 
     60 S60        18.9054  -32.4617  -42.1733 S.3       10 UNK        -0.2414 
     61 C61        18.7116  -32.8768  -43.9324 C.3       10 UNK         0.0169 
     62 H62        18.8318  -28.4620  -40.3804 H         1 UNK         0.0903 
     63 H63        19.4397  -29.5739  -41.6104 H         1 UNK         0.0903 
     64 H64        17.7545  -29.6663  -41.1038 H         1 UNK         0.0903 
     65 H65        16.3986  -27.6544  -41.5290 H         1 UNK         0.3096 
     66 H66        15.4946  -26.1018  -42.8132 H         1 UNK         0.1121 
     67 H67        17.0635  -27.3190  -45.1439 H         1 UNK         0.0849 
     68 H68        15.6636  -26.2782  -45.2868 H         1 UNK         0.0849 
     69 H69        14.8871  -30.2865  -46.1365 H         1 UNK         0.0865 
     70 H70        15.5253  -28.8533  -46.8940 H         1 UNK         0.0865 
     71 H71        16.3857  -31.5206  -44.3841 H         1 UNK         0.1346 
     72 H72        20.5450  -31.5294  -45.4274 H         1 UNK         0.1412 
     73 H73        17.8931  -28.6897  -47.2352 H         1 UNK         0.1426 
     74 H74        21.4044  -30.0818  -47.0969 H         1 UNK         0.0716 
     75 H75        20.2324  -29.6513  -48.3155 H         1 UNK         0.0716 
     76 H76        22.6224  -28.2811  -45.4839 H         1 UNK         0.0695 
     77 H77        21.0720  -28.4343  -44.6952 H         1 UNK         0.0695 
     78 H78        22.4599  -25.8097  -45.4390 H         1 UNK         0.0983 
     79 H79        19.7685  -26.2877  -44.3578 H         1 UNK         0.3095 
     80 H80        18.8981  -23.0972  -43.7786 H         1 UNK         0.0454 
     81 H81        17.6016  -22.6045  -45.8599 H         1 UNK         0.0851 
     82 H82        18.6604  -23.6725  -46.7812 H         1 UNK         0.0851 
     83 H83        19.2986  -22.2052  -46.0539 H         1 UNK         0.0851 
     84 H84        17.7728  -25.4542  -45.2275 H         1 UNK         0.2976 
     85 H85        22.6211  -24.3976  -43.3873 H         1 UNK         0.3116 
     86 H86        22.7822  -25.3492  -40.8084 H         1 UNK         0.0646 
     87 H87        22.7627  -22.9488  -41.4006 H         1 UNK         0.0847 
     88 H88        24.1262  -23.2866  -40.3491 H         1 UNK         0.0847 
     89 H89        24.3892  -23.0672  -42.0735 H         1 UNK         0.0847 
     90 H90        25.2474  -25.7520  -43.2631 H         1 UNK         0.3040 
     91 H91        27.4364  -26.4808  -41.5373 H         1 UNK         0.1015 
     92 H92        26.9188  -27.0758  -44.5045 H         1 UNK         0.0786 
     93 H93        28.4569  -27.2728  -43.6765 H         1 UNK         0.0786 
     94 H94        27.7725  -25.6684  -43.8676 H         1 UNK         0.0786 
     95 H95        24.5560  -28.2079  -42.4526 H         1 UNK         0.3172 
     96 H96        25.5929  -30.7071  -41.2515 H         1 UNK         0.0595 
     97 H97        24.1836  -30.5798  -43.9758 H         1 UNK         0.0839 
     98 H98        24.6324  -32.0458  -43.1126 H         1 UNK         0.0839 
     99 H99        25.8838  -30.9824  -43.7331 H         1 UNK         0.0839 
    100 H100       24.0971  -28.6978  -40.0711 H         1 UNK         0.2998 
    101 H101       21.3621  -28.7275  -40.3534 H         1 UNK         0.0822 
    102 H102       21.3409  -27.6218  -38.1053 H         1 UNK         0.0787 
    103 H103       23.0008  -28.1344  -37.8308 H         1 UNK         0.0787 
    104 H104       22.6262  -26.9902  -39.1172 H         1 UNK         0.0787 
    105 H105       23.2235  -31.1624  -38.6957 H         1 UNK         0.3055 
    106 H106       21.0464  -32.2539  -37.1036 H         1 UNK         0.1106 
    107 H107       23.4304  -32.5331  -36.4301 H         1 UNK         0.0828 
    108 H108       22.6748  -34.0960  -36.6889 H         1 UNK         0.0828 
    109 H109       23.7601  -33.4429  -37.9066 H         1 UNK         0.0828 
    110 H110       21.9409  -32.5036  -40.4621 H         1 UNK         0.2931 
    111 H111       21.4291  -33.7759  -42.1538 H         1 UNK         0.0412 
    112 H112       20.2383  -36.3818  -42.5799 H         1 UNK         0.3472 
    113 H113       21.3605  -37.5081  -41.8676 H         1 UNK         0.3472 
    114 H114       18.8429  -34.2819  -40.5954 H         1 UNK         0.0970 
    115 H115       19.0546  -34.8534  -42.2182 H         1 UNK         0.0970 
    116 H116       19.5970  -33.4179  -44.2702 H         1 UNK         0.0612 
    117 H117       17.8706  -33.5623  -44.0476 H         1 UNK         0.0612 
@<TRIPOS>BOND
     1    1    2 1    
     2    1   62 1    
     3    1   63 1    
     4    1   64 1    
     5    2    3 2    
     6    2    4 am   BACKBONE|DICT|INTERRES
     7    4    5 1    
     8    4   65 1    
     9    5    6 1    
    10    5   25 1    
    11    5   66 1    
    12    6    7 1    
    13    6   67 1    
    14    6   68 1    
    15    7    8 1    
    16    8    9 1    
    17    8   69 1    
    18    8   70 1    
    19    9   10 ar   
    20    9   14 ar   
    21   10   11 ar   
    22   10   71 1    
    23   11   12 ar   
    24   11   61 1    
    25   12   13 ar   
    26   12   72 1    
    27   13   14 ar   
    28   13   15 1    
    29   14   73 1    
    30   15   16 1    
    31   15   74 1    
    32   15   75 1    
    33   16   17 1    
    34   17   18 1    
    35   17   76 1    
    36   17   77 1    
    37   18   19 1    
    38   18   27 1    
    39   18   78 1    
    40   19   20 am   BACKBONE|DICT|INTERRES
    41   19   79 1    
    42   20   21 2    
    43   20   22 1    
    44   22   23 1    
    45   22   24 1    
    46   22   80 1    
    47   23   81 1    
    48   23   82 1    
    49   23   83 1    
    50   24   25 am   BACKBONE|DICT|INTERRES
    51   24   84 1    
    52   25   26 2    
    53   27   28 2    
    54   27   29 am   BACKBONE|DICT|INTERRES
    55   29   30 1    
    56   29   85 1    
    57   30   31 1    
    58   30   32 1    
    59   30   86 1    
    60   31   87 1    
    61   31   88 1    
    62   31   89 1    
    63   32   33 2    
    64   32   34 am   BACKBONE|DICT|INTERRES
    65   34   35 1    
    66   34   90 1    
    67   35   36 1    
    68   35   37 1    
    69   35   91 1    
    70   36   92 1    
    71   36   93 1    
    72   36   94 1    
    73   37   38 2    
    74   37   39 am   BACKBONE|DICT|INTERRES
    75   39   40 1    
    76   39   95 1    
    77   40   41 1    
    78   40   42 1    
    79   40   96 1    
    80   41   97 1    
    81   41   98 1    
    82   41   99 1    
    83   42   43 2    
    84   42   44 am   BACKBONE|DICT|INTERRES
    85   44   45 1    
    86   44  100 1    
    87   45   46 1    
    88   45   47 1    
    89   45  101 1    
    90   46  102 1    
    91   46  103 1    
    92   46  104 1    
    93   47   48 2    
    94   47   49 am   BACKBONE|DICT|INTERRES
    95   49   50 1    
    96   49  105 1    
    97   50   51 1    
    98   50   52 1    
    99   50  106 1    
   100   51  107 1    
   101   51  108 1    
   102   51  109 1    
   103   52   53 2    
   104   52   54 am   BACKBONE|DICT|INTERRES
   105   54   55 1    
   106   54  110 1    
   107   55   56 1    
   108   55   59 1    
   109   55  111 1    
   110   56   57 am   BACKBONE|DICT|INTERRES
   111   56   58 2    
   112   57  112 1    
   113   57  113 1    
   114   59   60 1    
   115   59  114 1    
   116   59  115 1    
   117   60   61 1    
   118   61  116 1    
   119   61  117 1    
@<TRIPOS>SUBSTRUCTURE
     1 UNK         1 GROUP             0       ****    0 ROOT    
