@<TRIPOS>MOLECULE
3R8
117   119    1
SMALL
USER_CHARGES


@<TRIPOS>ATOM
      1 CA         14.6209  -24.5343  -48.3439 C.3       0 UNK        -0.2013 
      2 C          15.9069  -25.2918  -48.0486 C.2       0 UNK         0.4866 
      3 O          16.8453  -25.2393  -48.8447 O.2       0 UNK        -0.5176 
      4 N          15.9546  -26.0033  -46.9160 N.am      1 UNK        -0.4884 
      5 CA         17.1241  -26.7559  -46.4489 C.3       1 UNK         0.0853 
      6 C6         16.7694  -27.7112  -45.2849 C.3       10 UNK        -0.0849 
      7 S7         15.5187  -28.9586  -45.7309 S.3       10 UNK        -0.2776 
      8 C8         14.7239  -29.2338  -44.1143 C.3       10 UNK         0.0316 
      9 C9         15.7146  -29.7465  -43.0771 C.ar      10 UNK        -0.0863 
     10 C10        16.1541  -31.0718  -43.1278 C.ar      10 UNK        -0.1009 
     11 C11        17.0681  -31.5521  -42.1868 C.ar      10 UNK        -0.0712 
     12 C12        17.5312  -30.7007  -41.1781 C.ar      10 UNK        -0.0894 
     13 C13        17.0931  -29.3744  -41.1100 C.ar      10 UNK        -0.0745 
     14 C14        16.1872  -28.9024  -42.0659 C.ar      10 UNK        -0.0972 
     15 C15        17.5526  -28.4686  -39.9728 C.3       10 UNK         0.0209 
     16 S16        19.3528  -28.1841  -39.9566 S.3       10 UNK        -0.2568 
     17 C17        19.5960  -27.1267  -41.4240 C.3       10 UNK        -0.0983 
     18 CA         20.6872  -27.6933  -42.3709 C.3       3 UNK         0.0876 
     19 N          20.6330  -27.1421  -43.7270 N.am      3 UNK        -0.4424 
     20 C          20.7779  -25.8617  -44.1003 C.2       2 UNK         0.4918 
     21 O          20.9533  -24.9261  -43.3187 O.2       2 UNK        -0.4875 
     22 CA         20.6815  -25.5808  -45.6094 C.3       2 UNK         0.0481 
     23 CB         21.9502  -26.0485  -46.3399 C.3       2 UNK        -0.1831 
     24 N          19.5034  -26.2251  -46.1942 N.am      2 UNK        -0.4498 
     25 C          18.2469  -25.8081  -45.9853 C.2       1 UNK         0.5027 
     26 O          17.9585  -24.7635  -45.3945 O.2       1 UNK        -0.4969 
     27 C          22.1099  -27.6117  -41.7802 C.2       3 UNK         0.5005 
     28 O          22.7562  -28.6452  -41.6103 O.2       3 UNK        -0.5279 
     29 N          22.5591  -26.3893  -41.4556 N.am      4 UNK        -0.4463 
     30 CA         23.8436  -26.0330  -40.8326 C.3       4 UNK         0.0283 
     31 CB         25.0068  -26.3159  -41.8060 C.3       4 UNK        -0.1875 
     32 C          24.0827  -26.6719  -39.4457 C.2       4 UNK         0.4949 
     33 O          25.2188  -26.6809  -38.9726 O.2       4 UNK        -0.5039 
     34 N          23.0156  -27.2076  -38.8322 N.am      5 UNK        -0.4663 
     35 CA         22.9487  -27.9812  -37.5837 C.3       5 UNK         0.0242 
     36 CB         23.4591  -27.1541  -36.3856 C.3       5 UNK        -0.1982 
     37 C          23.6159  -29.3729  -37.6367 C.2       5 UNK         0.5017 
     38 O          23.4546  -30.1365  -36.6837 O.2       5 UNK        -0.5012 
     39 N          24.3219  -29.6989  -38.7256 N.am      6 UNK        -0.4439 
     40 CA         25.0500  -30.9414  -38.9654 C.3       6 UNK         0.0297 
     41 CB         26.2322  -31.0834  -37.9835 C.3       6 UNK        -0.2006 
     42 C          25.5673  -30.9293  -40.4087 C.2       6 UNK         0.4892 
     43 O          25.6988  -29.8562  -41.0025 O.2       6 UNK        -0.5089 
     44 N          25.8831  -32.1241  -40.9265 N.am      7 UNK        -0.4243 
     45 CA         26.4510  -32.4302  -42.2479 C.3       7 UNK         0.0196 
     46 CB         27.8207  -31.7530  -42.4569 C.3       7 UNK        -0.2007 
     47 C          25.4995  -32.1502  -43.4225 C.2       7 UNK         0.5020 
     48 O          25.1898  -33.0713  -44.1777 O.2       7 UNK        -0.5147 
     49 N          25.0137  -30.9102  -43.5470 N.am      8 UNK        -0.4734 
     50 CA         24.0870  -30.4580  -44.5917 C.3       8 UNK         0.0238 
     51 CB         24.3407  -28.9648  -44.8677 C.3       8 UNK        -0.1912 
     52 C          22.6182  -30.7561  -44.2260 C.2       8 UNK         0.5038 
     53 O          21.7541  -29.8977  -44.4096 O.2       8 UNK        -0.5046 
     54 N          22.3813  -31.9693  -43.7119 N.am      9 UNK        -0.4200 
     55 CA         21.1685  -32.4888  -43.0592 C.3       9 UNK         0.0839 
     56 C          21.1636  -32.2844  -41.5177 C.2       9 UNK         0.5513 
     57 N          21.8265  -31.2768  -40.9665 N.am      9 UNK        -0.7519 
     58 O          20.5928  -33.0931  -40.7929 O.2       9 UNK        -0.4960 
     59 C59        19.8306  -32.0623  -43.7308 C.3       10 UNK        -0.0876 
     60 S60        18.5474  -33.3634  -43.7305 S.3       10 UNK        -0.2414 
     61 C61        17.5445  -32.9960  -42.2501 C.3       10 UNK         0.0169 
     62 H62        14.8244  -23.4667  -48.4228 H         1 UNK         0.0903 
     63 H63        14.1953  -24.8711  -49.2888 H         1 UNK         0.0903 
     64 H64        13.8732  -24.6802  -47.5645 H         1 UNK         0.0903 
     65 H65        15.1584  -26.0073  -46.2948 H         1 UNK         0.3096 
     66 H66        17.4960  -27.3497  -47.2873 H         1 UNK         0.1121 
     67 H67        16.4108  -27.1367  -44.4283 H         1 UNK         0.0849 
     68 H68        17.6548  -28.2495  -44.9387 H         1 UNK         0.0849 
     69 H69        14.2530  -28.3085  -43.7786 H         1 UNK         0.0865 
     70 H70        13.9167  -29.9579  -44.2343 H         1 UNK         0.0865 
     71 H71        15.7946  -31.7279  -43.9091 H         1 UNK         0.1346 
     72 H72        18.2314  -31.0694  -40.4403 H         1 UNK         0.1412 
     73 H73        15.8400  -27.8793  -42.0157 H         1 UNK         0.1426 
     74 H74        17.2672  -28.9287  -39.0259 H         1 UNK         0.0716 
     75 H75        17.0418  -27.5050  -40.0071 H         1 UNK         0.0716 
     76 H76        19.8263  -26.1119  -41.0963 H         1 UNK         0.0695 
     77 H77        18.6508  -27.0548  -41.9641 H         1 UNK         0.0695 
     78 H78        20.4689  -28.7553  -42.4942 H         1 UNK         0.0983 
     79 H79        20.5764  -27.8469  -44.4500 H         1 UNK         0.3095 
     80 H80        20.5948  -24.5006  -45.7465 H         1 UNK         0.0454 
     81 H81        21.9410  -25.7369  -47.3844 H         1 UNK         0.0851 
     82 H82        22.0551  -27.1329  -46.3171 H         1 UNK         0.0851 
     83 H83        22.8452  -25.6224  -45.8840 H         1 UNK         0.0851 
     84 H84        19.6581  -27.0860  -46.6995 H         1 UNK         0.2976 
     85 H85        21.9624  -25.6085  -41.7135 H         1 UNK         0.3116 
     86 H86        23.8076  -24.9559  -40.6645 H         1 UNK         0.0646 
     87 H87        25.1488  -27.3852  -41.9635 H         1 UNK         0.0847 
     88 H88        24.8349  -25.8535  -42.7778 H         1 UNK         0.0847 
     89 H89        25.9471  -25.9195  -41.4215 H         1 UNK         0.0847 
     90 H90        22.1427  -27.1563  -39.3394 H         1 UNK         0.3040 
     91 H91        21.8870  -28.1737  -37.4187 H         1 UNK         0.1015 
     92 H92        23.2685  -27.6726  -35.4451 H         1 UNK         0.0786 
     93 H93        22.9590  -26.1873  -36.3280 H         1 UNK         0.0786 
     94 H94        24.5331  -26.9754  -36.4411 H         1 UNK         0.0786 
     95 H95        24.3906  -29.0336  -39.4889 H         1 UNK         0.3172 
     96 H96        24.3600  -31.7788  -38.8447 H         1 UNK         0.0595 
     97 H97        26.9078  -30.2293  -38.0467 H         1 UNK         0.0839 
     98 H98        26.8184  -31.9782  -38.1960 H         1 UNK         0.0839 
     99 H99        25.8950  -31.1661  -36.9506 H         1 UNK         0.0839 
    100 H100       25.7097  -32.9352  -40.3486 H         1 UNK         0.2998 
    101 H101       26.6268  -33.5074  -42.2445 H         1 UNK         0.0822 
    102 H102       28.2694  -32.0692  -43.3995 H         1 UNK         0.0787 
    103 H103       27.7442  -30.6657  -42.4862 H         1 UNK         0.0787 
    104 H104       28.5177  -32.0172  -41.6617 H         1 UNK         0.0787 
    105 H105       25.2437  -30.2458  -42.8103 H         1 UNK         0.3055 
    106 H106       24.2984  -31.0038  -45.5140 H         1 UNK         0.1106 
    107 H107       25.3882  -28.7753  -45.1018 H         1 UNK         0.0828 
    108 H108       23.7553  -28.6244  -45.7211 H         1 UNK         0.0828 
    109 H109       24.0703  -28.3441  -44.0137 H         1 UNK         0.0828 
    110 H110       23.1843  -32.5830  -43.6482 H         1 UNK         0.2931 
    111 H111       21.2678  -33.5658  -43.2018 H         1 UNK         0.0412 
    112 H112       21.8115  -31.1898  -39.9643 H         1 UNK         0.3472 
    113 H113       22.2689  -30.5490  -41.5180 H         1 UNK         0.3472 
    114 H114       19.4548  -31.1285  -43.3109 H         1 UNK         0.0970 
    115 H115       20.0031  -31.8452  -44.7855 H         1 UNK         0.0970 
    116 H116       18.1081  -33.2577  -41.3554 H         1 UNK         0.0612 
    117 H117       16.6739  -33.6532  -42.2533 H         1 UNK         0.0612 
@<TRIPOS>BOND
     1    1    2 1    
     2    1   62 1    
     3    1   63 1    
     4    1   64 1    
     5    2    3 2    
     6    2    4 am   BACKBONE|DICT|INTERRES
     7    4    5 1    
     8    4   65 1    
     9    5    6 1    
    10    5   25 1    
    11    5   66 1    
    12    6    7 1    
    13    6   67 1    
    14    6   68 1    
    15    7    8 1    
    16    8    9 1    
    17    8   69 1    
    18    8   70 1    
    19    9   10 ar   
    20    9   14 ar   
    21   10   11 ar   
    22   10   71 1    
    23   11   12 ar   
    24   11   61 1    
    25   12   13 ar   
    26   12   72 1    
    27   13   14 ar   
    28   13   15 1    
    29   14   73 1    
    30   15   16 1    
    31   15   74 1    
    32   15   75 1    
    33   16   17 1    
    34   17   18 1    
    35   17   76 1    
    36   17   77 1    
    37   18   19 1    
    38   18   27 1    
    39   18   78 1    
    40   19   20 am   BACKBONE|DICT|INTERRES
    41   19   79 1    
    42   20   21 2    
    43   20   22 1    
    44   22   23 1    
    45   22   24 1    
    46   22   80 1    
    47   23   81 1    
    48   23   82 1    
    49   23   83 1    
    50   24   25 am   BACKBONE|DICT|INTERRES
    51   24   84 1    
    52   25   26 2    
    53   27   28 2    
    54   27   29 am   BACKBONE|DICT|INTERRES
    55   29   30 1    
    56   29   85 1    
    57   30   31 1    
    58   30   32 1    
    59   30   86 1    
    60   31   87 1    
    61   31   88 1    
    62   31   89 1    
    63   32   33 2    
    64   32   34 am   BACKBONE|DICT|INTERRES
    65   34   35 1    
    66   34   90 1    
    67   35   36 1    
    68   35   37 1    
    69   35   91 1    
    70   36   92 1    
    71   36   93 1    
    72   36   94 1    
    73   37   38 2    
    74   37   39 am   BACKBONE|DICT|INTERRES
    75   39   40 1    
    76   39   95 1    
    77   40   41 1    
    78   40   42 1    
    79   40   96 1    
    80   41   97 1    
    81   41   98 1    
    82   41   99 1    
    83   42   43 2    
    84   42   44 am   BACKBONE|DICT|INTERRES
    85   44   45 1    
    86   44  100 1    
    87   45   46 1    
    88   45   47 1    
    89   45  101 1    
    90   46  102 1    
    91   46  103 1    
    92   46  104 1    
    93   47   48 2    
    94   47   49 am   BACKBONE|DICT|INTERRES
    95   49   50 1    
    96   49  105 1    
    97   50   51 1    
    98   50   52 1    
    99   50  106 1    
   100   51  107 1    
   101   51  108 1    
   102   51  109 1    
   103   52   53 2    
   104   52   54 am   BACKBONE|DICT|INTERRES
   105   54   55 1    
   106   54  110 1    
   107   55   56 1    
   108   55   59 1    
   109   55  111 1    
   110   56   57 am   BACKBONE|DICT|INTERRES
   111   56   58 2    
   112   57  112 1    
   113   57  113 1    
   114   59   60 1    
   115   59  114 1    
   116   59  115 1    
   117   60   61 1    
   118   61  116 1    
   119   61  117 1    
@<TRIPOS>SUBSTRUCTURE
     1 UNK         1 GROUP             0       ****    0 ROOT    
