@<TRIPOS>MOLECULE
3R8
117   119    1
SMALL
USER_CHARGES


@<TRIPOS>ATOM
      1 CA         16.2026  -24.7275  -48.3382 C.3       0 UNK        -0.2013 
      2 C          17.5697  -24.4145  -47.7482 C.2       0 UNK         0.4866 
      3 O          18.0770  -23.3067  -47.9298 O.2       0 UNK        -0.5176 
      4 N          18.1727  -25.3851  -47.0520 N.am      1 UNK        -0.4884 
      5 CA         19.4657  -25.2508  -46.3701 C.3       1 UNK         0.0853 
      6 C6         20.1324  -26.6249  -46.0568 C.3       10 UNK        -0.0849 
      7 S7         19.9259  -27.9249  -47.3212 S.3       10 UNK        -0.2776 
      8 C8         20.3576  -29.4225  -46.3562 C.3       10 UNK         0.0316 
      9 C9         19.4301  -29.7791  -45.1870 C.ar      10 UNK        -0.0863 
     10 C10        19.8544  -30.7533  -44.2762 C.ar      10 UNK        -0.1009 
     11 C11        19.0476  -31.1374  -43.1998 C.ar      10 UNK        -0.0712 
     12 C12        17.8168  -30.5056  -43.0076 C.ar      10 UNK        -0.0894 
     13 C13        17.3847  -29.5153  -43.8932 C.ar      10 UNK        -0.0745 
     14 C14        18.1766  -29.1814  -44.9949 C.ar      10 UNK        -0.0972 
     15 C15        16.0744  -28.7821  -43.6480 C.3       10 UNK         0.0209 
     16 S16        16.3615  -27.0761  -43.0706 S.3       10 UNK        -0.2568 
     17 C17        17.2336  -27.3507  -41.4898 C.3       10 UNK        -0.0983 
     18 CA         18.7680  -27.1797  -41.6224 C.3       3 UNK         0.0876 
     19 N          19.1383  -25.8274  -42.0525 N.am      3 UNK        -0.4424 
     20 C          20.3833  -25.3886  -42.2775 C.2       2 UNK         0.4918 
     21 O          21.3983  -26.0658  -42.0961 O.2       2 UNK        -0.4875 
     22 CA         20.5028  -24.0026  -42.9381 C.3       2 UNK         0.0481 
     23 CB         21.8102  -23.2835  -42.5611 C.3       2 UNK        -0.1831 
     24 N          20.4509  -24.2014  -44.3873 N.am      2 UNK        -0.4498 
     25 C          19.3149  -24.4606  -45.0504 C.2       1 UNK         0.5027 
     26 O          18.1963  -24.2115  -44.5907 O.2       1 UNK        -0.4969 
     27 C          19.4772  -27.5838  -40.3159 C.2       3 UNK         0.5005 
     28 O          19.4250  -26.8314  -39.3407 O.2       3 UNK        -0.5279 
     29 N          20.1430  -28.7479  -40.3448 N.am      4 UNK        -0.4463 
     30 CA         20.9702  -29.3447  -39.2863 C.3       4 UNK         0.0283 
     31 CB         20.1765  -29.5333  -37.9764 C.3       4 UNK        -0.1875 
     32 C          22.3219  -28.6376  -39.0427 C.2       4 UNK         0.4949 
     33 O          23.0971  -29.1293  -38.2216 O.2       4 UNK        -0.5039 
     34 N          22.6017  -27.5285  -39.7435 N.am      5 UNK        -0.4663 
     35 CA         23.8388  -26.7523  -39.6235 C.3       5 UNK         0.0242 
     36 CB         23.4959  -25.2750  -39.3702 C.3       5 UNK        -0.1982 
     37 C          24.7180  -26.9026  -40.8723 C.2       5 UNK         0.5017 
     38 O          25.9181  -27.1401  -40.7333 O.2       5 UNK        -0.5012 
     39 N          24.1157  -26.7746  -42.0649 N.am      6 UNK        -0.4439 
     40 CA         24.7836  -26.9480  -43.3617 C.3       6 UNK         0.0297 
     41 CB         23.8544  -26.4600  -44.4832 C.3       6 UNK        -0.2006 
     42 C          25.2032  -28.4053  -43.6174 C.2       6 UNK         0.4892 
     43 O          26.2804  -28.6511  -44.1610 O.2       6 UNK        -0.5089 
     44 N          24.3457  -29.3333  -43.1891 N.am      7 UNK        -0.4243 
     45 CA         24.5719  -30.7674  -43.1095 C.3       7 UNK         0.0196 
     46 CB         24.1638  -31.4496  -44.4258 C.3       7 UNK        -0.2007 
     47 C          23.7205  -31.2474  -41.9334 C.2       7 UNK         0.5020 
     48 O          22.6386  -30.6975  -41.7190 O.2       7 UNK        -0.5147 
     49 N          24.2224  -32.2295  -41.1782 N.am      8 UNK        -0.4734 
     50 CA         23.5974  -32.6933  -39.9346 C.3       8 UNK         0.0238 
     51 CB         24.6731  -33.3397  -39.0458 C.3       8 UNK        -0.1912 
     52 C          22.4251  -33.6668  -40.1438 C.2       8 UNK         0.5038 
     53 O          21.6042  -33.8045  -39.2366 O.2       8 UNK        -0.5046 
     54 N          22.3860  -34.3420  -41.3024 N.am      9 UNK        -0.4200 
     55 CA         21.4519  -35.4360  -41.6372 C.3       9 UNK         0.0839 
     56 C          21.6334  -36.7215  -40.7685 C.2       9 UNK         0.5513 
     57 N          22.7755  -36.9257  -40.1221 N.am      9 UNK        -0.7519 
     58 O          20.7443  -37.5668  -40.7021 O.2       9 UNK        -0.4960 
     59 C59        19.9668  -34.9750  -41.7299 C.3       10 UNK        -0.0876 
     60 S60        19.6711  -33.8266  -43.1140 S.3       10 UNK        -0.2414 
     61 C61        19.5009  -32.2364  -42.2482 C.3       10 UNK         0.0169 
     62 H62        15.8836  -25.7447  -48.1113 H         1 UNK         0.0903 
     63 H63        15.4563  -24.0415  -47.9385 H         1 UNK         0.0903 
     64 H64        16.2259  -24.6134  -49.4216 H         1 UNK         0.0903 
     65 H65        17.7106  -26.2742  -46.9311 H         1 UNK         0.3096 
     66 H66        20.1326  -24.6848  -47.0249 H         1 UNK         0.1121 
     67 H67        19.7706  -27.0207  -45.1064 H         1 UNK         0.0849 
     68 H68        21.2043  -26.4827  -45.9219 H         1 UNK         0.0849 
     69 H69        20.3820  -30.2707  -47.0415 H         1 UNK         0.0865 
     70 H70        21.3759  -29.3036  -45.9818 H         1 UNK         0.0865 
     71 H71        20.8106  -31.2383  -44.4132 H         1 UNK         0.1346 
     72 H72        17.1961  -30.7809  -42.1657 H         1 UNK         0.1412 
     73 H73        17.8147  -28.4287  -45.6795 H         1 UNK         0.1426 
     74 H74        15.4584  -29.3122  -42.9199 H         1 UNK         0.0716 
     75 H75        15.4973  -28.7512  -44.5733 H         1 UNK         0.0716 
     76 H76        16.9827  -28.3453  -41.1164 H         1 UNK         0.0695 
     77 H77        16.8357  -26.6467  -40.7564 H         1 UNK         0.0695 
     78 H78        19.1164  -27.8492  -42.4112 H         1 UNK         0.0983 
     79 H79        18.3661  -25.2230  -42.2974 H         1 UNK         0.3095 
     80 H80        19.6682  -23.3767  -42.6147 H         1 UNK         0.0454 
     81 H81        22.6952  -23.8666  -42.8153 H         1 UNK         0.0851 
     82 H82        21.8463  -23.0881  -41.4891 H         1 UNK         0.0851 
     83 H83        21.8901  -22.3204  -43.0651 H         1 UNK         0.0851 
     84 H84        21.3299  -24.4271  -44.8295 H         1 UNK         0.2976 
     85 H85        20.1528  -29.2666  -41.2136 H         1 UNK         0.3116 
     86 H86        21.2139  -30.3455  -39.6415 H         1 UNK         0.0646 
     87 H87        19.9644  -28.5836  -37.4852 H         1 UNK         0.0847 
     88 H88        20.7394  -30.1408  -37.2667 H         1 UNK         0.0847 
     89 H89        19.2290  -30.0416  -38.1541 H         1 UNK         0.0847 
     90 H90        21.9189  -27.1903  -40.4113 H         1 UNK         0.3040 
     91 H91        24.4260  -27.1035  -38.7719 H         1 UNK         0.1015 
     92 H92        22.9018  -24.8498  -40.1781 H         1 UNK         0.0786 
     93 H93        24.4014  -24.6736  -39.2786 H         1 UNK         0.0786 
     94 H94        22.9321  -25.1554  -38.4449 H         1 UNK         0.0786 
     95 H95        23.1230  -26.5466  -42.0868 H         1 UNK         0.3172 
     96 H96        25.6853  -26.3320  -43.3677 H         1 UNK         0.0595 
     97 H97        22.9108  -27.0055  -44.4774 H         1 UNK         0.0839 
     98 H98        24.3118  -26.6046  -45.4631 H         1 UNK         0.0839 
     99 H99        23.6347  -25.3980  -44.3840 H         1 UNK         0.0839 
    100 H100       23.4983  -29.0379  -42.7190 H         1 UNK         0.2998 
    101 H101       25.6257  -30.9613  -42.8977 H         1 UNK         0.0822 
    102 H102       24.7718  -31.0952  -45.2583 H         1 UNK         0.0787 
    103 H103       24.2948  -32.5305  -44.3640 H         1 UNK         0.0787 
    104 H104       23.1197  -31.2580  -44.6718 H         1 UNK         0.0787 
    105 H105       25.1184  -32.6303  -41.4193 H         1 UNK         0.3055 
    106 H106       23.2007  -31.8270  -39.3996 H         1 UNK         0.1106 
    107 H107       24.2466  -33.6817  -38.1015 H         1 UNK         0.0828 
    108 H108       25.1342  -34.2031  -39.5267 H         1 UNK         0.0828 
    109 H109       25.4630  -32.6294  -38.8007 H         1 UNK         0.0828 
    110 H110       23.1042  -34.1531  -41.9854 H         1 UNK         0.2931 
    111 H111       21.7445  -35.7588  -42.6371 H         1 UNK         0.0412 
    112 H112       22.8874  -37.7641  -39.5735 H         1 UNK         0.3472 
    113 H113       23.5260  -36.2572  -40.1808 H         1 UNK         0.3472 
    114 H114       19.3104  -35.8286  -41.9072 H         1 UNK         0.0970 
    115 H115       19.6279  -34.5385  -40.7898 H         1 UNK         0.0970 
    116 H116       18.7907  -32.3502  -41.4278 H         1 UNK         0.0612 
    117 H117       20.4534  -31.9664  -41.7972 H         1 UNK         0.0612 
@<TRIPOS>BOND
     1    1    2 1    
     2    1   62 1    
     3    1   63 1    
     4    1   64 1    
     5    2    3 2    
     6    2    4 am   BACKBONE|DICT|INTERRES
     7    4    5 1    
     8    4   65 1    
     9    5    6 1    
    10    5   25 1    
    11    5   66 1    
    12    6    7 1    
    13    6   67 1    
    14    6   68 1    
    15    7    8 1    
    16    8    9 1    
    17    8   69 1    
    18    8   70 1    
    19    9   10 ar   
    20    9   14 ar   
    21   10   11 ar   
    22   10   71 1    
    23   11   12 ar   
    24   11   61 1    
    25   12   13 ar   
    26   12   72 1    
    27   13   14 ar   
    28   13   15 1    
    29   14   73 1    
    30   15   16 1    
    31   15   74 1    
    32   15   75 1    
    33   16   17 1    
    34   17   18 1    
    35   17   76 1    
    36   17   77 1    
    37   18   19 1    
    38   18   27 1    
    39   18   78 1    
    40   19   20 am   BACKBONE|DICT|INTERRES
    41   19   79 1    
    42   20   21 2    
    43   20   22 1    
    44   22   23 1    
    45   22   24 1    
    46   22   80 1    
    47   23   81 1    
    48   23   82 1    
    49   23   83 1    
    50   24   25 am   BACKBONE|DICT|INTERRES
    51   24   84 1    
    52   25   26 2    
    53   27   28 2    
    54   27   29 am   BACKBONE|DICT|INTERRES
    55   29   30 1    
    56   29   85 1    
    57   30   31 1    
    58   30   32 1    
    59   30   86 1    
    60   31   87 1    
    61   31   88 1    
    62   31   89 1    
    63   32   33 2    
    64   32   34 am   BACKBONE|DICT|INTERRES
    65   34   35 1    
    66   34   90 1    
    67   35   36 1    
    68   35   37 1    
    69   35   91 1    
    70   36   92 1    
    71   36   93 1    
    72   36   94 1    
    73   37   38 2    
    74   37   39 am   BACKBONE|DICT|INTERRES
    75   39   40 1    
    76   39   95 1    
    77   40   41 1    
    78   40   42 1    
    79   40   96 1    
    80   41   97 1    
    81   41   98 1    
    82   41   99 1    
    83   42   43 2    
    84   42   44 am   BACKBONE|DICT|INTERRES
    85   44   45 1    
    86   44  100 1    
    87   45   46 1    
    88   45   47 1    
    89   45  101 1    
    90   46  102 1    
    91   46  103 1    
    92   46  104 1    
    93   47   48 2    
    94   47   49 am   BACKBONE|DICT|INTERRES
    95   49   50 1    
    96   49  105 1    
    97   50   51 1    
    98   50   52 1    
    99   50  106 1    
   100   51  107 1    
   101   51  108 1    
   102   51  109 1    
   103   52   53 2    
   104   52   54 am   BACKBONE|DICT|INTERRES
   105   54   55 1    
   106   54  110 1    
   107   55   56 1    
   108   55   59 1    
   109   55  111 1    
   110   56   57 am   BACKBONE|DICT|INTERRES
   111   56   58 2    
   112   57  112 1    
   113   57  113 1    
   114   59   60 1    
   115   59  114 1    
   116   59  115 1    
   117   60   61 1    
   118   61  116 1    
   119   61  117 1    
@<TRIPOS>SUBSTRUCTURE
     1 UNK         1 GROUP             0       ****    0 ROOT    
