@<TRIPOS>MOLECULE
3R8
117   119    1
SMALL
USER_CHARGES


@<TRIPOS>ATOM
      1 CA         16.0099  -22.9537  -45.3608 C.3       0 UNK        -0.2013 
      2 C          15.5282  -23.5223  -44.0279 C.2       0 UNK         0.4866 
      3 O          14.6830  -22.9038  -43.3838 O.2       0 UNK        -0.5176 
      4 N          16.0076  -24.6890  -43.5735 N.am      1 UNK        -0.4884 
      5 CA         17.0681  -25.5204  -44.1549 C.3       1 UNK         0.0853 
      6 C6         17.1506  -26.8976  -43.4543 C.3       10 UNK        -0.0849 
      7 S7         15.6180  -27.8876  -43.5631 S.3       10 UNK        -0.2776 
      8 C8         16.0243  -29.1736  -44.7944 C.3       10 UNK         0.0316 
      9 C9         17.3164  -29.9156  -44.4740 C.ar      10 UNK        -0.0863 
     10 C10        17.4063  -30.7482  -43.3555 C.ar      10 UNK        -0.1009 
     11 C11        18.6061  -31.3998  -43.0529 C.ar      10 UNK        -0.0712 
     12 C12        19.7221  -31.2072  -43.8747 C.ar      10 UNK        -0.0894 
     13 C13        19.6461  -30.3846  -45.0045 C.ar      10 UNK        -0.0745 
     14 C14        18.4302  -29.7560  -45.3017 C.ar      10 UNK        -0.0972 
     15 C15        20.8772  -30.2255  -45.8989 C.3       10 UNK         0.0209 
     16 S16        20.9206  -28.6636  -46.8480 S.3       10 UNK        -0.2568 
     17 C17        22.5871  -28.0108  -46.4873 C.3       10 UNK        -0.0983 
     18 CA         22.6226  -26.9375  -45.3688 C.3       3 UNK         0.0876 
     19 N          21.5680  -25.9273  -45.5232 N.am      3 UNK        -0.4424 
     20 C          21.5455  -24.7359  -44.9109 C.2       2 UNK         0.4918 
     21 O          22.3989  -24.3649  -44.1052 O.2       2 UNK        -0.4875 
     22 CA         20.3590  -23.8175  -45.2450 C.3       2 UNK         0.0481 
     23 CB         20.5388  -23.1775  -46.6312 C.3       2 UNK        -0.1831 
     24 N          19.0728  -24.5206  -45.1874 N.am      2 UNK        -0.4498 
     25 C          18.4314  -24.8049  -44.0446 C.2       1 UNK         0.5027 
     26 O          18.8709  -24.5252  -42.9276 O.2       1 UNK        -0.4969 
     27 C          22.6659  -27.5696  -43.9637 C.2       3 UNK         0.5005 
     28 O          23.7360  -28.0064  -43.5383 O.2       3 UNK        -0.5279 
     29 N          21.5377  -27.5545  -43.2380 N.am      4 UNK        -0.4463 
     30 CA         21.3979  -28.0384  -41.8573 C.3       4 UNK         0.0283 
     31 CB         19.9123  -28.0328  -41.4688 C.3       4 UNK        -0.1875 
     32 C          22.2331  -27.2677  -40.8121 C.2       4 UNK         0.4949 
     33 O          22.3087  -27.7032  -39.6639 O.2       4 UNK        -0.5039 
     34 N          22.8586  -26.1512  -41.2117 N.am      5 UNK        -0.4663 
     35 CA         23.8876  -25.4581  -40.4351 C.3       5 UNK         0.0242 
     36 CB         24.1177  -24.0654  -41.0431 C.3       5 UNK        -0.1982 
     37 C          25.2154  -26.2405  -40.3634 C.2       5 UNK         0.5017 
     38 O          25.9843  -26.0143  -39.4282 O.2       5 UNK        -0.5012 
     39 N          25.4651  -27.1265  -41.3396 N.am      6 UNK        -0.4439 
     40 CA         26.6575  -27.9726  -41.4300 C.3       6 UNK         0.0297 
     41 CB         27.4169  -27.6415  -42.7257 C.3       6 UNK        -0.2006 
     42 C          26.2969  -29.4658  -41.3845 C.2       6 UNK         0.4892 
     43 O          26.9871  -30.2299  -40.7081 O.2       6 UNK        -0.5089 
     44 N          25.2381  -29.8595  -42.1043 N.am      7 UNK        -0.4243 
     45 CA         24.7055  -31.2217  -42.1473 C.3       7 UNK         0.0196 
     46 CB         23.8367  -31.3615  -43.4088 C.3       7 UNK        -0.2007 
     47 C          23.8787  -31.5553  -40.8942 C.2       7 UNK         0.5020 
     48 O          23.5136  -30.6616  -40.1293 O.2       7 UNK        -0.5147 
     49 N          23.5566  -32.8411  -40.7325 N.am      8 UNK        -0.4734 
     50 CA         22.6592  -33.3519  -39.7003 C.3       8 UNK         0.0238 
     51 CB         23.4840  -33.8928  -38.5195 C.3       8 UNK        -0.1912 
     52 C          21.7867  -34.4512  -40.3145 C.2       8 UNK         0.5038 
     53 O          22.2533  -35.1650  -41.2068 O.2       8 UNK        -0.5046 
     54 N          20.5543  -34.5690  -39.8114 N.am      9 UNK        -0.4200 
     55 CA         19.5566  -35.5729  -40.2184 C.3       9 UNK         0.0839 
     56 C          19.2562  -36.6151  -39.1008 C.2       9 UNK         0.5513 
     57 N          19.9531  -36.6048  -37.9700 N.am      9 UNK        -0.7519 
     58 O          18.3854  -37.4654  -39.2672 O.2       9 UNK        -0.4960 
     59 C59        18.2602  -34.8941  -40.7394 C.3       10 UNK        -0.0876 
     60 S60        18.5011  -34.0552  -42.3423 S.3       10 UNK        -0.2414 
     61 C61        18.6921  -32.3170  -41.8426 C.3       10 UNK         0.0169 
     62 H62        15.3043  -22.2089  -45.7285 H         1 UNK         0.0903 
     63 H63        16.9753  -22.4625  -45.2427 H         1 UNK         0.0903 
     64 H64        16.0926  -23.7229  -46.1269 H         1 UNK         0.0903 
     65 H65        15.6499  -25.0323  -42.6935 H         1 UNK         0.3096 
     66 H66        16.8373  -25.6985  -45.2066 H         1 UNK         0.1121 
     67 H67        17.3591  -26.7651  -42.3913 H         1 UNK         0.0849 
     68 H68        17.9910  -27.4662  -43.8498 H         1 UNK         0.0849 
     69 H69        15.2029  -29.8899  -44.8412 H         1 UNK         0.0865 
     70 H70        16.0767  -28.7097  -45.7806 H         1 UNK         0.0865 
     71 H71        16.5424  -30.8827  -42.7189 H         1 UNK         0.1346 
     72 H72        20.6465  -31.7167  -43.6400 H         1 UNK         0.1412 
     73 H73        18.3426  -29.1291  -46.1774 H         1 UNK         0.1426 
     74 H74        20.9087  -31.0592  -46.6012 H         1 UNK         0.0716 
     75 H75        21.7779  -30.3025  -45.2918 H         1 UNK         0.0716 
     76 H76        22.9485  -27.5590  -47.4124 H         1 UNK         0.0695 
     77 H77        23.2816  -28.8286  -46.2841 H         1 UNK         0.0695 
     78 H78        23.5744  -26.4107  -45.4711 H         1 UNK         0.0983 
     79 H79        20.8288  -26.1659  -46.1684 H         1 UNK         0.3095 
     80 H80        20.3478  -23.0094  -44.5099 H         1 UNK         0.0454 
     81 H81        21.4856  -22.6388  -46.6911 H         1 UNK         0.0851 
     82 H82        19.7470  -22.4581  -46.8404 H         1 UNK         0.0851 
     83 H83        20.5365  -23.9198  -47.4302 H         1 UNK         0.0851 
     84 H84        18.6570  -24.7793  -46.0711 H         1 UNK         0.2976 
     85 H85        20.7136  -27.1587  -43.6640 H         1 UNK         0.3116 
     86 H86        21.7471  -29.0727  -41.8381 H         1 UNK         0.0646 
     87 H87        19.3170  -28.6298  -42.1588 H         1 UNK         0.0847 
     88 H88        19.5105  -27.0195  -41.4504 H         1 UNK         0.0847 
     89 H89        19.7672  -28.4574  -40.4745 H         1 UNK         0.0847 
     90 H90        22.7069  -25.8244  -42.1569 H         1 UNK         0.3040 
     91 H91        23.5239  -25.3330  -39.4126 H         1 UNK         0.1015 
     92 H92        24.8560  -23.5047  -40.4681 H         1 UNK         0.0786 
     93 H93        23.1989  -23.4785  -41.0502 H         1 UNK         0.0786 
     94 H94        24.4817  -24.1283  -42.0696 H         1 UNK         0.0786 
     95 H95        24.7584  -27.2677  -42.0554 H         1 UNK         0.3172 
     96 H96        27.3272  -27.7773  -40.5899 H         1 UNK         0.0595 
     97 H97        26.7998  -27.8045  -43.6105 H         1 UNK         0.0839 
     98 H98        28.3066  -28.2644  -42.8275 H         1 UNK         0.0839 
     99 H99        27.7463  -26.6024  -42.7352 H         1 UNK         0.0839 
    100 H100       24.7129  -29.1647  -42.6315 H         1 UNK         0.2998 
    101 H101       25.5406  -31.9228  -42.2100 H         1 UNK         0.0822 
    102 H102       22.9563  -30.7220  -43.3490 H         1 UNK         0.0787 
    103 H103       24.3899  -31.0876  -44.3075 H         1 UNK         0.0787 
    104 H104       23.4884  -32.3862  -43.5429 H         1 UNK         0.0787 
    105 H105       23.8269  -33.5234  -41.4304 H         1 UNK         0.3055 
    106 H106       22.0050  -32.5508  -39.3468 H         1 UNK         0.1106 
    107 H107       24.1406  -34.7081  -38.8262 H         1 UNK         0.0828 
    108 H108       22.8368  -34.2730  -37.7284 H         1 UNK         0.0828 
    109 H109       24.1047  -33.1112  -38.0809 H         1 UNK         0.0828 
    110 H110       20.2682  -33.9552  -39.0623 H         1 UNK         0.2931 
    111 H111       19.9596  -36.1704  -41.0382 H         1 UNK         0.0412 
    112 H112       19.7485  -37.2922  -37.2611 H         1 UNK         0.3472 
    113 H113       20.6949  -35.9396  -37.8252 H         1 UNK         0.3472 
    114 H114       17.4749  -35.6352  -40.9002 H         1 UNK         0.0970 
    115 H115       17.8609  -34.1969  -40.0010 H         1 UNK         0.0970 
    116 H116       19.6511  -32.1838  -41.3400 H         1 UNK         0.0612 
    117 H117       17.9196  -32.0555  -41.1178 H         1 UNK         0.0612 
@<TRIPOS>BOND
     1    1    2 1    
     2    1   62 1    
     3    1   63 1    
     4    1   64 1    
     5    2    3 2    
     6    2    4 am   BACKBONE|DICT|INTERRES
     7    4    5 1    
     8    4   65 1    
     9    5    6 1    
    10    5   25 1    
    11    5   66 1    
    12    6    7 1    
    13    6   67 1    
    14    6   68 1    
    15    7    8 1    
    16    8    9 1    
    17    8   69 1    
    18    8   70 1    
    19    9   10 ar   
    20    9   14 ar   
    21   10   11 ar   
    22   10   71 1    
    23   11   12 ar   
    24   11   61 1    
    25   12   13 ar   
    26   12   72 1    
    27   13   14 ar   
    28   13   15 1    
    29   14   73 1    
    30   15   16 1    
    31   15   74 1    
    32   15   75 1    
    33   16   17 1    
    34   17   18 1    
    35   17   76 1    
    36   17   77 1    
    37   18   19 1    
    38   18   27 1    
    39   18   78 1    
    40   19   20 am   BACKBONE|DICT|INTERRES
    41   19   79 1    
    42   20   21 2    
    43   20   22 1    
    44   22   23 1    
    45   22   24 1    
    46   22   80 1    
    47   23   81 1    
    48   23   82 1    
    49   23   83 1    
    50   24   25 am   BACKBONE|DICT|INTERRES
    51   24   84 1    
    52   25   26 2    
    53   27   28 2    
    54   27   29 am   BACKBONE|DICT|INTERRES
    55   29   30 1    
    56   29   85 1    
    57   30   31 1    
    58   30   32 1    
    59   30   86 1    
    60   31   87 1    
    61   31   88 1    
    62   31   89 1    
    63   32   33 2    
    64   32   34 am   BACKBONE|DICT|INTERRES
    65   34   35 1    
    66   34   90 1    
    67   35   36 1    
    68   35   37 1    
    69   35   91 1    
    70   36   92 1    
    71   36   93 1    
    72   36   94 1    
    73   37   38 2    
    74   37   39 am   BACKBONE|DICT|INTERRES
    75   39   40 1    
    76   39   95 1    
    77   40   41 1    
    78   40   42 1    
    79   40   96 1    
    80   41   97 1    
    81   41   98 1    
    82   41   99 1    
    83   42   43 2    
    84   42   44 am   BACKBONE|DICT|INTERRES
    85   44   45 1    
    86   44  100 1    
    87   45   46 1    
    88   45   47 1    
    89   45  101 1    
    90   46  102 1    
    91   46  103 1    
    92   46  104 1    
    93   47   48 2    
    94   47   49 am   BACKBONE|DICT|INTERRES
    95   49   50 1    
    96   49  105 1    
    97   50   51 1    
    98   50   52 1    
    99   50  106 1    
   100   51  107 1    
   101   51  108 1    
   102   51  109 1    
   103   52   53 2    
   104   52   54 am   BACKBONE|DICT|INTERRES
   105   54   55 1    
   106   54  110 1    
   107   55   56 1    
   108   55   59 1    
   109   55  111 1    
   110   56   57 am   BACKBONE|DICT|INTERRES
   111   56   58 2    
   112   57  112 1    
   113   57  113 1    
   114   59   60 1    
   115   59  114 1    
   116   59  115 1    
   117   60   61 1    
   118   61  116 1    
   119   61  117 1    
@<TRIPOS>SUBSTRUCTURE
     1 UNK         1 GROUP             0       ****    0 ROOT    
