@<TRIPOS>MOLECULE
3R8
117   119    1
SMALL
USER_CHARGES


@<TRIPOS>ATOM
      1 CA         15.8002  -23.0778  -47.2400 C.3       0 UNK        -0.2013 
      2 C          16.7843  -24.0795  -46.6559 C.2       0 UNK         0.4866 
      3 O          17.9134  -24.1835  -47.1361 O.2       0 UNK        -0.5176 
      4 N          16.3783  -24.8069  -45.6077 N.am      1 UNK        -0.4884 
      5 CA         17.1492  -25.8602  -44.9284 C.3       1 UNK         0.0853 
      6 C6         16.2115  -26.8663  -44.2086 C.3       10 UNK        -0.0849 
      7 S7         15.2336  -27.8292  -45.4142 S.3       10 UNK        -0.2776 
      8 C8         15.2583  -29.5123  -44.6960 C.3       10 UNK         0.0316 
      9 C9         16.6430  -30.1224  -44.4615 C.ar      10 UNK        -0.0863 
     10 C10        16.7831  -31.0992  -43.4721 C.ar      10 UNK        -0.1009 
     11 C11        18.0230  -31.6887  -43.2142 C.ar      10 UNK        -0.0712 
     12 C12        19.1439  -31.2774  -43.9412 C.ar      10 UNK        -0.0894 
     13 C13        19.0274  -30.3031  -44.9402 C.ar      10 UNK        -0.0745 
     14 C14        17.7671  -29.7529  -45.2109 C.ar      10 UNK        -0.0972 
     15 C15        20.2722  -29.8883  -45.7247 C.3       10 UNK         0.0209 
     16 S16        20.2663  -28.1415  -46.2641 S.3       10 UNK        -0.2568 
     17 C17        22.0220  -27.6630  -46.0642 C.3       10 UNK        -0.0983 
     18 CA         22.2920  -26.8218  -44.7887 C.3       3 UNK         0.0876 
     19 N          21.3816  -25.6775  -44.7016 N.am      3 UNK        -0.4424 
     20 C          21.3633  -24.7264  -43.7578 C.2       2 UNK         0.4918 
     21 O          22.1901  -24.6402  -42.8501 O.2       2 UNK        -0.4875 
     22 CA         20.1882  -23.7322  -43.8193 C.3       2 UNK         0.0481 
     23 CB         20.6095  -22.4438  -44.5420 C.3       2 UNK        -0.1831 
     24 N          19.0051  -24.2961  -44.4814 N.am      2 UNK        -0.4498 
     25 C          18.2519  -25.2955  -43.9998 C.2       1 UNK         0.5027 
     26 O          18.4350  -25.7873  -42.8862 O.2       1 UNK        -0.4969 
     27 C          22.2817  -27.7096  -43.5276 C.2       3 UNK         0.5005 
     28 O          23.3309  -28.2396  -43.1618 O.2       3 UNK        -0.5279 
     29 N          21.1207  -27.8270  -42.8634 N.am      4 UNK        -0.4463 
     30 CA         20.8869  -28.6480  -41.6695 C.3       4 UNK         0.0283 
     31 CB         19.3970  -28.5749  -41.2995 C.3       4 UNK        -0.1875 
     32 C          21.7580  -28.2844  -40.4515 C.2       4 UNK         0.4949 
     33 O          21.8598  -29.0874  -39.5262 O.2       4 UNK        -0.5039 
     34 N          22.3831  -27.0995  -40.4692 N.am      5 UNK        -0.4663 
     35 CA         23.3710  -26.6664  -39.4820 C.3       5 UNK         0.0242 
     36 CB         23.5527  -25.1444  -39.6020 C.3       5 UNK        -0.1982 
     37 C          24.7317  -27.3811  -39.6113 C.2       5 UNK         0.5017 
     38 O          25.5094  -27.3273  -38.6573 O.2       5 UNK        -0.5012 
     39 N          25.0145  -28.0057  -40.7658 N.am      6 UNK        -0.4439 
     40 CA         26.2969  -28.6525  -41.0621 C.3       6 UNK         0.0297 
     41 CB         27.1371  -27.7324  -41.9639 C.3       6 UNK        -0.2006 
     42 C          26.1402  -30.0389  -41.7036 C.2       6 UNK         0.4892 
     43 O          26.8916  -30.9492  -41.3492 O.2       6 UNK        -0.5089 
     44 N          25.1927  -30.1925  -42.6377 N.am      7 UNK        -0.4243 
     45 CA         24.9486  -31.4207  -43.3957 C.3       7 UNK         0.0196 
     46 CB         24.2949  -31.0555  -44.7409 C.3       7 UNK        -0.2007 
     47 C          24.1078  -32.4179  -42.5809 C.2       7 UNK         0.5020 
     48 O          22.9457  -32.6624  -42.9116 O.2       7 UNK        -0.5147 
     49 N          24.7226  -32.9634  -41.5219 N.am      8 UNK        -0.4734 
     50 CA         24.1585  -33.9101  -40.5534 C.3       8 UNK         0.0238 
     51 CB         23.9204  -35.2880  -41.2150 C.3       8 UNK        -0.1912 
     52 C          22.9248  -33.3126  -39.8496 C.2       8 UNK         0.5038 
     53 O          23.0668  -32.2857  -39.1853 O.2       8 UNK        -0.5046 
     54 N          21.7562  -33.9483  -40.0098 N.am      9 UNK        -0.4200 
     55 CA         20.4522  -33.5009  -39.4952 C.3       9 UNK         0.0839 
     56 C          20.3150  -33.5199  -37.9400 C.2       9 UNK         0.5513 
     57 N          21.1399  -34.2716  -37.2202 N.am      9 UNK        -0.7519 
     58 O          19.4371  -32.8744  -37.3734 O.2       9 UNK        -0.4960 
     59 C59        19.9940  -32.1659  -40.1580 C.3       10 UNK        -0.0876 
     60 S60        18.1988  -32.1374  -40.4793 S.3       10 UNK        -0.2414 
     61 C61        18.1265  -32.7950  -42.1744 C.3       10 UNK         0.0169 
     62 H62        16.2090  -22.0697  -47.1773 H         1 UNK         0.0903 
     63 H63        15.6133  -23.3053  -48.2891 H         1 UNK         0.0903 
     64 H64        14.8451  -23.0905  -46.7151 H         1 UNK         0.0903 
     65 H65        15.4454  -24.6626  -45.2472 H         1 UNK         0.3096 
     66 H66        17.6914  -26.4193  -45.6947 H         1 UNK         0.1121 
     67 H67        16.7832  -27.5617  -43.5921 H         1 UNK         0.0849 
     68 H68        15.5348  -26.3494  -43.5261 H         1 UNK         0.0849 
     69 H69        14.7073  -29.4803  -43.7546 H         1 UNK         0.0865 
     70 H70        14.6981  -30.1764  -45.3554 H         1 UNK         0.0865 
     71 H71        15.9197  -31.4124  -42.9004 H         1 UNK         0.1346 
     72 H72        20.1068  -31.7273  -43.7369 H         1 UNK         0.1412 
     73 H73        17.6627  -29.0245  -46.0015 H         1 UNK         0.1426 
     74 H74        20.3738  -30.5300  -46.6007 H         1 UNK         0.0716 
     75 H75        21.1513  -30.0650  -45.1063 H         1 UNK         0.0716 
     76 H76        22.6639  -28.5453  -46.1028 H         1 UNK         0.0695 
     77 H77        22.2951  -27.0742  -46.9412 H         1 UNK         0.0695 
     78 H78        23.3019  -26.4132  -44.8650 H         1 UNK         0.0983 
     79 H79        20.6577  -25.6547  -45.4048 H         1 UNK         0.3095 
     80 H80        19.9150  -23.4773  -42.7933 H         1 UNK         0.0454 
     81 H81        21.4762  -21.9909  -44.0583 H         1 UNK         0.0851 
     82 H82        20.8775  -22.6319  -45.5825 H         1 UNK         0.0851 
     83 H83        19.8101  -21.7028  -44.5301 H         1 UNK         0.0851 
     84 H84        18.7941  -23.9725  -45.4217 H         1 UNK         0.2976 
     85 H85        20.3186  -27.3236  -43.2177 H         1 UNK         0.3116 
     86 H86        21.1243  -29.6796  -41.9370 H         1 UNK         0.0646 
     87 H87        19.1708  -29.2223  -40.4522 H         1 UNK         0.0847 
     88 H88        18.7616  -28.8932  -42.1261 H         1 UNK         0.0847 
     89 H89        19.1021  -27.5639  -41.0176 H         1 UNK         0.0847 
     90 H90        22.2365  -26.4895  -41.2633 H         1 UNK         0.3040 
     91 H91        22.9819  -26.8886  -38.4857 H         1 UNK         0.1015 
     92 H92        23.9419  -24.8613  -40.5811 H         1 UNK         0.0786 
     93 H93        24.2528  -24.7728  -38.8525 H         1 UNK         0.0786 
     94 H94        22.6096  -24.6183  -39.4520 H         1 UNK         0.0786 
     95 H95        24.3102  -28.0201  -41.4984 H         1 UNK         0.3172 
     96 H96        26.8545  -28.8108  -40.1366 H         1 UNK         0.0595 
     97 H97        28.0949  -28.1930  -42.2104 H         1 UNK         0.0839 
     98 H98        26.6274  -27.5130  -42.9030 H         1 UNK         0.0839 
     99 H99        27.3519  -26.7844  -41.4704 H         1 UNK         0.0839 
    100 H100       24.5716  -29.4141  -42.8555 H         1 UNK         0.2998 
    101 H101       25.9051  -31.8998  -43.6167 H         1 UNK         0.0822 
    102 H102       24.1231  -31.9458  -45.3471 H         1 UNK         0.0787 
    103 H103       23.3321  -30.5681  -44.5964 H         1 UNK         0.0787 
    104 H104       24.9269  -30.3829  -45.3208 H         1 UNK         0.0787 
    105 H105       25.6495  -32.6090  -41.3059 H         1 UNK         0.3055 
    106 H106       24.9111  -34.0443  -39.7745 H         1 UNK         0.1106 
    107 H107       23.1885  -35.2418  -42.0223 H         1 UNK         0.0828 
    108 H108       24.8456  -35.6798  -41.6379 H         1 UNK         0.0828 
    109 H109       23.5720  -36.0223  -40.4874 H         1 UNK         0.0828 
    110 H110       21.7423  -34.7895  -40.5674 H         1 UNK         0.2931 
    111 H111       19.7720  -34.2847  -39.8307 H         1 UNK         0.0412 
    112 H112       21.8590  -34.8167  -37.6680 H         1 UNK         0.3472 
    113 H113       21.0431  -34.2893  -36.2169 H         1 UNK         0.3472 
    114 H114       20.5093  -32.0035  -41.1062 H         1 UNK         0.0970 
    115 H115       20.2637  -31.3104  -39.5363 H         1 UNK         0.0970 
    116 H116       17.2532  -33.4440  -42.2543 H         1 UNK         0.0612 
    117 H117       18.9902  -33.4327  -42.3703 H         1 UNK         0.0612 
@<TRIPOS>BOND
     1    1    2 1    
     2    1   62 1    
     3    1   63 1    
     4    1   64 1    
     5    2    3 2    
     6    2    4 am   BACKBONE|DICT|INTERRES
     7    4    5 1    
     8    4   65 1    
     9    5    6 1    
    10    5   25 1    
    11    5   66 1    
    12    6    7 1    
    13    6   67 1    
    14    6   68 1    
    15    7    8 1    
    16    8    9 1    
    17    8   69 1    
    18    8   70 1    
    19    9   10 ar   
    20    9   14 ar   
    21   10   11 ar   
    22   10   71 1    
    23   11   12 ar   
    24   11   61 1    
    25   12   13 ar   
    26   12   72 1    
    27   13   14 ar   
    28   13   15 1    
    29   14   73 1    
    30   15   16 1    
    31   15   74 1    
    32   15   75 1    
    33   16   17 1    
    34   17   18 1    
    35   17   76 1    
    36   17   77 1    
    37   18   19 1    
    38   18   27 1    
    39   18   78 1    
    40   19   20 am   BACKBONE|DICT|INTERRES
    41   19   79 1    
    42   20   21 2    
    43   20   22 1    
    44   22   23 1    
    45   22   24 1    
    46   22   80 1    
    47   23   81 1    
    48   23   82 1    
    49   23   83 1    
    50   24   25 am   BACKBONE|DICT|INTERRES
    51   24   84 1    
    52   25   26 2    
    53   27   28 2    
    54   27   29 am   BACKBONE|DICT|INTERRES
    55   29   30 1    
    56   29   85 1    
    57   30   31 1    
    58   30   32 1    
    59   30   86 1    
    60   31   87 1    
    61   31   88 1    
    62   31   89 1    
    63   32   33 2    
    64   32   34 am   BACKBONE|DICT|INTERRES
    65   34   35 1    
    66   34   90 1    
    67   35   36 1    
    68   35   37 1    
    69   35   91 1    
    70   36   92 1    
    71   36   93 1    
    72   36   94 1    
    73   37   38 2    
    74   37   39 am   BACKBONE|DICT|INTERRES
    75   39   40 1    
    76   39   95 1    
    77   40   41 1    
    78   40   42 1    
    79   40   96 1    
    80   41   97 1    
    81   41   98 1    
    82   41   99 1    
    83   42   43 2    
    84   42   44 am   BACKBONE|DICT|INTERRES
    85   44   45 1    
    86   44  100 1    
    87   45   46 1    
    88   45   47 1    
    89   45  101 1    
    90   46  102 1    
    91   46  103 1    
    92   46  104 1    
    93   47   48 2    
    94   47   49 am   BACKBONE|DICT|INTERRES
    95   49   50 1    
    96   49  105 1    
    97   50   51 1    
    98   50   52 1    
    99   50  106 1    
   100   51  107 1    
   101   51  108 1    
   102   51  109 1    
   103   52   53 2    
   104   52   54 am   BACKBONE|DICT|INTERRES
   105   54   55 1    
   106   54  110 1    
   107   55   56 1    
   108   55   59 1    
   109   55  111 1    
   110   56   57 am   BACKBONE|DICT|INTERRES
   111   56   58 2    
   112   57  112 1    
   113   57  113 1    
   114   59   60 1    
   115   59  114 1    
   116   59  115 1    
   117   60   61 1    
   118   61  116 1    
   119   61  117 1    
@<TRIPOS>SUBSTRUCTURE
     1 UNK         1 GROUP             0       ****    0 ROOT    
