@<TRIPOS>MOLECULE
3R8
117   119    1
SMALL
USER_CHARGES


@<TRIPOS>ATOM
      1 CA         15.6171  -26.7649  -39.9642 C.3       0 UNK        -0.2013 
      2 C          15.5893  -26.7936  -41.4851 C.2       0 UNK         0.4866 
      3 O          14.5269  -26.9890  -42.0763 O.2       0 UNK        -0.5176 
      4 N          16.7469  -26.5952  -42.1202 N.am      1 UNK        -0.4884 
      5 CA         16.9437  -26.5945  -43.5673 C.3       1 UNK         0.0853 
      6 C6         16.9515  -28.0314  -44.1548 C.3       10 UNK        -0.0849 
      7 S7         16.5150  -28.0705  -45.9238 S.3       10 UNK        -0.2776 
      8 C8         16.2041  -29.8512  -46.1616 C.3       10 UNK         0.0316 
      9 C9         17.4432  -30.7027  -45.9093 C.ar      10 UNK        -0.0863 
     10 C10        17.4120  -31.7366  -44.9665 C.ar      10 UNK        -0.1009 
     11 C11        18.5370  -32.5412  -44.7598 C.ar      10 UNK        -0.0712 
     12 C12        19.7080  -32.2851  -45.4791 C.ar      10 UNK        -0.0894 
     13 C13        19.7560  -31.2498  -46.4164 C.ar      10 UNK        -0.0745 
     14 C14        18.6140  -30.4750  -46.6397 C.ar      10 UNK        -0.0972 
     15 C15        21.0377  -30.9855  -47.1968 C.3       10 UNK         0.0209 
     16 S16        21.6249  -29.2681  -47.0352 S.3       10 UNK        -0.2568 
     17 C17        21.9288  -29.1492  -45.2401 C.3       10 UNK        -0.0983 
     18 CA         22.1396  -27.6836  -44.7837 C.3       3 UNK         0.0876 
     19 N          20.9898  -26.8410  -45.1229 N.am      3 UNK        -0.4424 
     20 C          21.0285  -25.5202  -45.3357 C.2       2 UNK         0.4918 
     21 O          22.0585  -24.8484  -45.2860 O.2       2 UNK        -0.4875 
     22 CA         19.6865  -24.8226  -45.6364 C.3       2 UNK         0.0481 
     23 CB         19.5371  -24.5900  -47.1482 C.3       2 UNK        -0.1831 
     24 N          18.5010  -25.5360  -45.1419 N.am      2 UNK        -0.4498 
     25 C          18.2513  -25.8362  -43.8601 C.2       1 UNK         0.5027 
     26 O          19.0245  -25.5640  -42.9368 O.2       1 UNK        -0.4969 
     27 C          22.5126  -27.6257  -43.2852 C.2       3 UNK         0.5005 
     28 O          23.4483  -28.3225  -42.8925 O.2       3 UNK        -0.5279 
     29 N          21.8002  -26.8352  -42.4631 N.am      4 UNK        -0.4463 
     30 CA         22.0525  -26.6647  -41.0262 C.3       4 UNK         0.0283 
     31 CB         21.1049  -25.6010  -40.4507 C.3       4 UNK        -0.1875 
     32 C          23.5163  -26.3167  -40.7024 C.2       4 UNK         0.4949 
     33 O          24.0586  -25.3690  -41.2724 O.2       4 UNK        -0.5039 
     34 N          24.1083  -27.1197  -39.8096 N.am      5 UNK        -0.4663 
     35 CA         25.4994  -27.1185  -39.3356 C.3       5 UNK         0.0242 
     36 CB         26.0033  -25.7140  -38.9425 C.3       5 UNK        -0.1982 
     37 C          26.4845  -27.8500  -40.2656 C.2       5 UNK         0.5017 
     38 O          27.5697  -28.2011  -39.8002 O.2       5 UNK        -0.5012 
     39 N          26.0993  -28.1243  -41.5207 N.am      6 UNK        -0.4439 
     40 CA         26.7788  -29.0984  -42.3820 C.3       6 UNK         0.0297 
     41 CB         26.6463  -28.6961  -43.8607 C.3       6 UNK        -0.2006 
     42 C          26.1978  -30.4987  -42.1248 C.2       6 UNK         0.4892 
     43 O          26.9562  -31.4586  -41.9847 O.2       6 UNK        -0.5089 
     44 N          24.8668  -30.5658  -42.0111 N.am      7 UNK        -0.4243 
     45 CA         24.0921  -31.6918  -41.5075 C.3       7 UNK         0.0196 
     46 CB         23.1327  -32.1650  -42.6127 C.3       7 UNK        -0.2007 
     47 C          23.2962  -31.2109  -40.2867 C.2       7 UNK         0.5020 
     48 O          22.9852  -30.0208  -40.1813 O.2       7 UNK        -0.5147 
     49 N          22.9314  -32.1462  -39.4006 N.am      8 UNK        -0.4734 
     50 CA         22.1047  -31.8751  -38.2151 C.3       8 UNK         0.0238 
     51 CB         22.0897  -33.1150  -37.3066 C.3       8 UNK        -0.1912 
     52 C          20.6679  -31.4408  -38.5618 C.2       8 UNK         0.5038 
     53 O          20.0694  -30.6662  -37.8149 O.2       8 UNK        -0.5046 
     54 N          20.1611  -31.9366  -39.6959 N.am      9 UNK        -0.4200 
     55 CA         18.8943  -31.5378  -40.3227 C.3       9 UNK         0.0839 
     56 C          18.9557  -30.1967  -41.1081 C.2       9 UNK         0.5513 
     57 N          20.1130  -29.5713  -41.2860 N.am      9 UNK        -0.7519 
     58 O          17.9207  -29.7006  -41.5398 O.2       9 UNK        -0.4960 
     59 C59        18.2946  -32.6911  -41.1722 C.3       10 UNK        -0.0876 
     60 S60        19.4913  -33.4652  -42.3178 S.3       10 UNK        -0.2414 
     61 C61        18.4826  -33.7269  -43.8076 C.3       10 UNK         0.0169 
     62 H62        15.2690  -27.7177  -39.5663 H         1 UNK         0.0903 
     63 H63        16.6207  -26.5849  -39.5788 H         1 UNK         0.0903 
     64 H64        14.9626  -25.9781  -39.5901 H         1 UNK         0.0903 
     65 H65        17.5948  -26.3892  -41.6050 H         1 UNK         0.3096 
     66 H66        16.1260  -26.0202  -44.0091 H         1 UNK         0.1121 
     67 H67        16.2233  -28.6536  -43.6320 H         1 UNK         0.0849 
     68 H68        17.9152  -28.5223  -44.0031 H         1 UNK         0.0849 
     69 H69        15.3803  -30.1573  -45.5147 H         1 UNK         0.0865 
     70 H70        15.8661  -30.0164  -47.1854 H         1 UNK         0.0865 
     71 H71        16.5055  -31.9310  -44.4097 H         1 UNK         0.1346 
     72 H72        20.5792  -32.9040  -45.3125 H         1 UNK         0.1412 
     73 H73        18.6418  -29.6808  -47.3736 H         1 UNK         0.1426 
     74 H74        20.8583  -31.1984  -48.2514 H         1 UNK         0.0716 
     75 H75        21.8354  -31.6580  -46.8772 H         1 UNK         0.0716 
     76 H76        22.8052  -29.7599  -45.0134 H         1 UNK         0.0695 
     77 H77        21.0934  -29.5953  -44.6971 H         1 UNK         0.0695 
     78 H78        23.0103  -27.2975  -45.3187 H         1 UNK         0.0983 
     79 H79        20.1040  -27.3153  -45.2141 H         1 UNK         0.3095 
     80 H80        19.7107  -23.8494  -45.1421 H         1 UNK         0.0454 
     81 H81        19.4783  -25.5308  -47.6972 H         1 UNK         0.0851 
     82 H82        20.3885  -24.0348  -47.5445 H         1 UNK         0.0851 
     83 H83        18.6424  -24.0103  -47.3758 H         1 UNK         0.0851 
     84 H84        17.8305  -25.8346  -45.8381 H         1 UNK         0.2976 
     85 H85        21.0433  -26.2851  -42.8521 H         1 UNK         0.3116 
     86 H86        21.8147  -27.6123  -40.5425 H         1 UNK         0.0646 
     87 H87        20.0653  -25.9213  -40.5127 H         1 UNK         0.0847 
     88 H88        21.1985  -24.6508  -40.9780 H         1 UNK         0.0847 
     89 H89        21.3181  -25.4132  -39.3975 H         1 UNK         0.0847 
     90 H90        23.5675  -27.9205  -39.4994 H         1 UNK         0.3040 
     91 H91        25.4777  -27.7114  -38.4195 H         1 UNK         0.1015 
     92 H92        26.1678  -25.0786  -39.8129 H         1 UNK         0.0786 
     93 H93        26.9551  -25.7802  -38.4140 H         1 UNK         0.0786 
     94 H94        25.3002  -25.2080  -38.2809 H         1 UNK         0.0786 
     95 H95        25.1759  -27.8270  -41.8187 H         1 UNK         0.3172 
     96 H96        27.8442  -29.1224  -42.1429 H         1 UNK         0.0595 
     97 H97        25.6138  -28.7187  -44.2076 H         1 UNK         0.0839 
     98 H98        27.2125  -29.3780  -44.4963 H         1 UNK         0.0839 
     99 H99        27.0358  -27.6930  -44.0343 H         1 UNK         0.0839 
    100 H100       24.3241  -29.7141  -42.1546 H         1 UNK         0.2998 
    101 H101       24.7491  -32.5116  -41.2097 H         1 UNK         0.0822 
    102 H102       23.6760  -32.4429  -43.5160 H         1 UNK         0.0787 
    103 H103       22.5677  -33.0410  -42.2932 H         1 UNK         0.0787 
    104 H104       22.4124  -31.3907  -42.8829 H         1 UNK         0.0787 
    105 H105       23.2184  -33.1038  -39.5491 H         1 UNK         0.3055 
    106 H106       22.5657  -31.0513  -37.6650 H         1 UNK         0.1106 
    107 H107       21.6557  -33.9806  -37.8088 H         1 UNK         0.0828 
    108 H108       21.5003  -32.9317  -36.4069 H         1 UNK         0.0828 
    109 H109       23.0956  -33.3826  -36.9825 H         1 UNK         0.0828 
    110 H110       20.7325  -32.5613  -40.2451 H         1 UNK         0.2931 
    111 H111       18.1841  -31.3525  -39.5145 H         1 UNK         0.0412 
    112 H112       20.9733  -29.9336  -40.8970 H         1 UNK         0.3472 
    113 H113       20.1174  -28.6965  -41.7814 H         1 UNK         0.3472 
    114 H114       17.4142  -32.3509  -41.7211 H         1 UNK         0.0970 
    115 H115       17.9329  -33.4747  -40.5050 H         1 UNK         0.0970 
    116 H116       18.8609  -34.6087  -44.3266 H         1 UNK         0.0612 
    117 H117       17.4551  -33.9628  -43.5264 H         1 UNK         0.0612 
@<TRIPOS>BOND
     1    1    2 1    
     2    1   62 1    
     3    1   63 1    
     4    1   64 1    
     5    2    3 2    
     6    2    4 am   BACKBONE|DICT|INTERRES
     7    4    5 1    
     8    4   65 1    
     9    5    6 1    
    10    5   25 1    
    11    5   66 1    
    12    6    7 1    
    13    6   67 1    
    14    6   68 1    
    15    7    8 1    
    16    8    9 1    
    17    8   69 1    
    18    8   70 1    
    19    9   10 ar   
    20    9   14 ar   
    21   10   11 ar   
    22   10   71 1    
    23   11   12 ar   
    24   11   61 1    
    25   12   13 ar   
    26   12   72 1    
    27   13   14 ar   
    28   13   15 1    
    29   14   73 1    
    30   15   16 1    
    31   15   74 1    
    32   15   75 1    
    33   16   17 1    
    34   17   18 1    
    35   17   76 1    
    36   17   77 1    
    37   18   19 1    
    38   18   27 1    
    39   18   78 1    
    40   19   20 am   BACKBONE|DICT|INTERRES
    41   19   79 1    
    42   20   21 2    
    43   20   22 1    
    44   22   23 1    
    45   22   24 1    
    46   22   80 1    
    47   23   81 1    
    48   23   82 1    
    49   23   83 1    
    50   24   25 am   BACKBONE|DICT|INTERRES
    51   24   84 1    
    52   25   26 2    
    53   27   28 2    
    54   27   29 am   BACKBONE|DICT|INTERRES
    55   29   30 1    
    56   29   85 1    
    57   30   31 1    
    58   30   32 1    
    59   30   86 1    
    60   31   87 1    
    61   31   88 1    
    62   31   89 1    
    63   32   33 2    
    64   32   34 am   BACKBONE|DICT|INTERRES
    65   34   35 1    
    66   34   90 1    
    67   35   36 1    
    68   35   37 1    
    69   35   91 1    
    70   36   92 1    
    71   36   93 1    
    72   36   94 1    
    73   37   38 2    
    74   37   39 am   BACKBONE|DICT|INTERRES
    75   39   40 1    
    76   39   95 1    
    77   40   41 1    
    78   40   42 1    
    79   40   96 1    
    80   41   97 1    
    81   41   98 1    
    82   41   99 1    
    83   42   43 2    
    84   42   44 am   BACKBONE|DICT|INTERRES
    85   44   45 1    
    86   44  100 1    
    87   45   46 1    
    88   45   47 1    
    89   45  101 1    
    90   46  102 1    
    91   46  103 1    
    92   46  104 1    
    93   47   48 2    
    94   47   49 am   BACKBONE|DICT|INTERRES
    95   49   50 1    
    96   49  105 1    
    97   50   51 1    
    98   50   52 1    
    99   50  106 1    
   100   51  107 1    
   101   51  108 1    
   102   51  109 1    
   103   52   53 2    
   104   52   54 am   BACKBONE|DICT|INTERRES
   105   54   55 1    
   106   54  110 1    
   107   55   56 1    
   108   55   59 1    
   109   55  111 1    
   110   56   57 am   BACKBONE|DICT|INTERRES
   111   56   58 2    
   112   57  112 1    
   113   57  113 1    
   114   59   60 1    
   115   59  114 1    
   116   59  115 1    
   117   60   61 1    
   118   61  116 1    
   119   61  117 1    
@<TRIPOS>SUBSTRUCTURE
     1 UNK         1 GROUP             0       ****    0 ROOT    
