@<TRIPOS>MOLECULE
3R8
117   119    1
SMALL
USER_CHARGES


@<TRIPOS>ATOM
      1 CA         17.5592  -22.2933  -48.1728 C.3       0 UNK        -0.2013 
      2 C          18.6218  -23.2206  -47.6020 C.2       0 UNK         0.4866 
      3 O          19.7694  -22.8065  -47.4335 O.2       0 UNK        -0.5176 
      4 N          18.2523  -24.4742  -47.3104 N.am      1 UNK        -0.4884 
      5 CA         19.1227  -25.4757  -46.6867 C.3       1 UNK         0.0853 
      6 C6         18.5554  -26.9023  -46.8867 C.3       10 UNK        -0.0849 
      7 S7         19.8427  -28.1944  -46.8100 S.3       10 UNK        -0.2776 
      8 C8         18.8499  -29.7258  -46.7866 C.3       10 UNK         0.0316 
      9 C9         18.3553  -30.0576  -45.3854 C.ar      10 UNK        -0.0863 
     10 C10        19.0789  -30.9241  -44.5603 C.ar      10 UNK        -0.1009 
     11 C11        18.6422  -31.2041  -43.2605 C.ar      10 UNK        -0.0712 
     12 C12        17.4718  -30.6035  -42.7837 C.ar      10 UNK        -0.0894 
     13 C13        16.7595  -29.7117  -43.5925 C.ar      10 UNK        -0.0745 
     14 C14        17.1801  -29.4808  -44.9028 C.ar      10 UNK        -0.0972 
     15 C15        15.5858  -28.9182  -43.0437 C.3       10 UNK         0.0209 
     16 S16        16.0750  -27.1800  -42.7650 S.3       10 UNK        -0.2568 
     17 C17        17.0690  -27.3188  -41.2438 C.3       10 UNK        -0.0983 
     18 CA         18.5835  -27.5560  -41.4891 C.3       3 UNK         0.0876 
     19 N          19.2459  -26.4324  -42.1618 N.am      3 UNK        -0.4424 
     20 C          20.5585  -26.3009  -42.4112 C.2       2 UNK         0.4918 
     21 O          21.4324  -27.0796  -42.0157 O.2       2 UNK        -0.4875 
     22 CA         20.9537  -25.1139  -43.3074 C.3       2 UNK         0.0481 
     23 CB         22.4665  -24.8360  -43.2840 C.3       2 UNK        -0.1831 
     24 N          20.5539  -25.3604  -44.6933 N.am      2 UNK        -0.4498 
     25 C          19.3303  -25.1478  -45.1916 C.2       1 UNK         0.5027 
     26 O          18.3857  -24.7252  -44.5184 O.2       1 UNK        -0.4969 
     27 C          19.2615  -27.9692  -40.1691 C.2       3 UNK         0.5005 
     28 O          19.1883  -27.2267  -39.1880 O.2       3 UNK        -0.5279 
     29 N          19.9085  -29.1452  -40.1902 N.am      4 UNK        -0.4463 
     30 CA         20.6315  -29.7962  -39.0883 C.3       4 UNK         0.0283 
     31 CB         19.6594  -30.1930  -37.9581 C.3       4 UNK        -0.1875 
     32 C          21.8508  -29.0110  -38.5576 C.2       4 UNK         0.4949 
     33 O          22.3913  -29.3770  -37.5134 O.2       4 UNK        -0.5039 
     34 N          22.2779  -27.9714  -39.2849 N.am      5 UNK        -0.4663 
     35 CA         23.4551  -27.1600  -38.9965 C.3       5 UNK         0.0242 
     36 CB         23.0733  -25.6688  -39.0946 C.3       5 UNK        -0.1982 
     37 C          24.5583  -27.6005  -39.9658 C.2       5 UNK         0.5017 
     38 O          25.0616  -28.7149  -39.8228 O.2       5 UNK        -0.5012 
     39 N          24.8891  -26.7614  -40.9571 N.am      6 UNK        -0.4439 
     40 CA         25.8769  -27.0605  -41.9991 C.3       6 UNK         0.0297 
     41 CB         26.2039  -25.7834  -42.7899 C.3       6 UNK        -0.2006 
     42 C          25.4608  -28.2043  -42.9450 C.2       6 UNK         0.4892 
     43 O          26.3420  -28.8571  -43.5051 O.2       6 UNK        -0.5089 
     44 N          24.1478  -28.4452  -43.0964 N.am      7 UNK        -0.4243 
     45 CA         23.6139  -29.5811  -43.8563 C.3       7 UNK         0.0196 
     46 CB         22.1633  -29.2884  -44.2587 C.3       7 UNK        -0.2007 
     47 C          23.7035  -30.9082  -43.0793 C.2       7 UNK         0.5020 
     48 O          23.7738  -31.9668  -43.7038 O.2       7 UNK        -0.5147 
     49 N          23.7182  -30.8191  -41.7407 N.am      8 UNK        -0.4734 
     50 CA         23.9258  -31.8646  -40.7300 C.3       8 UNK         0.0238 
     51 CB         25.3496  -32.4453  -40.8297 C.3       8 UNK        -0.1912 
     52 C          22.8766  -32.9902  -40.6796 C.2       8 UNK         0.5038 
     53 O          22.3404  -33.2471  -39.6019 O.2       8 UNK        -0.5046 
     54 N          22.6321  -33.6602  -41.8133 N.am      9 UNK        -0.4200 
     55 CA         21.8496  -34.9060  -41.9406 C.3       9 UNK         0.0839 
     56 C          22.4657  -36.1239  -41.1797 C.2       9 UNK         0.5513 
     57 N          23.7610  -36.1293  -40.8864 N.am      9 UNK        -0.7519 
     58 O          21.7766  -37.0953  -40.8780 O.2       9 UNK        -0.4960 
     59 C59        20.3304  -34.7080  -41.6551 C.3       10 UNK        -0.0876 
     60 S60        19.4794  -33.8200  -42.9993 S.3       10 UNK        -0.2414 
     61 C61        19.4599  -32.1206  -42.3619 C.3       10 UNK         0.0169 
     62 H62        16.5967  -22.7928  -48.2815 H         1 UNK         0.0903 
     63 H63        17.4223  -21.4327  -47.5185 H         1 UNK         0.0903 
     64 H64        17.8653  -21.9305  -49.1537 H         1 UNK         0.0903 
     65 H65        17.2872  -24.7462  -47.4333 H         1 UNK         0.3096 
     66 H66        20.0901  -25.4144  -47.1914 H         1 UNK         0.1121 
     67 H67        18.0884  -26.9868  -47.8695 H         1 UNK         0.0849 
     68 H68        17.7668  -27.0991  -46.1623 H         1 UNK         0.0849 
     69 H69        18.0095  -29.6362  -47.4768 H         1 UNK         0.0865 
     70 H70        19.4637  -30.5450  -47.1643 H         1 UNK         0.0865 
     71 H71        19.9860  -31.3844  -44.9261 H         1 UNK         0.1346 
     72 H72        17.1430  -30.7891  -41.7702 H         1 UNK         0.1412 
     73 H73        16.6086  -28.8101  -45.5277 H         1 UNK         0.1426 
     74 H74        15.2055  -29.3571  -42.1200 H         1 UNK         0.0716 
     75 H75        14.7629  -28.9457  -43.7595 H         1 UNK         0.0716 
     76 H76        16.6424  -28.1222  -40.6394 H         1 UNK         0.0695 
     77 H77        16.9230  -26.4053  -40.6644 H         1 UNK         0.0695 
     78 H78        18.6922  -28.3836  -42.1860 H         1 UNK         0.0983 
     79 H79        18.6244  -25.7575  -42.5912 H         1 UNK         0.3095 
     80 H80        20.4451  -24.2232  -42.9326 H         1 UNK         0.0454 
     81 H81        23.0351  -25.6862  -43.6607 H         1 UNK         0.0851 
     82 H82        22.8118  -24.6240  -42.2729 H         1 UNK         0.0851 
     83 H83        22.7186  -23.9694  -43.8953 H         1 UNK         0.0851 
     84 H84        21.2587  -25.7577  -45.2979 H         1 UNK         0.2976 
     85 H85        19.9380  -29.6407  -41.0695 H         1 UNK         0.3116 
     86 H86        21.0363  -30.7187  -39.5058 H         1 UNK         0.0646 
     87 H87        19.2573  -29.3193  -37.4444 H         1 UNK         0.0847 
     88 H88        20.1594  -30.8076  -37.2085 H         1 UNK         0.0847 
     89 H89        18.8206  -30.7742  -38.3409 H         1 UNK         0.0847 
     90 H90        21.7894  -27.7525  -40.1475 H         1 UNK         0.3040 
     91 H91        23.8222  -27.3504  -37.9855 H         1 UNK         0.1015 
     92 H92        22.3477  -25.4087  -38.3234 H         1 UNK         0.0786 
     93 H93        22.6232  -25.4171  -40.0541 H         1 UNK         0.0786 
     94 H94        23.9404  -25.0242  -38.9436 H         1 UNK         0.0786 
     95 H95        24.4293  -25.8642  -41.0009 H         1 UNK         0.3172 
     96 H96        26.7921  -27.3812  -41.4965 H         1 UNK         0.0595 
     97 H97        25.3374  -25.3963  -43.3239 H         1 UNK         0.0839 
     98 H98        26.9795  -25.9762  -43.5326 H         1 UNK         0.0839 
     99 H99        26.5766  -24.9948  -42.1359 H         1 UNK         0.0839 
    100 H100       23.4752  -27.8575  -42.6196 H         1 UNK         0.2998 
    101 H101       24.2004  -29.6900  -44.7714 H         1 UNK         0.0822 
    102 H102       22.0639  -28.2996  -44.7059 H         1 UNK         0.0787 
    103 H103       21.8249  -30.0103  -45.0012 H         1 UNK         0.0787 
    104 H104       21.4808  -29.3435  -43.4103 H         1 UNK         0.0787 
    105 H105       23.6930  -29.8838  -41.3579 H         1 UNK         0.3055 
    106 H106       23.8618  -31.3496  -39.7692 H         1 UNK         0.1106 
    107 H107       25.5328  -33.1721  -40.0371 H         1 UNK         0.0828 
    108 H108       25.5228  -32.9483  -41.7815 H         1 UNK         0.0828 
    109 H109       26.0997  -31.6608  -40.7266 H         1 UNK         0.0828 
    110 H110       23.0919  -33.3248  -42.6567 H         1 UNK         0.2931 
    111 H111       21.9435  -35.1912  -42.9891 H         1 UNK         0.0412 
    112 H112       24.1541  -36.9237  -40.4059 H         1 UNK         0.3472 
    113 H113       24.3499  -35.3565  -41.1506 H         1 UNK         0.3472 
    114 H114       19.8198  -35.6689  -41.5750 H         1 UNK         0.0970 
    115 H115       20.1625  -34.2116  -40.6989 H         1 UNK         0.0970 
    116 H116       20.4830  -31.7476  -42.3006 H         1 UNK         0.0612 
    117 H117       19.0622  -32.1216  -41.3457 H         1 UNK         0.0612 
@<TRIPOS>BOND
     1    1    2 1    
     2    1   62 1    
     3    1   63 1    
     4    1   64 1    
     5    2    3 2    
     6    2    4 am   BACKBONE|DICT|INTERRES
     7    4    5 1    
     8    4   65 1    
     9    5    6 1    
    10    5   25 1    
    11    5   66 1    
    12    6    7 1    
    13    6   67 1    
    14    6   68 1    
    15    7    8 1    
    16    8    9 1    
    17    8   69 1    
    18    8   70 1    
    19    9   10 ar   
    20    9   14 ar   
    21   10   11 ar   
    22   10   71 1    
    23   11   12 ar   
    24   11   61 1    
    25   12   13 ar   
    26   12   72 1    
    27   13   14 ar   
    28   13   15 1    
    29   14   73 1    
    30   15   16 1    
    31   15   74 1    
    32   15   75 1    
    33   16   17 1    
    34   17   18 1    
    35   17   76 1    
    36   17   77 1    
    37   18   19 1    
    38   18   27 1    
    39   18   78 1    
    40   19   20 am   BACKBONE|DICT|INTERRES
    41   19   79 1    
    42   20   21 2    
    43   20   22 1    
    44   22   23 1    
    45   22   24 1    
    46   22   80 1    
    47   23   81 1    
    48   23   82 1    
    49   23   83 1    
    50   24   25 am   BACKBONE|DICT|INTERRES
    51   24   84 1    
    52   25   26 2    
    53   27   28 2    
    54   27   29 am   BACKBONE|DICT|INTERRES
    55   29   30 1    
    56   29   85 1    
    57   30   31 1    
    58   30   32 1    
    59   30   86 1    
    60   31   87 1    
    61   31   88 1    
    62   31   89 1    
    63   32   33 2    
    64   32   34 am   BACKBONE|DICT|INTERRES
    65   34   35 1    
    66   34   90 1    
    67   35   36 1    
    68   35   37 1    
    69   35   91 1    
    70   36   92 1    
    71   36   93 1    
    72   36   94 1    
    73   37   38 2    
    74   37   39 am   BACKBONE|DICT|INTERRES
    75   39   40 1    
    76   39   95 1    
    77   40   41 1    
    78   40   42 1    
    79   40   96 1    
    80   41   97 1    
    81   41   98 1    
    82   41   99 1    
    83   42   43 2    
    84   42   44 am   BACKBONE|DICT|INTERRES
    85   44   45 1    
    86   44  100 1    
    87   45   46 1    
    88   45   47 1    
    89   45  101 1    
    90   46  102 1    
    91   46  103 1    
    92   46  104 1    
    93   47   48 2    
    94   47   49 am   BACKBONE|DICT|INTERRES
    95   49   50 1    
    96   49  105 1    
    97   50   51 1    
    98   50   52 1    
    99   50  106 1    
   100   51  107 1    
   101   51  108 1    
   102   51  109 1    
   103   52   53 2    
   104   52   54 am   BACKBONE|DICT|INTERRES
   105   54   55 1    
   106   54  110 1    
   107   55   56 1    
   108   55   59 1    
   109   55  111 1    
   110   56   57 am   BACKBONE|DICT|INTERRES
   111   56   58 2    
   112   57  112 1    
   113   57  113 1    
   114   59   60 1    
   115   59  114 1    
   116   59  115 1    
   117   60   61 1    
   118   61  116 1    
   119   61  117 1    
@<TRIPOS>SUBSTRUCTURE
     1 UNK         1 GROUP             0       ****    0 ROOT    
