@<TRIPOS>MOLECULE
3R8
117   119    1
SMALL
USER_CHARGES


@<TRIPOS>ATOM
      1 CA         12.9166  -26.6810  -40.8660 C.3       0 UNK        -0.2013 
      2 C          14.2365  -26.3433  -41.5432 C.2       0 UNK         0.4866 
      3 O          15.0086  -25.5419  -41.0154 O.2       0 UNK        -0.5176 
      4 N          14.4958  -26.9389  -42.7131 N.am      1 UNK        -0.4884 
      5 CA         15.7475  -26.8052  -43.4649 C.3       1 UNK         0.0853 
      6 C6         15.5620  -27.1595  -44.9640 C.3       10 UNK        -0.0849 
      7 S7         14.7585  -28.7729  -45.2680 S.3       10 UNK        -0.2776 
      8 C8         15.7609  -29.4400  -46.6339 C.3       10 UNK         0.0316 
      9 C9         17.0578  -30.0738  -46.1494 C.ar      10 UNK        -0.0863 
     10 C10        17.0165  -31.2728  -45.4335 C.ar      10 UNK        -0.1009 
     11 C11        18.1972  -31.9007  -45.0287 C.ar      10 UNK        -0.0712 
     12 C12        19.4252  -31.3294  -45.3702 C.ar      10 UNK        -0.0894 
     13 C13        19.4914  -30.1311  -46.0942 C.ar      10 UNK        -0.0745 
     14 C14        18.2959  -29.5037  -46.4651 C.ar      10 UNK        -0.0972 
     15 C15        20.8148  -29.5062  -46.5519 C.3       10 UNK         0.0209 
     16 S16        22.3394  -30.3911  -46.0354 S.3       10 UNK        -0.2568 
     17 C17        23.3373  -29.3072  -44.9420 C.3       10 UNK        -0.0983 
     18 CA         22.7362  -27.9576  -44.4682 C.3       3 UNK         0.0876 
     19 N          21.5652  -28.1560  -43.6067 N.am      3 UNK        -0.4424 
     20 C          20.4851  -27.3716  -43.5879 C.2       2 UNK         0.4918 
     21 O          20.3645  -26.3587  -44.2822 O.2       2 UNK        -0.4875 
     22 CA         19.3754  -27.7521  -42.6046 C.3       2 UNK         0.0481 
     23 CB         19.6814  -27.2069  -41.1977 C.3       2 UNK        -0.1831 
     24 N          18.1296  -27.1758  -43.0948 N.am      2 UNK        -0.4498 
     25 C          16.8960  -27.6019  -42.8089 C.2       1 UNK         0.5027 
     26 O          16.6524  -28.5627  -42.0742 O.2       1 UNK        -0.4969 
     27 C          23.7824  -27.0545  -43.7743 C.2       3 UNK         0.5005 
     28 O          24.9766  -27.3611  -43.7979 O.2       3 UNK        -0.5279 
     29 N          23.3208  -25.9462  -43.1732 N.am      4 UNK        -0.4463 
     30 CA         24.1091  -24.8994  -42.5111 C.3       4 UNK         0.0283 
     31 CB         24.7695  -23.9926  -43.5748 C.3       4 UNK        -0.1875 
     32 C          25.0951  -25.4762  -41.4740 C.2       4 UNK         0.4949 
     33 O          24.6529  -26.1253  -40.5259 O.2       4 UNK        -0.5039 
     34 N          26.4018  -25.2668  -41.6846 N.am      5 UNK        -0.4663 
     35 CA         27.4896  -25.7513  -40.8301 C.3       5 UNK         0.0242 
     36 CB         28.8067  -25.0970  -41.2782 C.3       5 UNK        -0.1982 
     37 C          27.6381  -27.2840  -40.7904 C.2       5 UNK         0.5017 
     38 O          28.1831  -27.7977  -39.8128 O.2       5 UNK        -0.5012 
     39 N          27.1540  -27.9899  -41.8245 N.am      6 UNK        -0.4439 
     40 CA         27.1198  -29.4564  -41.8645 C.3       6 UNK         0.0297 
     41 CB         27.1279  -29.9350  -43.3258 C.3       6 UNK        -0.2006 
     42 C          25.9117  -30.0398  -41.1082 C.2       6 UNK         0.4892 
     43 O          25.9142  -31.2378  -40.8213 O.2       6 UNK        -0.5089 
     44 N          24.9182  -29.1921  -40.7965 N.am      7 UNK        -0.4243 
     45 CA         23.6556  -29.4692  -40.1092 C.3       7 UNK         0.0196 
     46 CB         23.8822  -29.9437  -38.6594 C.3       7 UNK        -0.2007 
     47 C          22.7329  -30.4109  -40.8947 C.2       7 UNK         0.5020 
     48 O          21.7298  -29.9455  -41.4371 O.2       7 UNK        -0.5147 
     49 N          23.0691  -31.7067  -40.9335 N.am      8 UNK        -0.4734 
     50 CA         22.2868  -32.8131  -41.4970 C.3       8 UNK         0.0238 
     51 CB         22.2145  -32.7026  -43.0346 C.3       8 UNK        -0.1912 
     52 C          20.9118  -32.9274  -40.8101 C.2       8 UNK         0.5038 
     53 O          20.8296  -33.5312  -39.7395 O.2       8 UNK        -0.5046 
     54 N          19.8789  -32.3210  -41.4086 N.am      9 UNK        -0.4200 
     55 CA         18.5524  -32.1315  -40.8012 C.3       9 UNK         0.0839 
     56 C          18.5292  -31.0736  -39.6585 C.2       9 UNK         0.5513 
     57 N          19.5178  -30.1955  -39.5398 N.am      9 UNK        -0.7519 
     58 O          17.6014  -31.0651  -38.8537 O.2       9 UNK        -0.4960 
     59 C59        17.4823  -31.8036  -41.8734 C.3       10 UNK        -0.0876 
     60 S60        16.9985  -33.2564  -42.8665 S.3       10 UNK        -0.2414 
     61 C61        18.1676  -33.2216  -44.2663 C.3       10 UNK         0.0169 
     62 H62        12.3230  -25.7777  -40.7279 H         1 UNK         0.0903 
     63 H63        12.3275  -27.3877  -41.4505 H         1 UNK         0.0903 
     64 H64        13.1003  -27.1218  -39.8865 H         1 UNK         0.0903 
     65 H65        13.8484  -27.6185  -43.0880 H         1 UNK         0.3096 
     66 H66        16.0369  -25.7523  -43.4185 H         1 UNK         0.1121 
     67 H67        16.5177  -27.1148  -45.4896 H         1 UNK         0.0849 
     68 H68        14.9404  -26.3966  -45.4353 H         1 UNK         0.0849 
     69 H69        15.1749  -30.1987  -47.1548 H         1 UNK         0.0865 
     70 H70        15.9532  -28.6557  -47.3678 H         1 UNK         0.0865 
     71 H71        16.0611  -31.7205  -45.1959 H         1 UNK         0.1346 
     72 H72        20.3273  -31.8501  -45.0927 H         1 UNK         0.1412 
     73 H73        18.3317  -28.5854  -47.0357 H         1 UNK         0.1426 
     74 H74        20.8296  -28.4572  -46.2731 H         1 UNK         0.0716 
     75 H75        20.8118  -29.5072  -47.6427 H         1 UNK         0.0716 
     76 H76        23.6319  -29.9016  -44.0749 H         1 UNK         0.0695 
     77 H77        24.2599  -29.1248  -45.4963 H         1 UNK         0.0695 
     78 H78        22.4558  -27.3917  -45.3574 H         1 UNK         0.0983 
     79 H79        21.6206  -28.9203  -42.9354 H         1 UNK         0.3095 
     80 H80        19.2906  -28.8407  -42.5752 H         1 UNK         0.0454 
     81 H81        19.7504  -26.1185  -41.1937 H         1 UNK         0.0851 
     82 H82        20.6273  -27.5937  -40.8183 H         1 UNK         0.0851 
     83 H83        18.9071  -27.4939  -40.4863 H         1 UNK         0.0851 
     84 H84        18.2673  -26.4099  -43.7434 H         1 UNK         0.2976 
     85 H85        22.3216  -25.7895  -43.2041 H         1 UNK         0.3116 
     86 H86        23.4026  -24.2880  -41.9478 H         1 UNK         0.0646 
     87 H87        25.4683  -24.5404  -44.2085 H         1 UNK         0.0847 
     88 H88        25.3095  -23.1647  -43.1130 H         1 UNK         0.0847 
     89 H89        24.0177  -23.5500  -44.2283 H         1 UNK         0.0847 
     90 H90        26.6723  -24.7460  -42.5065 H         1 UNK         0.3040 
     91 H91        27.2762  -25.4267  -39.8090 H         1 UNK         0.1015 
     92 H92        29.0632  -25.3668  -42.3035 H         1 UNK         0.0786 
     93 H93        29.6355  -25.4110  -40.6419 H         1 UNK         0.0786 
     94 H94        28.7512  -24.0097  -41.2193 H         1 UNK         0.0786 
     95 H95        26.6728  -27.5044  -42.5762 H         1 UNK         0.3172 
     96 H96        28.0215  -29.8445  -41.3861 H         1 UNK         0.0595 
     97 H97        27.1853  -31.0232  -43.3768 H         1 UNK         0.0839 
     98 H98        27.9863  -29.5403  -43.8694 H         1 UNK         0.0839 
     99 H99        26.2261  -29.6363  -43.8589 H         1 UNK         0.0839 
    100 H100       25.0387  -28.2233  -41.0673 H         1 UNK         0.2998 
    101 H101       23.1380  -28.5098  -40.0529 H         1 UNK         0.0822 
    102 H102       22.9306  -30.1105  -38.1526 H         1 UNK         0.0787 
    103 H103       24.4452  -30.8757  -38.6065 H         1 UNK         0.0787 
    104 H104       24.4275  -29.1952  -38.0845 H         1 UNK         0.0787 
    105 H105       23.9597  -31.9563  -40.5166 H         1 UNK         0.3055 
    106 H106       22.8250  -33.7325  -41.2598 H         1 UNK         0.1106 
    107 H107       21.6192  -33.5103  -43.4615 H         1 UNK         0.0828 
    108 H108       21.7833  -31.7575  -43.3602 H         1 UNK         0.0828 
    109 H109       23.2089  -32.7706  -43.4759 H         1 UNK         0.0828 
    110 H110       20.0604  -31.7973  -42.2507 H         1 UNK         0.2931 
    111 H111       18.2711  -33.0759  -40.3308 H         1 UNK         0.0412 
    112 H112       19.4910  -29.5269  -38.7876 H         1 UNK         0.3472 
    113 H113       20.2714  -30.1734  -40.2178 H         1 UNK         0.3472 
    114 H114       16.5645  -31.4429  -41.4039 H         1 UNK         0.0970 
    115 H115       17.8125  -30.9872  -42.5168 H         1 UNK         0.0970 
    116 H116       19.1588  -33.4753  -43.8903 H         1 UNK         0.0612 
    117 H117       17.8951  -34.0158  -44.9622 H         1 UNK         0.0612 
@<TRIPOS>BOND
     1    1    2 1    
     2    1   62 1    
     3    1   63 1    
     4    1   64 1    
     5    2    3 2    
     6    2    4 am   BACKBONE|DICT|INTERRES
     7    4    5 1    
     8    4   65 1    
     9    5    6 1    
    10    5   25 1    
    11    5   66 1    
    12    6    7 1    
    13    6   67 1    
    14    6   68 1    
    15    7    8 1    
    16    8    9 1    
    17    8   69 1    
    18    8   70 1    
    19    9   10 ar   
    20    9   14 ar   
    21   10   11 ar   
    22   10   71 1    
    23   11   12 ar   
    24   11   61 1    
    25   12   13 ar   
    26   12   72 1    
    27   13   14 ar   
    28   13   15 1    
    29   14   73 1    
    30   15   16 1    
    31   15   74 1    
    32   15   75 1    
    33   16   17 1    
    34   17   18 1    
    35   17   76 1    
    36   17   77 1    
    37   18   19 1    
    38   18   27 1    
    39   18   78 1    
    40   19   20 am   BACKBONE|DICT|INTERRES
    41   19   79 1    
    42   20   21 2    
    43   20   22 1    
    44   22   23 1    
    45   22   24 1    
    46   22   80 1    
    47   23   81 1    
    48   23   82 1    
    49   23   83 1    
    50   24   25 am   BACKBONE|DICT|INTERRES
    51   24   84 1    
    52   25   26 2    
    53   27   28 2    
    54   27   29 am   BACKBONE|DICT|INTERRES
    55   29   30 1    
    56   29   85 1    
    57   30   31 1    
    58   30   32 1    
    59   30   86 1    
    60   31   87 1    
    61   31   88 1    
    62   31   89 1    
    63   32   33 2    
    64   32   34 am   BACKBONE|DICT|INTERRES
    65   34   35 1    
    66   34   90 1    
    67   35   36 1    
    68   35   37 1    
    69   35   91 1    
    70   36   92 1    
    71   36   93 1    
    72   36   94 1    
    73   37   38 2    
    74   37   39 am   BACKBONE|DICT|INTERRES
    75   39   40 1    
    76   39   95 1    
    77   40   41 1    
    78   40   42 1    
    79   40   96 1    
    80   41   97 1    
    81   41   98 1    
    82   41   99 1    
    83   42   43 2    
    84   42   44 am   BACKBONE|DICT|INTERRES
    85   44   45 1    
    86   44  100 1    
    87   45   46 1    
    88   45   47 1    
    89   45  101 1    
    90   46  102 1    
    91   46  103 1    
    92   46  104 1    
    93   47   48 2    
    94   47   49 am   BACKBONE|DICT|INTERRES
    95   49   50 1    
    96   49  105 1    
    97   50   51 1    
    98   50   52 1    
    99   50  106 1    
   100   51  107 1    
   101   51  108 1    
   102   51  109 1    
   103   52   53 2    
   104   52   54 am   BACKBONE|DICT|INTERRES
   105   54   55 1    
   106   54  110 1    
   107   55   56 1    
   108   55   59 1    
   109   55  111 1    
   110   56   57 am   BACKBONE|DICT|INTERRES
   111   56   58 2    
   112   57  112 1    
   113   57  113 1    
   114   59   60 1    
   115   59  114 1    
   116   59  115 1    
   117   60   61 1    
   118   61  116 1    
   119   61  117 1    
@<TRIPOS>SUBSTRUCTURE
     1 UNK         1 GROUP             0       ****    0 ROOT    
