@<TRIPOS>MOLECULE
3R8
117   119    1
SMALL
USER_CHARGES


@<TRIPOS>ATOM
      1 CA         17.2704  -23.8031  -40.8976 C.3       0 UNK        -0.2013 
      2 C          17.2582  -24.4556  -42.2720 C.2       0 UNK         0.4866 
      3 O          18.3269  -24.7470  -42.8138 O.2       0 UNK        -0.5176 
      4 N          16.0510  -24.6737  -42.8194 N.am      1 UNK        -0.4884 
      5 CA         15.7362  -25.2313  -44.1457 C.3       1 UNK         0.0853 
      6 C6         15.6304  -26.7896  -44.1649 C.3       10 UNK        -0.0849 
      7 S7         17.1827  -27.7037  -43.8579 S.3       10 UNK        -0.2776 
      8 C8         17.0652  -29.0960  -45.0211 C.3       10 UNK         0.0316 
      9 C9         18.3997  -29.8201  -45.0994 C.ar      10 UNK        -0.0863 
     10 C10        18.6455  -30.9526  -44.3182 C.ar      10 UNK        -0.1009 
     11 C11        19.8825  -31.6016  -44.3844 C.ar      10 UNK        -0.0712 
     12 C12        20.8792  -31.0964  -45.2254 C.ar      10 UNK        -0.0894 
     13 C13        20.6586  -29.9526  -45.9973 C.ar      10 UNK        -0.0745 
     14 C14        19.4007  -29.3386  -45.9462 C.ar      10 UNK        -0.0972 
     15 C15        21.8014  -29.4332  -46.8729 C.3       10 UNK         0.0209 
     16 S16        21.5889  -27.7406  -47.5267 S.3       10 UNK        -0.2568 
     17 C17        22.2695  -26.6758  -46.1993 C.3       10 UNK        -0.0983 
     18 CA         21.2784  -26.1967  -45.0827 C.3       3 UNK         0.0876 
     19 N          19.9222  -25.9088  -45.5603 N.am      3 UNK        -0.4424 
     20 C          19.6336  -24.9755  -46.4808 C.2       2 UNK         0.4918 
     21 O          20.4469  -24.1465  -46.8910 O.2       2 UNK        -0.4875 
     22 CA         18.2163  -24.9740  -47.0818 C.3       2 UNK         0.0481 
     23 CB         18.1573  -25.8783  -48.3238 C.3       2 UNK        -0.1831 
     24 N          17.2106  -25.4085  -46.1159 N.am      2 UNK        -0.4498 
     25 C          16.5825  -24.5865  -45.2686 C.2       1 UNK         0.5027 
     26 O          16.6492  -23.3560  -45.3359 O.2       1 UNK        -0.4969 
     27 C          21.2713  -27.0926  -43.8243 C.2       3 UNK         0.5005 
     28 O          22.0795  -28.0177  -43.7298 O.2       3 UNK        -0.5279 
     29 N          20.4225  -26.7817  -42.8278 N.am      4 UNK        -0.4463 
     30 CA         20.3599  -27.5074  -41.5424 C.3       4 UNK         0.0283 
     31 CB         19.1819  -27.0010  -40.6971 C.3       4 UNK        -0.1875 
     32 C          21.6521  -27.4642  -40.6984 C.2       4 UNK         0.4949 
     33 O          21.7715  -28.2289  -39.7432 O.2       4 UNK        -0.5039 
     34 N          22.6014  -26.5914  -41.0635 N.am      5 UNK        -0.4663 
     35 CA         23.9583  -26.5334  -40.5146 C.3       5 UNK         0.0242 
     36 CB         24.6229  -25.2270  -40.9806 C.3       5 UNK        -0.1982 
     37 C          24.8362  -27.7495  -40.8812 C.2       5 UNK         0.5017 
     38 O          25.8960  -27.9149  -40.2744 O.2       5 UNK        -0.5012 
     39 N          24.4069  -28.5648  -41.8583 N.am      6 UNK        -0.4439 
     40 CA         25.0398  -29.8293  -42.2427 C.3       6 UNK         0.0297 
     41 CB         24.3491  -30.3640  -43.5073 C.3       6 UNK        -0.2006 
     42 C          25.0192  -30.8801  -41.1130 C.2       6 UNK         0.4892 
     43 O          24.1880  -30.8049  -40.2038 O.2       6 UNK        -0.5089 
     44 N          25.9524  -31.8388  -41.1973 N.am      7 UNK        -0.4243 
     45 CA         26.2080  -32.8842  -40.2015 C.3       7 UNK         0.0196 
     46 CB         27.3413  -33.7958  -40.7024 C.3       7 UNK        -0.2007 
     47 C          24.9570  -33.7078  -39.8459 C.2       7 UNK         0.5020 
     48 O          24.4341  -34.4220  -40.7023 O.2       7 UNK        -0.5147 
     49 N          24.5166  -33.5765  -38.5863 N.am      8 UNK        -0.4734 
     50 CA         23.3463  -34.2144  -37.9658 C.3       8 UNK         0.0238 
     51 CB         23.4896  -35.7523  -37.9620 C.3       8 UNK        -0.1912 
     52 C          21.9809  -33.7558  -38.5222 C.2       8 UNK         0.5038 
     53 O          20.9722  -34.3927  -38.2120 O.2       8 UNK        -0.5046 
     54 N          21.9494  -32.6624  -39.2962 N.am      9 UNK        -0.4200 
     55 CA         20.7210  -32.0791  -39.8642 C.3       9 UNK         0.0839 
     56 C          19.9853  -31.0931  -38.9111 C.2       9 UNK         0.5513 
     57 N          20.5028  -30.7957  -37.7248 N.am      9 UNK        -0.7519 
     58 O          18.9058  -30.6105  -39.2433 O.2       9 UNK        -0.4960 
     59 C59        20.9772  -31.4486  -41.2557 C.3       10 UNK        -0.0876 
     60 S60        21.5789  -32.6830  -42.4578 S.3       10 UNK        -0.2414 
     61 C61        20.1395  -32.8560  -43.5589 C.3       10 UNK         0.0169 
     62 H62        17.3109  -24.5633  -40.1184 H         1 UNK         0.0903 
     63 H63        18.1424  -23.1581  -40.7923 H         1 UNK         0.0903 
     64 H64        16.3819  -23.1933  -40.7352 H         1 UNK         0.0903 
     65 H65        15.2393  -24.3802  -42.2938 H         1 UNK         0.3096 
     66 H66        14.7276  -24.8696  -44.3537 H         1 UNK         0.1121 
     67 H67        15.1928  -27.1184  -45.1092 H         1 UNK         0.0849 
     68 H68        14.9170  -27.1051  -43.4021 H         1 UNK         0.0849 
     69 H69        16.2758  -29.7758  -44.6964 H         1 UNK         0.0865 
     70 H70        16.7801  -28.7402  -46.0123 H         1 UNK         0.0865 
     71 H71        17.8733  -31.3279  -43.6605 H         1 UNK         0.1346 
     72 H72        21.8392  -31.5926  -45.2673 H         1 UNK         0.1412 
     73 H73        19.1951  -28.4694  -46.5501 H         1 UNK         0.1426 
     74 H74        21.9094  -30.1102  -47.7211 H         1 UNK         0.0716 
     75 H75        22.7399  -29.4815  -46.3185 H         1 UNK         0.0716 
     76 H76        23.1680  -27.1384  -45.7876 H         1 UNK         0.0695 
     77 H77        22.6461  -25.7891  -46.7108 H         1 UNK         0.0695 
     78 H78        21.6726  -25.2479  -44.7123 H         1 UNK         0.0983 
     79 H79        19.1950  -26.5154  -45.2091 H         1 UNK         0.3095 
     80 H80        17.9959  -23.9555  -47.4087 H         1 UNK         0.0454 
     81 H81        18.8996  -25.5723  -49.0624 H         1 UNK         0.0851 
     82 H82        18.3546  -26.9222  -48.0822 H         1 UNK         0.0851 
     83 H83        17.1813  -25.8247  -48.8063 H         1 UNK         0.0851 
     84 H84        17.1019  -26.4018  -45.9720 H         1 UNK         0.2976 
     85 H85        19.7662  -26.0097  -42.9402 H         1 UNK         0.3116 
     86 H86        20.1710  -28.5555  -41.7804 H         1 UNK         0.0646 
     87 H87        19.0933  -27.5702  -39.7705 H         1 UNK         0.0847 
     88 H88        18.2345  -27.1071  -41.2222 H         1 UNK         0.0847 
     89 H89        19.3106  -25.9536  -40.4249 H         1 UNK         0.0847 
     90 H90        22.4057  -25.9924  -41.8512 H         1 UNK         0.3040 
     91 H91        23.8806  -26.5133  -39.4253 H         1 UNK         0.1015 
     92 H92        24.0515  -24.3545  -40.6630 H         1 UNK         0.0786 
     93 H93        24.7216  -25.1896  -42.0663 H         1 UNK         0.0786 
     94 H94        25.6241  -25.1258  -40.5592 H         1 UNK         0.0786 
     95 H95        23.5282  -28.3474  -42.3189 H         1 UNK         0.3172 
     96 H96        26.0831  -29.6154  -42.4836 H         1 UNK         0.0595 
     97 H97        24.7525  -31.3315  -43.8087 H         1 UNK         0.0839 
     98 H98        24.4798  -29.6811  -44.3468 H         1 UNK         0.0839 
     99 H99        23.2778  -30.4895  -43.3522 H         1 UNK         0.0839 
    100 H100       26.5666  -31.8341  -41.9986 H         1 UNK         0.2998 
    101 H101       26.5624  -32.3814  -39.2992 H         1 UNK         0.0822 
    102 H102       28.2634  -33.2360  -40.8606 H         1 UNK         0.0787 
    103 H103       27.5606  -34.5800  -39.9764 H         1 UNK         0.0787 
    104 H104       27.0795  -34.2859  -41.6412 H         1 UNK         0.0787 
    105 H105       25.0152  -32.9331  -37.9858 H         1 UNK         0.3055 
    106 H106       23.3520  -33.8898  -36.9239 H         1 UNK         0.1106 
    107 H107       23.4056  -36.1704  -38.9654 H         1 UNK         0.0828 
    108 H108       24.4490  -36.0618  -37.5478 H         1 UNK         0.0828 
    109 H109       22.7129  -36.2176  -37.3538 H         1 UNK         0.0828 
    110 H110       22.8127  -32.1752  -39.5145 H         1 UNK         0.2931 
    111 H111       20.0090  -32.8910  -40.0253 H         1 UNK         0.0412 
    112 H112       21.3948  -31.1727  -37.4493 H         1 UNK         0.3472 
    113 H113       20.0133  -30.1567  -37.1189 H         1 UNK         0.3472 
    114 H114       20.0675  -30.9875  -41.6433 H         1 UNK         0.0970 
    115 H115       21.7114  -30.6449  -41.1841 H         1 UNK         0.0970 
    116 H116       19.2658  -33.1214  -42.9615 H         1 UNK         0.0612 
    117 H117       20.3164  -33.6920  -44.2368 H         1 UNK         0.0612 
@<TRIPOS>BOND
     1    1    2 1    
     2    1   62 1    
     3    1   63 1    
     4    1   64 1    
     5    2    3 2    
     6    2    4 am   BACKBONE|DICT|INTERRES
     7    4    5 1    
     8    4   65 1    
     9    5    6 1    
    10    5   25 1    
    11    5   66 1    
    12    6    7 1    
    13    6   67 1    
    14    6   68 1    
    15    7    8 1    
    16    8    9 1    
    17    8   69 1    
    18    8   70 1    
    19    9   10 ar   
    20    9   14 ar   
    21   10   11 ar   
    22   10   71 1    
    23   11   12 ar   
    24   11   61 1    
    25   12   13 ar   
    26   12   72 1    
    27   13   14 ar   
    28   13   15 1    
    29   14   73 1    
    30   15   16 1    
    31   15   74 1    
    32   15   75 1    
    33   16   17 1    
    34   17   18 1    
    35   17   76 1    
    36   17   77 1    
    37   18   19 1    
    38   18   27 1    
    39   18   78 1    
    40   19   20 am   BACKBONE|DICT|INTERRES
    41   19   79 1    
    42   20   21 2    
    43   20   22 1    
    44   22   23 1    
    45   22   24 1    
    46   22   80 1    
    47   23   81 1    
    48   23   82 1    
    49   23   83 1    
    50   24   25 am   BACKBONE|DICT|INTERRES
    51   24   84 1    
    52   25   26 2    
    53   27   28 2    
    54   27   29 am   BACKBONE|DICT|INTERRES
    55   29   30 1    
    56   29   85 1    
    57   30   31 1    
    58   30   32 1    
    59   30   86 1    
    60   31   87 1    
    61   31   88 1    
    62   31   89 1    
    63   32   33 2    
    64   32   34 am   BACKBONE|DICT|INTERRES
    65   34   35 1    
    66   34   90 1    
    67   35   36 1    
    68   35   37 1    
    69   35   91 1    
    70   36   92 1    
    71   36   93 1    
    72   36   94 1    
    73   37   38 2    
    74   37   39 am   BACKBONE|DICT|INTERRES
    75   39   40 1    
    76   39   95 1    
    77   40   41 1    
    78   40   42 1    
    79   40   96 1    
    80   41   97 1    
    81   41   98 1    
    82   41   99 1    
    83   42   43 2    
    84   42   44 am   BACKBONE|DICT|INTERRES
    85   44   45 1    
    86   44  100 1    
    87   45   46 1    
    88   45   47 1    
    89   45  101 1    
    90   46  102 1    
    91   46  103 1    
    92   46  104 1    
    93   47   48 2    
    94   47   49 am   BACKBONE|DICT|INTERRES
    95   49   50 1    
    96   49  105 1    
    97   50   51 1    
    98   50   52 1    
    99   50  106 1    
   100   51  107 1    
   101   51  108 1    
   102   51  109 1    
   103   52   53 2    
   104   52   54 am   BACKBONE|DICT|INTERRES
   105   54   55 1    
   106   54  110 1    
   107   55   56 1    
   108   55   59 1    
   109   55  111 1    
   110   56   57 am   BACKBONE|DICT|INTERRES
   111   56   58 2    
   112   57  112 1    
   113   57  113 1    
   114   59   60 1    
   115   59  114 1    
   116   59  115 1    
   117   60   61 1    
   118   61  116 1    
   119   61  117 1    
@<TRIPOS>SUBSTRUCTURE
     1 UNK         1 GROUP             0       ****    0 ROOT    
