@<TRIPOS>MOLECULE
3R8
117   119    1
SMALL
USER_CHARGES


@<TRIPOS>ATOM
      1 CA         14.7102  -22.0629  -43.4108 C.3       0 UNK        -0.2013 
      2 C          15.1735  -23.2624  -44.2239 C.2       0 UNK         0.4866 
      3 O          14.7130  -23.4521  -45.3498 O.2       0 UNK        -0.5176 
      4 N          16.0768  -24.0752  -43.6597 N.am      1 UNK        -0.4884 
      5 CA         16.6424  -25.2739  -44.2928 C.3       1 UNK         0.0853 
      6 C6         17.4407  -26.1305  -43.2793 C.3       10 UNK        -0.0849 
      7 S7         16.3528  -27.0460  -42.1369 S.3       10 UNK        -0.2776 
      8 C8         16.0436  -28.5899  -43.0623 C.3       10 UNK         0.0316 
      9 C9         17.3109  -29.4114  -43.2590 C.ar      10 UNK        -0.0863 
     10 C10        17.7872  -30.2321  -42.2325 C.ar      10 UNK        -0.1009 
     11 C11        18.9586  -30.9746  -42.4078 C.ar      10 UNK        -0.0712 
     12 C12        19.6683  -30.8731  -43.6080 C.ar      10 UNK        -0.0894 
     13 C13        19.2009  -30.0599  -44.6439 C.ar      10 UNK        -0.0745 
     14 C14        18.0069  -29.3527  -44.4708 C.ar      10 UNK        -0.0972 
     15 C15        19.9764  -29.9733  -45.9540 C.3       10 UNK         0.0209 
     16 S16        20.2469  -28.2607  -46.5185 S.3       10 UNK        -0.2568 
     17 C17        21.3392  -27.6019  -45.2159 C.3       10 UNK        -0.0983 
     18 CA         21.8691  -26.1933  -45.5889 C.3       3 UNK         0.0876 
     19 N          20.7963  -25.1959  -45.6067 N.am      3 UNK        -0.4424 
     20 C          20.4325  -24.4465  -46.6537 C.2       2 UNK         0.4918 
     21 O          20.9435  -24.5350  -47.7718 O.2       2 UNK        -0.4875 
     22 CA         19.3133  -23.4114  -46.3949 C.3       2 UNK         0.0481 
     23 CB         18.6320  -22.9284  -47.6931 C.3       2 UNK        -0.1831 
     24 N          18.3138  -23.8649  -45.4156 N.am      2 UNK        -0.4498 
     25 C          17.5253  -24.9485  -45.5139 C.2       1 UNK         0.5027 
     26 O          17.4856  -25.6913  -46.4951 O.2       1 UNK        -0.4969 
     27 C          22.9479  -25.7177  -44.5987 C.2       3 UNK         0.5005 
     28 O          22.6720  -24.8609  -43.7529 O.2       3 UNK        -0.5279 
     29 N          24.1632  -26.2691  -44.7335 N.am      4 UNK        -0.4463 
     30 CA         25.3616  -25.8658  -43.9875 C.3       4 UNK         0.0283 
     31 CB         26.5807  -26.6375  -44.5189 C.3       4 UNK        -0.1875 
     32 C          25.2520  -26.0253  -42.4611 C.2       4 UNK         0.4949 
     33 O          25.7429  -25.1626  -41.7320 O.2       4 UNK        -0.5039 
     34 N          24.6104  -27.1079  -42.0076 N.am      5 UNK        -0.4663 
     35 CA         24.3623  -27.4124  -40.6014 C.3       5 UNK         0.0242 
     36 CB         25.6636  -27.8732  -39.9117 C.3       5 UNK        -0.1982 
     37 C          23.3028  -28.5130  -40.5099 C.2       5 UNK         0.5017 
     38 O          23.1924  -29.3316  -41.4263 O.2       5 UNK        -0.5012 
     39 N          22.5997  -28.5631  -39.3699 N.am      6 UNK        -0.4439 
     40 CA         21.6639  -29.6383  -39.0161 C.3       6 UNK         0.0297 
     41 CB         20.8300  -29.2135  -37.7976 C.3       6 UNK        -0.2006 
     42 C          22.3603  -30.9877  -38.7504 C.2       6 UNK         0.4892 
     43 O          21.7113  -32.0296  -38.8382 O.2       6 UNK        -0.5089 
     44 N          23.6747  -30.9524  -38.4795 N.am      7 UNK        -0.4243 
     45 CA         24.5582  -32.1122  -38.3214 C.3       7 UNK         0.0196 
     46 CB         25.9676  -31.6209  -37.9536 C.3       7 UNK        -0.2007 
     47 C          24.6169  -33.0336  -39.5547 C.2       7 UNK         0.5020 
     48 O          24.9421  -34.2113  -39.4056 O.2       7 UNK        -0.5147 
     49 N          24.2540  -32.5115  -40.7369 N.am      8 UNK        -0.4734 
     50 CA         24.0782  -33.2720  -41.9788 C.3       8 UNK         0.0238 
     51 CB         23.7705  -32.2922  -43.1230 C.3       8 UNK        -0.1912 
     52 C          22.9894  -34.3616  -41.8955 C.2       8 UNK         0.5038 
     53 O          23.0595  -35.3326  -42.6498 O.2       8 UNK        -0.5046 
     54 N          22.0269  -34.1942  -40.9786 N.am      9 UNK        -0.4200 
     55 CA         20.9962  -35.1863  -40.6418 C.3       9 UNK         0.0839 
     56 C          21.4589  -36.2279  -39.5800 C.2       9 UNK         0.5513 
     57 N          22.6759  -36.1656  -39.0504 N.am      9 UNK        -0.7519 
     58 O          20.6981  -37.1294  -39.2374 O.2       9 UNK        -0.4960 
     59 C59        19.6673  -34.4993  -40.2284 C.3       10 UNK        -0.0876 
     60 S60        18.8937  -33.6027  -41.6152 S.3       10 UNK        -0.2414 
     61 C61        19.4545  -31.9006  -41.3114 C.3       10 UNK         0.0169 
     62 H62        14.9384  -21.1392  -43.9420 H         1 UNK         0.0903 
     63 H63        13.6327  -22.1092  -43.2550 H         1 UNK         0.0903 
     64 H64        15.1921  -22.0204  -42.4341 H         1 UNK         0.0903 
     65 H65        16.3926  -23.8859  -42.7186 H         1 UNK         0.3096 
     66 H66        15.8095  -25.8701  -44.6729 H         1 UNK         0.1121 
     67 H67        18.1029  -25.4984  -42.6850 H         1 UNK         0.0849 
     68 H68        18.1058  -26.8329  -43.7799 H         1 UNK         0.0849 
     69 H69        15.3067  -29.1838  -42.5194 H         1 UNK         0.0865 
     70 H70        15.5871  -28.3522  -44.0244 H         1 UNK         0.0865 
     71 H71        17.2432  -30.2961  -41.2999 H         1 UNK         0.1346 
     72 H72        20.5760  -31.4454  -43.7394 H         1 UNK         0.1412 
     73 H73        17.6362  -28.7298  -45.2741 H         1 UNK         0.1426 
     74 H74        19.4199  -30.5104  -46.7230 H         1 UNK         0.0716 
     75 H75        20.9439  -30.4707  -45.8689 H         1 UNK         0.0716 
     76 H76        22.1614  -28.3072  -45.0809 H         1 UNK         0.0695 
     77 H77        20.7927  -27.5774  -44.2709 H         1 UNK         0.0695 
     78 H78        22.3419  -26.2479  -46.5722 H         1 UNK         0.0983 
     79 H79        20.3899  -24.9909  -44.7061 H         1 UNK         0.3095 
     80 H80        19.8042  -22.5476  -45.9446 H         1 UNK         0.0454 
     81 H81        19.3524  -22.4533  -48.3599 H         1 UNK         0.0851 
     82 H82        17.8537  -22.1947  -47.4839 H         1 UNK         0.0851 
     83 H83        18.1768  -23.7526  -48.2431 H         1 UNK         0.0851 
     84 H84        18.2488  -23.3174  -44.5684 H         1 UNK         0.2976 
     85 H85        24.2981  -26.9714  -45.4473 H         1 UNK         0.3116 
     86 H86        25.5228  -24.8045  -44.1890 H         1 UNK         0.0646 
     87 H87        27.4897  -26.3395  -43.9941 H         1 UNK         0.0847 
     88 H88        26.4682  -27.7143  -44.3863 H         1 UNK         0.0847 
     89 H89        26.7450  -26.4434  -45.5790 H         1 UNK         0.0847 
     90 H90        24.2103  -27.7712  -42.6599 H         1 UNK         0.3040 
     91 H91        23.9800  -26.5141  -40.1111 H         1 UNK         0.1015 
     92 H92        25.4924  -28.1130  -38.8617 H         1 UNK         0.0786 
     93 H93        26.4294  -27.0980  -39.9365 H         1 UNK         0.0786 
     94 H94        26.0768  -28.7631  -40.3886 H         1 UNK         0.0786 
     95 H95        22.7517  -27.8492  -38.6708 H         1 UNK         0.3172 
     96 H96        20.9849  -29.7813  -39.8590 H         1 UNK         0.0595 
     97 H97        20.2688  -28.3008  -37.9984 H         1 UNK         0.0839 
     98 H98        21.4531  -29.0410  -36.9192 H         1 UNK         0.0839 
     99 H99        20.1045  -29.9851  -37.5351 H         1 UNK         0.0839 
    100 H100       24.1126  -30.0463  -38.4150 H         1 UNK         0.2998 
    101 H101       24.1710  -32.7083  -37.4924 H         1 UNK         0.0822 
    102 H102       26.6457  -32.4615  -37.7985 H         1 UNK         0.0787 
    103 H103       26.3961  -30.9978  -38.7398 H         1 UNK         0.0787 
    104 H104       25.9590  -31.0410  -37.0305 H         1 UNK         0.0787 
    105 H105       24.0008  -31.5323  -40.7715 H         1 UNK         0.3055 
    106 H106       25.0220  -33.7766  -42.1970 H         1 UNK         0.1106 
    107 H107       24.5805  -31.5757  -43.2610 H         1 UNK         0.0828 
    108 H108       23.6406  -32.8201  -44.0688 H         1 UNK         0.0828 
    109 H109       22.8566  -31.7281  -42.9339 H         1 UNK         0.0828 
    110 H110       22.0605  -33.3811  -40.3740 H         1 UNK         0.2931 
    111 H111       20.7855  -35.7732  -41.5378 H         1 UNK         0.0412 
    112 H112       22.9474  -36.8587  -38.3712 H         1 UNK         0.3472 
    113 H113       23.3372  -35.4473  -39.3221 H         1 UNK         0.3472 
    114 H114       18.9399  -35.2410  -39.8932 H         1 UNK         0.0970 
    115 H115       19.8188  -33.8280  -39.3816 H         1 UNK         0.0970 
    116 H116       20.5437  -31.8729  -41.2803 H         1 UNK         0.0612 
    117 H117       19.1021  -31.5661  -40.3344 H         1 UNK         0.0612 
@<TRIPOS>BOND
     1    1    2 1    
     2    1   62 1    
     3    1   63 1    
     4    1   64 1    
     5    2    3 2    
     6    2    4 am   BACKBONE|DICT|INTERRES
     7    4    5 1    
     8    4   65 1    
     9    5    6 1    
    10    5   25 1    
    11    5   66 1    
    12    6    7 1    
    13    6   67 1    
    14    6   68 1    
    15    7    8 1    
    16    8    9 1    
    17    8   69 1    
    18    8   70 1    
    19    9   10 ar   
    20    9   14 ar   
    21   10   11 ar   
    22   10   71 1    
    23   11   12 ar   
    24   11   61 1    
    25   12   13 ar   
    26   12   72 1    
    27   13   14 ar   
    28   13   15 1    
    29   14   73 1    
    30   15   16 1    
    31   15   74 1    
    32   15   75 1    
    33   16   17 1    
    34   17   18 1    
    35   17   76 1    
    36   17   77 1    
    37   18   19 1    
    38   18   27 1    
    39   18   78 1    
    40   19   20 am   BACKBONE|DICT|INTERRES
    41   19   79 1    
    42   20   21 2    
    43   20   22 1    
    44   22   23 1    
    45   22   24 1    
    46   22   80 1    
    47   23   81 1    
    48   23   82 1    
    49   23   83 1    
    50   24   25 am   BACKBONE|DICT|INTERRES
    51   24   84 1    
    52   25   26 2    
    53   27   28 2    
    54   27   29 am   BACKBONE|DICT|INTERRES
    55   29   30 1    
    56   29   85 1    
    57   30   31 1    
    58   30   32 1    
    59   30   86 1    
    60   31   87 1    
    61   31   88 1    
    62   31   89 1    
    63   32   33 2    
    64   32   34 am   BACKBONE|DICT|INTERRES
    65   34   35 1    
    66   34   90 1    
    67   35   36 1    
    68   35   37 1    
    69   35   91 1    
    70   36   92 1    
    71   36   93 1    
    72   36   94 1    
    73   37   38 2    
    74   37   39 am   BACKBONE|DICT|INTERRES
    75   39   40 1    
    76   39   95 1    
    77   40   41 1    
    78   40   42 1    
    79   40   96 1    
    80   41   97 1    
    81   41   98 1    
    82   41   99 1    
    83   42   43 2    
    84   42   44 am   BACKBONE|DICT|INTERRES
    85   44   45 1    
    86   44  100 1    
    87   45   46 1    
    88   45   47 1    
    89   45  101 1    
    90   46  102 1    
    91   46  103 1    
    92   46  104 1    
    93   47   48 2    
    94   47   49 am   BACKBONE|DICT|INTERRES
    95   49   50 1    
    96   49  105 1    
    97   50   51 1    
    98   50   52 1    
    99   50  106 1    
   100   51  107 1    
   101   51  108 1    
   102   51  109 1    
   103   52   53 2    
   104   52   54 am   BACKBONE|DICT|INTERRES
   105   54   55 1    
   106   54  110 1    
   107   55   56 1    
   108   55   59 1    
   109   55  111 1    
   110   56   57 am   BACKBONE|DICT|INTERRES
   111   56   58 2    
   112   57  112 1    
   113   57  113 1    
   114   59   60 1    
   115   59  114 1    
   116   59  115 1    
   117   60   61 1    
   118   61  116 1    
   119   61  117 1    
@<TRIPOS>SUBSTRUCTURE
     1 UNK         1 GROUP             0       ****    0 ROOT    
