@<TRIPOS>MOLECULE
3R8
117   119    1
SMALL
USER_CHARGES


@<TRIPOS>ATOM
      1 CA         22.5402  -29.3325  -44.3668 C.3       0 UNK        -0.2013 
      2 C          21.2833  -28.5937  -44.7904 C.2       0 UNK         0.4866 
      3 O          20.8422  -27.6851  -44.0893 O.2       0 UNK        -0.5176 
      4 N          20.7104  -28.9432  -45.9493 N.am      1 UNK        -0.4884 
      5 CA         19.4407  -28.4058  -46.4654 C.3       1 UNK         0.0853 
      6 C6         18.7237  -29.3912  -47.4277 C.3       10 UNK        -0.0849 
      7 S7         18.5808  -31.0933  -46.7803 S.3       10 UNK        -0.2776 
      8 C8         17.1157  -30.9730  -45.6995 C.3       10 UNK         0.0316 
      9 C9         17.4131  -30.2405  -44.3961 C.ar      10 UNK        -0.0863 
     10 C10        18.4085  -30.7175  -43.5365 C.ar      10 UNK        -0.1009 
     11 C11        18.6861  -30.0605  -42.3357 C.ar      10 UNK        -0.0712 
     12 C12        17.9527  -28.9239  -41.9897 C.ar      10 UNK        -0.0894 
     13 C13        16.9486  -28.4375  -42.8334 C.ar      10 UNK        -0.0745 
     14 C14        16.6845  -29.0994  -44.0378 C.ar      10 UNK        -0.0972 
     15 C15        16.1054  -27.2433  -42.4037 C.3       10 UNK         0.0209 
     16 S16        17.1075  -25.7804  -41.9789 S.3       10 UNK        -0.2568 
     17 C17        17.2131  -24.8719  -43.5608 C.3       10 UNK        -0.0983 
     18 CA         18.6104  -24.8407  -44.2373 C.3       3 UNK         0.0876 
     19 N          18.5290  -24.0094  -45.4465 N.am      3 UNK        -0.4424 
     20 C          19.3727  -23.8201  -46.4776 C.2       2 UNK         0.4918 
     21 O          19.1659  -22.9071  -47.2751 O.2       2 UNK        -0.4875 
     22 CA         20.5894  -24.7322  -46.7607 C.3       2 UNK         0.0481 
     23 CB         21.8771  -24.2062  -46.1082 C.3       2 UNK        -0.1831 
     24 N          20.4011  -26.1426  -46.4410 N.am      2 UNK        -0.4498 
     25 C          19.5698  -26.9850  -47.0664 C.2       1 UNK         0.5027 
     26 O          18.9193  -26.6741  -48.0658 O.2       1 UNK        -0.4969 
     27 C          19.7057  -24.3039  -43.2894 C.2       3 UNK         0.5005 
     28 O          19.8333  -23.0868  -43.1305 O.2       3 UNK        -0.5279 
     29 N          20.4560  -25.2182  -42.6674 N.am      4 UNK        -0.4463 
     30 CA         21.4624  -24.9594  -41.6425 C.3       4 UNK         0.0283 
     31 CB         22.8474  -24.8250  -42.3017 C.3       4 UNK        -0.1875 
     32 C          21.4427  -26.1068  -40.6225 C.2       4 UNK         0.4949 
     33 O          20.8309  -27.1472  -40.8712 O.2       4 UNK        -0.5039 
     34 N          22.1169  -25.8989  -39.4861 N.am      5 UNK        -0.4663 
     35 CA         22.3188  -26.9211  -38.4573 C.3       5 UNK         0.0242 
     36 CB         22.6793  -26.2293  -37.1319 C.3       5 UNK        -0.1982 
     37 C          23.4233  -27.9132  -38.8634 C.2       5 UNK         0.5017 
     38 O          24.3521  -27.5317  -39.5811 O.2       5 UNK        -0.5012 
     39 N          23.3229  -29.1455  -38.3436 N.am      6 UNK        -0.4439 
     40 CA         24.2443  -30.2700  -38.5536 C.3       6 UNK         0.0297 
     41 CB         25.6125  -29.9860  -37.8912 C.3       6 UNK        -0.2006 
     42 C          24.3323  -30.6899  -40.0366 C.2       6 UNK         0.4892 
     43 O          23.3077  -30.6720  -40.7233 O.2       6 UNK        -0.5089 
     44 N          25.5272  -31.1050  -40.4888 N.am      7 UNK        -0.4243 
     45 CA         25.8442  -31.6157  -41.8290 C.3       7 UNK         0.0196 
     46 CB         25.7953  -30.4772  -42.8715 C.3       7 UNK        -0.2007 
     47 C          24.9693  -32.8330  -42.1784 C.2       7 UNK         0.5020 
     48 O          25.2011  -33.9094  -41.6275 O.2       7 UNK        -0.5147 
     49 N          23.9475  -32.6376  -43.0239 N.am      8 UNK        -0.4734 
     50 CA         22.9187  -33.6345  -43.3495 C.3       8 UNK         0.0238 
     51 CB         21.9898  -33.0704  -44.4381 C.3       8 UNK        -0.1912 
     52 C          22.0943  -34.0981  -42.1315 C.2       8 UNK         0.5038 
     53 O          21.6088  -35.2299  -42.1323 O.2       8 UNK        -0.5046 
     54 N          21.9737  -33.2295  -41.1203 N.am      9 UNK        -0.4200 
     55 CA         21.3568  -33.5133  -39.8177 C.3       9 UNK         0.0839 
     56 C          22.3738  -34.0251  -38.7548 C.2       9 UNK         0.5513 
     57 N          23.6470  -34.2299  -39.0746 N.am      9 UNK        -0.7519 
     58 O          21.9972  -34.2548  -37.6087 O.2       9 UNK        -0.4960 
     59 C59        20.5558  -32.2885  -39.3008 C.3       10 UNK        -0.0876 
     60 S60        19.1123  -31.9116  -40.3490 S.3       10 UNK        -0.2414 
     61 C61        19.7670  -30.5851  -41.4055 C.3       10 UNK         0.0169 
     62 H62        23.3757  -28.6353  -44.3135 H         1 UNK         0.0903 
     63 H63        22.3949  -29.7674  -43.3780 H         1 UNK         0.0903 
     64 H64        22.8011  -30.1278  -45.0640 H         1 UNK         0.0903 
     65 H65        21.1193  -29.6810  -46.5049 H         1 UNK         0.3096 
     66 H66        18.7841  -28.2697  -45.6063 H         1 UNK         0.1121 
     67 H67        17.7233  -29.0294  -47.6733 H         1 UNK         0.0849 
     68 H68        19.2631  -29.4469  -48.3752 H         1 UNK         0.0849 
     69 H69        16.2989  -30.4974  -46.2446 H         1 UNK         0.0865 
     70 H70        16.7750  -31.9813  -45.4603 H         1 UNK         0.0865 
     71 H71        18.9688  -31.6029  -43.8037 H         1 UNK         0.1346 
     72 H72        18.1601  -28.4200  -41.0552 H         1 UNK         0.1412 
     73 H73        15.9013  -28.7354  -44.6890 H         1 UNK         0.1426 
     74 H74        15.5378  -27.5335  -41.5186 H         1 UNK         0.0716 
     75 H75        15.3647  -26.9841  -43.1614 H         1 UNK         0.0716 
     76 H76        16.8758  -23.8533  -43.3591 H         1 UNK         0.0695 
     77 H77        16.4840  -25.2874  -44.2579 H         1 UNK         0.0695 
     78 H78        18.8453  -25.8693  -44.4992 H         1 UNK         0.0983 
     79 H79        17.7666  -23.3506  -45.4060 H         1 UNK         0.3095 
     80 H80        20.7533  -24.6829  -47.8395 H         1 UNK         0.0454 
     81 H81        21.8930  -24.3746  -45.0349 H         1 UNK         0.0851 
     82 H82        21.9940  -23.1343  -46.2739 H         1 UNK         0.0851 
     83 H83        22.7563  -24.6939  -46.5291 H         1 UNK         0.0851 
     84 H84        20.8589  -26.4966  -45.6065 H         1 UNK         0.2976 
     85 H85        20.2996  -26.2107  -42.8410 H         1 UNK         0.3116 
     86 H86        21.2187  -24.0374  -41.1104 H         1 UNK         0.0646 
     87 H87        23.0905  -25.7025  -42.9026 H         1 UNK         0.0847 
     88 H88        23.6354  -24.7135  -41.5560 H         1 UNK         0.0847 
     89 H89        22.8947  -23.9478  -42.9462 H         1 UNK         0.0847 
     90 H90        22.6271  -25.0352  -39.3705 H         1 UNK         0.3040 
     91 H91        21.3840  -27.4709  -38.3225 H         1 UNK         0.1015 
     92 H92        21.8953  -25.5399  -36.8176 H         1 UNK         0.0786 
     93 H93        23.6106  -25.6665  -37.2102 H         1 UNK         0.0786 
     94 H94        22.8070  -26.9586  -36.3307 H         1 UNK         0.0786 
     95 H95        22.5137  -29.3529  -37.7755 H         1 UNK         0.3172 
     96 H96        23.8009  -31.1199  -38.0328 H         1 UNK         0.0595 
     97 H97        26.1696  -29.2104  -38.4185 H         1 UNK         0.0839 
     98 H98        26.2346  -30.8811  -37.8580 H         1 UNK         0.0839 
     99 H99        25.4870  -29.6556  -36.8599 H         1 UNK         0.0839 
    100 H100       26.2946  -31.1139  -39.8319 H         1 UNK         0.2998 
    101 H101       26.8712  -31.9828  -41.7927 H         1 UNK         0.0822 
    102 H102       25.9751  -30.8513  -43.8804 H         1 UNK         0.0787 
    103 H103       24.8393  -29.9567  -42.8690 H         1 UNK         0.0787 
    104 H104       26.5654  -29.7336  -42.6658 H         1 UNK         0.0787 
    105 H105       23.8199  -31.7091  -43.3968 H         1 UNK         0.3055 
    106 H106       23.4262  -34.5154  -43.7491 H         1 UNK         0.1106 
    107 H107       21.4562  -32.1831  -44.0966 H         1 UNK         0.0828 
    108 H108       22.5440  -32.8071  -45.3390 H         1 UNK         0.0828 
    109 H109       21.2382  -33.8063  -44.7280 H         1 UNK         0.0828 
    110 H110       22.4352  -32.3271  -41.1928 H         1 UNK         0.2931 
    111 H111       20.6450  -34.3313  -39.9427 H         1 UNK         0.0412 
    112 H112       23.9870  -34.0933  -40.0195 H         1 UNK         0.3472 
    113 H113       24.2757  -34.5739  -38.3663 H         1 UNK         0.3472 
    114 H114       20.1705  -32.4770  -38.2970 H         1 UNK         0.0970 
    115 H115       21.1955  -31.4092  -39.2144 H         1 UNK         0.0970 
    116 H116       20.6085  -30.9576  -41.9896 H         1 UNK         0.0612 
    117 H117       20.1569  -29.7795  -40.7816 H         1 UNK         0.0612 
@<TRIPOS>BOND
     1    1    2 1    
     2    1   62 1    
     3    1   63 1    
     4    1   64 1    
     5    2    3 2    
     6    2    4 am   BACKBONE|DICT|INTERRES
     7    4    5 1    
     8    4   65 1    
     9    5    6 1    
    10    5   25 1    
    11    5   66 1    
    12    6    7 1    
    13    6   67 1    
    14    6   68 1    
    15    7    8 1    
    16    8    9 1    
    17    8   69 1    
    18    8   70 1    
    19    9   10 ar   
    20    9   14 ar   
    21   10   11 ar   
    22   10   71 1    
    23   11   12 ar   
    24   11   61 1    
    25   12   13 ar   
    26   12   72 1    
    27   13   14 ar   
    28   13   15 1    
    29   14   73 1    
    30   15   16 1    
    31   15   74 1    
    32   15   75 1    
    33   16   17 1    
    34   17   18 1    
    35   17   76 1    
    36   17   77 1    
    37   18   19 1    
    38   18   27 1    
    39   18   78 1    
    40   19   20 am   BACKBONE|DICT|INTERRES
    41   19   79 1    
    42   20   21 2    
    43   20   22 1    
    44   22   23 1    
    45   22   24 1    
    46   22   80 1    
    47   23   81 1    
    48   23   82 1    
    49   23   83 1    
    50   24   25 am   BACKBONE|DICT|INTERRES
    51   24   84 1    
    52   25   26 2    
    53   27   28 2    
    54   27   29 am   BACKBONE|DICT|INTERRES
    55   29   30 1    
    56   29   85 1    
    57   30   31 1    
    58   30   32 1    
    59   30   86 1    
    60   31   87 1    
    61   31   88 1    
    62   31   89 1    
    63   32   33 2    
    64   32   34 am   BACKBONE|DICT|INTERRES
    65   34   35 1    
    66   34   90 1    
    67   35   36 1    
    68   35   37 1    
    69   35   91 1    
    70   36   92 1    
    71   36   93 1    
    72   36   94 1    
    73   37   38 2    
    74   37   39 am   BACKBONE|DICT|INTERRES
    75   39   40 1    
    76   39   95 1    
    77   40   41 1    
    78   40   42 1    
    79   40   96 1    
    80   41   97 1    
    81   41   98 1    
    82   41   99 1    
    83   42   43 2    
    84   42   44 am   BACKBONE|DICT|INTERRES
    85   44   45 1    
    86   44  100 1    
    87   45   46 1    
    88   45   47 1    
    89   45  101 1    
    90   46  102 1    
    91   46  103 1    
    92   46  104 1    
    93   47   48 2    
    94   47   49 am   BACKBONE|DICT|INTERRES
    95   49   50 1    
    96   49  105 1    
    97   50   51 1    
    98   50   52 1    
    99   50  106 1    
   100   51  107 1    
   101   51  108 1    
   102   51  109 1    
   103   52   53 2    
   104   52   54 am   BACKBONE|DICT|INTERRES
   105   54   55 1    
   106   54  110 1    
   107   55   56 1    
   108   55   59 1    
   109   55  111 1    
   110   56   57 am   BACKBONE|DICT|INTERRES
   111   56   58 2    
   112   57  112 1    
   113   57  113 1    
   114   59   60 1    
   115   59  114 1    
   116   59  115 1    
   117   60   61 1    
   118   61  116 1    
   119   61  117 1    
@<TRIPOS>SUBSTRUCTURE
     1 UNK         1 GROUP             0       ****    0 ROOT    
