@<TRIPOS>MOLECULE
3R8
117   119    1
SMALL
USER_CHARGES


@<TRIPOS>ATOM
      1 CA         17.9049  -24.4484  -49.2195 C.3       0 UNK        -0.2013 
      2 C          18.3654  -25.2367  -48.0025 C.2       0 UNK         0.4866 
      3 O          19.5359  -25.6110  -47.9222 O.2       0 UNK        -0.5176 
      4 N          17.4524  -25.5006  -47.0601 N.am      1 UNK        -0.4884 
      5 CA         17.7305  -26.2018  -45.8030 C.3       1 UNK         0.0853 
      6 C6         16.4293  -26.6746  -45.1110 C.3       10 UNK        -0.0849 
      7 S7         15.4546  -27.8854  -46.0733 S.3       10 UNK        -0.2776 
      8 C8         16.6402  -29.2394  -46.4187 C.3       10 UNK         0.0316 
      9 C9         17.4359  -29.7352  -45.2104 C.ar      10 UNK        -0.0863 
     10 C10        18.7610  -30.1493  -45.3849 C.ar      10 UNK        -0.1009 
     11 C11        19.5126  -30.6122  -44.3007 C.ar      10 UNK        -0.0712 
     12 C12        18.9438  -30.6305  -43.0247 C.ar      10 UNK        -0.0894 
     13 C13        17.6245  -30.2173  -42.8343 C.ar      10 UNK        -0.0745 
     14 C14        16.8676  -29.8017  -43.9330 C.ar      10 UNK        -0.0972 
     15 C15        17.0107  -30.1982  -41.4449 C.3       10 UNK         0.0209 
     16 S16        16.9602  -28.4975  -40.7980 S.3       10 UNK        -0.2568 
     17 C17        18.4069  -28.4419  -39.6863 C.3       10 UNK        -0.0983 
     18 CA         19.7595  -28.1058  -40.3706 C.3       3 UNK         0.0876 
     19 N          19.6630  -26.9765  -41.3006 N.am      3 UNK        -0.4424 
     20 C          20.6620  -26.4593  -42.0296 C.2       2 UNK         0.4918 
     21 O          21.8315  -26.8510  -41.9924 O.2       2 UNK        -0.4875 
     22 CA         20.2484  -25.3603  -43.0157 C.3       2 UNK         0.0481 
     23 CB         21.4434  -24.6425  -43.6742 C.3       2 UNK        -0.1831 
     24 N          19.3984  -25.9726  -44.0332 N.am      2 UNK        -0.4498 
     25 C          18.5482  -25.3228  -44.8354 C.2       1 UNK         0.5027 
     26 O          18.3663  -24.1025  -44.8054 O.2       1 UNK        -0.4969 
     27 C          20.8377  -27.8641  -39.2959 C.2       3 UNK         0.5005 
     28 O          20.7673  -26.8593  -38.5845 O.2       3 UNK        -0.5279 
     29 N          21.8279  -28.7624  -39.2277 N.am      4 UNK        -0.4463 
     30 CA         23.0130  -28.7767  -38.3577 C.3       4 UNK         0.0283 
     31 CB         22.6306  -28.7593  -36.8652 C.3       4 UNK        -0.1875 
     32 C          24.0551  -27.6901  -38.6827 C.2       4 UNK         0.4949 
     33 O          25.2467  -27.9398  -38.5027 O.2       4 UNK        -0.5039 
     34 N          23.6075  -26.5231  -39.1631 N.am      5 UNK        -0.4663 
     35 CA         24.4419  -25.4029  -39.5982 C.3       5 UNK         0.0242 
     36 CB         23.5558  -24.1732  -39.8547 C.3       5 UNK        -0.1982 
     37 C          25.2898  -25.7440  -40.8338 C.2       5 UNK         0.5017 
     38 O          26.4911  -25.4719  -40.8292 O.2       5 UNK        -0.5012 
     39 N          24.6592  -26.3488  -41.8502 N.am      6 UNK        -0.4439 
     40 CA         25.3392  -26.8853  -43.0299 C.3       6 UNK         0.0297 
     41 CB         24.4771  -26.6719  -44.2840 C.3       6 UNK        -0.2006 
     42 C          25.6579  -28.3725  -42.8348 C.2       6 UNK         0.4892 
     43 O          26.8066  -28.7751  -43.0219 O.2       6 UNK        -0.5089 
     44 N          24.6406  -29.1551  -42.4564 N.am      7 UNK        -0.4243 
     45 CA         24.7091  -30.5950  -42.2263 C.3       7 UNK         0.0196 
     46 CB         24.8262  -31.3477  -43.5678 C.3       7 UNK        -0.2007 
     47 C          23.4449  -31.0271  -41.4799 C.2       7 UNK         0.5020 
     48 O          22.4632  -30.2806  -41.4504 O.2       7 UNK        -0.5147 
     49 N          23.4697  -32.2330  -40.9043 N.am      8 UNK        -0.4734 
     50 CA         22.2969  -32.8452  -40.2725 C.3       8 UNK         0.0238 
     51 CB         22.7558  -33.9221  -39.2761 C.3       8 UNK        -0.1912 
     52 C          21.3155  -33.4419  -41.2979 C.2       8 UNK         0.5038 
     53 O          20.1099  -33.4202  -41.0486 O.2       8 UNK        -0.5046 
     54 N          21.8501  -33.9595  -42.4160 N.am      9 UNK        -0.4200 
     55 CA         21.1349  -34.7176  -43.4600 C.3       9 UNK         0.0839 
     56 C          20.4888  -36.0377  -42.9277 C.2       9 UNK         0.5513 
     57 N          19.6386  -36.6948  -43.7061 N.am      9 UNK        -0.7519 
     58 O          20.7953  -36.5165  -41.8371 O.2       9 UNK        -0.4960 
     59 C59        20.1652  -33.8247  -44.2928 C.3       10 UNK        -0.0876 
     60 S60        21.0491  -32.6649  -45.3943 S.3       10 UNK        -0.2414 
     61 C61        20.9441  -31.0845  -44.5002 C.3       10 UNK         0.0169 
     62 H62        16.8470  -24.1925  -49.1638 H         1 UNK         0.0903 
     63 H63        18.4735  -23.5226  -49.3035 H         1 UNK         0.0903 
     64 H64        18.0653  -25.0306  -50.1265 H         1 UNK         0.0903 
     65 H65        16.5075  -25.1611  -47.1701 H         1 UNK         0.3096 
     66 H66        18.3435  -27.0731  -46.0401 H         1 UNK         0.1121 
     67 H67        15.7827  -25.8195  -44.9037 H         1 UNK         0.0849 
     68 H68        16.6467  -27.1123  -44.1355 H         1 UNK         0.0849 
     69 H69        16.0878  -30.0826  -46.8351 H         1 UNK         0.0865 
     70 H70        17.3172  -28.9060  -47.2069 H         1 UNK         0.0865 
     71 H71        19.2101  -30.1266  -46.3688 H         1 UNK         0.1346 
     72 H72        19.5281  -30.9721  -42.1813 H         1 UNK         0.1412 
     73 H73        15.8417  -29.4955  -43.7809 H         1 UNK         0.1426 
     74 H74        17.5551  -30.8557  -40.7654 H         1 UNK         0.0716 
     75 H75        15.9925  -30.5867  -41.4943 H         1 UNK         0.0716 
     76 H76        18.4790  -29.3895  -39.1492 H         1 UNK         0.0695 
     77 H77        18.1730  -27.6918  -38.9276 H         1 UNK         0.0695 
     78 H78        20.0585  -28.9678  -40.9684 H         1 UNK         0.0983 
     79 H79        18.7359  -26.5923  -41.4097 H         1 UNK         0.3095 
     80 H80        19.6694  -24.6244  -42.4539 H         1 UNK         0.0454 
     81 H81        21.9573  -25.2944  -44.3786 H         1 UNK         0.0851 
     82 H82        22.1715  -24.3120  -42.9334 H         1 UNK         0.0851 
     83 H83        21.1194  -23.7580  -44.2223 H         1 UNK         0.0851 
     84 H84        19.4665  -26.9801  -44.0985 H         1 UNK         0.2976 
     85 H85        21.8638  -29.4564  -39.9745 H         1 UNK         0.3116 
     86 H86        23.4994  -29.7335  -38.5549 H         1 UNK         0.0646 
     87 H87        22.1737  -27.8146  -36.5696 H         1 UNK         0.0847 
     88 H88        23.5126  -28.8985  -36.2387 H         1 UNK         0.0847 
     89 H89        21.9326  -29.5609  -36.6244 H         1 UNK         0.0847 
     90 H90        22.6012  -26.4053  -39.2220 H         1 UNK         0.3040 
     91 H91        25.1300  -25.1638  -38.7842 H         1 UNK         0.1015 
     92 H92        22.7929  -24.3733  -40.6069 H         1 UNK         0.0786 
     93 H93        24.1500  -23.3282  -40.2054 H         1 UNK         0.0786 
     94 H94        23.0486  -23.8560  -38.9433 H         1 UNK         0.0786 
     95 H95        23.6604  -26.5306  -41.7705 H         1 UNK         0.3172 
     96 H96        26.2823  -26.3581  -43.1897 H         1 UNK         0.0595 
     97 H97        23.5012  -27.1508  -44.1973 H         1 UNK         0.0839 
     98 H98        24.9651  -27.0875  -45.1666 H         1 UNK         0.0839 
     99 H99        24.3205  -25.6105  -44.4741 H         1 UNK         0.0839 
    100 H100       23.7235  -28.7551  -42.2926 H         1 UNK         0.2998 
    101 H101       25.5752  -30.8124  -41.5978 H         1 UNK         0.0822 
    102 H102       25.7397  -31.0810  -44.0991 H         1 UNK         0.0787 
    103 H103       24.8515  -32.4274  -43.4179 H         1 UNK         0.0787 
    104 H104       23.9843  -31.1292  -44.2258 H         1 UNK         0.0787 
    105 H105       24.3151  -32.7854  -40.9450 H         1 UNK         0.3055 
    106 H106       21.7560  -32.0794  -39.7111 H         1 UNK         0.1106 
    107 H107       21.9002  -34.3789  -38.7765 H         1 UNK         0.0828 
    108 H108       23.3088  -34.7228  -39.7686 H         1 UNK         0.0828 
    109 H109       23.3940  -33.4989  -38.5002 H         1 UNK         0.0828 
    110 H110       22.8531  -33.9342  -42.5133 H         1 UNK         0.2931 
    111 H111       21.9179  -35.0672  -44.1340 H         1 UNK         0.0412 
    112 H112       19.2411  -37.5589  -43.3709 H         1 UNK         0.3472 
    113 H113       19.3981  -36.3594  -44.6253 H         1 UNK         0.3472 
    114 H114       19.4671  -33.2963  -43.6445 H         1 UNK         0.0970 
    115 H115       19.5408  -34.4248  -44.9542 H         1 UNK         0.0970 
    116 H116       21.5050  -30.3250  -45.0464 H         1 UNK         0.0612 
    117 H117       21.4428  -31.2074  -43.5432 H         1 UNK         0.0612 
@<TRIPOS>BOND
     1    1    2 1    
     2    1   62 1    
     3    1   63 1    
     4    1   64 1    
     5    2    3 2    
     6    2    4 am   BACKBONE|DICT|INTERRES
     7    4    5 1    
     8    4   65 1    
     9    5    6 1    
    10    5   25 1    
    11    5   66 1    
    12    6    7 1    
    13    6   67 1    
    14    6   68 1    
    15    7    8 1    
    16    8    9 1    
    17    8   69 1    
    18    8   70 1    
    19    9   10 ar   
    20    9   14 ar   
    21   10   11 ar   
    22   10   71 1    
    23   11   12 ar   
    24   11   61 1    
    25   12   13 ar   
    26   12   72 1    
    27   13   14 ar   
    28   13   15 1    
    29   14   73 1    
    30   15   16 1    
    31   15   74 1    
    32   15   75 1    
    33   16   17 1    
    34   17   18 1    
    35   17   76 1    
    36   17   77 1    
    37   18   19 1    
    38   18   27 1    
    39   18   78 1    
    40   19   20 am   BACKBONE|DICT|INTERRES
    41   19   79 1    
    42   20   21 2    
    43   20   22 1    
    44   22   23 1    
    45   22   24 1    
    46   22   80 1    
    47   23   81 1    
    48   23   82 1    
    49   23   83 1    
    50   24   25 am   BACKBONE|DICT|INTERRES
    51   24   84 1    
    52   25   26 2    
    53   27   28 2    
    54   27   29 am   BACKBONE|DICT|INTERRES
    55   29   30 1    
    56   29   85 1    
    57   30   31 1    
    58   30   32 1    
    59   30   86 1    
    60   31   87 1    
    61   31   88 1    
    62   31   89 1    
    63   32   33 2    
    64   32   34 am   BACKBONE|DICT|INTERRES
    65   34   35 1    
    66   34   90 1    
    67   35   36 1    
    68   35   37 1    
    69   35   91 1    
    70   36   92 1    
    71   36   93 1    
    72   36   94 1    
    73   37   38 2    
    74   37   39 am   BACKBONE|DICT|INTERRES
    75   39   40 1    
    76   39   95 1    
    77   40   41 1    
    78   40   42 1    
    79   40   96 1    
    80   41   97 1    
    81   41   98 1    
    82   41   99 1    
    83   42   43 2    
    84   42   44 am   BACKBONE|DICT|INTERRES
    85   44   45 1    
    86   44  100 1    
    87   45   46 1    
    88   45   47 1    
    89   45  101 1    
    90   46  102 1    
    91   46  103 1    
    92   46  104 1    
    93   47   48 2    
    94   47   49 am   BACKBONE|DICT|INTERRES
    95   49   50 1    
    96   49  105 1    
    97   50   51 1    
    98   50   52 1    
    99   50  106 1    
   100   51  107 1    
   101   51  108 1    
   102   51  109 1    
   103   52   53 2    
   104   52   54 am   BACKBONE|DICT|INTERRES
   105   54   55 1    
   106   54  110 1    
   107   55   56 1    
   108   55   59 1    
   109   55  111 1    
   110   56   57 am   BACKBONE|DICT|INTERRES
   111   56   58 2    
   112   57  112 1    
   113   57  113 1    
   114   59   60 1    
   115   59  114 1    
   116   59  115 1    
   117   60   61 1    
   118   61  116 1    
   119   61  117 1    
@<TRIPOS>SUBSTRUCTURE
     1 UNK         1 GROUP             0       ****    0 ROOT    
