@<TRIPOS>MOLECULE
3R8
117   119    1
SMALL
USER_CHARGES


@<TRIPOS>ATOM
      1 CA         17.0205  -25.4642  -50.2948 C.3       0 UNK        -0.2013 
      2 C          18.1501  -26.0252  -49.4438 C.2       0 UNK         0.4866 
      3 O          19.3149  -25.9292  -49.8322 O.2       0 UNK        -0.5176 
      4 N          17.8160  -26.6171  -48.2902 N.am      1 UNK        -0.4884 
      5 CA         18.7773  -27.1462  -47.3169 C.3       1 UNK         0.0853 
      6 C6         18.0965  -28.1487  -46.3490 C.3       10 UNK        -0.0849 
      7 S7         19.2628  -29.4024  -45.7228 S.3       10 UNK        -0.2776 
      8 C8         18.1574  -30.4539  -44.7297 C.3       10 UNK         0.0316 
      9 C9         18.0913  -29.9851  -43.2844 C.ar      10 UNK        -0.0863 
     10 C10        19.0008  -30.4786  -42.3434 C.ar      10 UNK        -0.1009 
     11 C11        18.9469  -30.0552  -41.0114 C.ar      10 UNK        -0.0712 
     12 C12        17.9699  -29.1358  -40.6218 C.ar      10 UNK        -0.0894 
     13 C13        17.1006  -28.5834  -41.5699 C.ar      10 UNK        -0.0745 
     14 C14        17.1429  -29.0366  -42.8919 C.ar      10 UNK        -0.0972 
     15 C15        16.2002  -27.4168  -41.1917 C.3       10 UNK         0.0209 
     16 S16        17.1613  -26.0065  -40.5347 S.3       10 UNK        -0.2568 
     17 C17        18.2785  -25.5440  -41.9150 C.3       10 UNK        -0.0983 
     18 CA         19.6020  -26.3655  -42.0290 C.3       3 UNK         0.0876 
     19 N          20.2359  -26.2370  -43.3398 N.am      3 UNK        -0.4424 
     20 C          20.8588  -25.1589  -43.8323 C.2       2 UNK         0.4918 
     21 O          20.9588  -24.0817  -43.2441 O.2       2 UNK        -0.4875 
     22 CA         21.4634  -25.3125  -45.2411 C.3       2 UNK         0.0481 
     23 CB         22.9199  -25.7940  -45.1438 C.3       2 UNK        -0.1831 
     24 N          20.7017  -26.2329  -46.0945 N.am      2 UNK        -0.4498 
     25 C          19.4593  -25.9990  -46.5416 C.2       1 UNK         0.5027 
     26 O          18.8409  -24.9522  -46.3278 O.2       1 UNK        -0.4969 
     27 C          20.6217  -26.2262  -40.8744 C.2       3 UNK         0.5005 
     28 O          21.7699  -26.6497  -41.0349 O.2       3 UNK        -0.5279 
     29 N          20.1846  -25.7069  -39.7180 N.am      4 UNK        -0.4463 
     30 CA         20.9008  -25.6650  -38.4384 C.3       4 UNK         0.0283 
     31 CB         22.0987  -24.6894  -38.5026 C.3       4 UNK        -0.1875 
     32 C          21.2651  -27.0923  -37.9875 C.2       4 UNK         0.4949 
     33 O          20.3747  -27.8296  -37.5647 O.2       4 UNK        -0.5039 
     34 N          22.5406  -27.4653  -38.1289 N.am      5 UNK        -0.4663 
     35 CA         23.0495  -28.8262  -37.9564 C.3       5 UNK         0.0242 
     36 CB         23.7370  -28.9426  -36.5831 C.3       5 UNK        -0.1982 
     37 C          23.9832  -29.2123  -39.1198 C.2       5 UNK         0.5017 
     38 O          24.8304  -30.0890  -38.9461 O.2       5 UNK        -0.5012 
     39 N          23.8331  -28.5482  -40.2742 N.am      6 UNK        -0.4439 
     40 CA         24.6354  -28.7582  -41.4786 C.3       6 UNK         0.0297 
     41 CB         24.9348  -27.3788  -42.0976 C.3       6 UNK        -0.2006 
     42 C          23.9070  -29.6753  -42.4771 C.2       6 UNK         0.4892 
     43 O          22.8071  -30.1597  -42.1973 O.2       6 UNK        -0.5089 
     44 N          24.5444  -29.8835  -43.6391 N.am      7 UNK        -0.4243 
     45 CA         24.0510  -30.6392  -44.7947 C.3       7 UNK         0.0196 
     46 CB         22.9055  -29.8672  -45.4884 C.3       7 UNK        -0.2007 
     47 C          23.7047  -32.0921  -44.4220 C.2       7 UNK         0.5020 
     48 O          24.6020  -32.8331  -44.0172 O.2       7 UNK        -0.5147 
     49 N          22.4256  -32.4733  -44.5448 N.am      8 UNK        -0.4734 
     50 CA         21.9123  -33.8184  -44.2624 C.3       8 UNK         0.0238 
     51 CB         20.4281  -33.8886  -44.6551 C.3       8 UNK        -0.1912 
     52 C          22.0960  -34.2807  -42.8055 C.2       8 UNK         0.5038 
     53 O          22.1362  -35.4893  -42.5701 O.2       8 UNK        -0.5046 
     54 N          22.2103  -33.3319  -41.8665 N.am      9 UNK        -0.4200 
     55 CA         22.4919  -33.6074  -40.4495 C.3       9 UNK         0.0839 
     56 C          24.0032  -33.8258  -40.1437 C.2       9 UNK         0.5513 
     57 N          24.9157  -33.6657  -41.0967 N.am      9 UNK        -0.7519 
     58 O          24.3543  -34.1665  -39.0171 O.2       9 UNK        -0.4960 
     59 C59        21.8733  -32.5425  -39.5078 C.3       10 UNK        -0.0876 
     60 S60        20.0844  -32.2924  -39.7938 S.3       10 UNK        -0.2414 
     61 C61        20.0185  -30.4888  -40.0236 C.3       10 UNK         0.0169 
     62 H62        17.1548  -24.3922  -50.4360 H         1 UNK         0.0903 
     63 H63        17.0174  -25.9394  -51.2753 H         1 UNK         0.0903 
     64 H64        16.0450  -25.6260  -49.8368 H         1 UNK         0.0903 
     65 H65        16.8472  -26.6317  -48.0046 H         1 UNK         0.3096 
     66 H66        19.5458  -27.6748  -47.8866 H         1 UNK         0.1121 
     67 H67        17.3057  -28.6904  -46.8712 H         1 UNK         0.0849 
     68 H68        17.6098  -27.6391  -45.5151 H         1 UNK         0.0849 
     69 H69        17.1594  -30.4782  -45.1700 H         1 UNK         0.0865 
     70 H70        18.5218  -31.4799  -44.7692 H         1 UNK         0.0865 
     71 H71        19.7707  -31.1738  -42.6486 H         1 UNK         0.1346 
     72 H72        17.9511  -28.7708  -39.6035 H         1 UNK         0.1412 
     73 H73        16.4669  -28.6199  -43.6258 H         1 UNK         0.1426 
     74 H74        15.4882  -27.7465  -40.4342 H         1 UNK         0.0716 
     75 H75        15.6122  -27.0784  -42.0462 H         1 UNK         0.0716 
     76 H76        18.5068  -24.4804  -41.8283 H         1 UNK         0.0695 
     77 H77        17.7083  -25.6445  -42.8400 H         1 UNK         0.0695 
     78 H78        19.3482  -27.4176  -42.0095 H         1 UNK         0.0983 
     79 H79        20.2417  -27.0778  -43.8981 H         1 UNK         0.3095 
     80 H80        21.4595  -24.3293  -45.7161 H         1 UNK         0.0454 
     81 H81        22.9899  -26.7760  -44.6759 H         1 UNK         0.0851 
     82 H82        23.5171  -25.1066  -44.5434 H         1 UNK         0.0851 
     83 H83        23.3878  -25.8537  -46.1263 H         1 UNK         0.0851 
     84 H84        21.1345  -27.1203  -46.3082 H         1 UNK         0.2976 
     85 H85        19.2044  -25.4530  -39.6786 H         1 UNK         0.3116 
     86 H86        20.1989  -25.2771  -37.6987 H         1 UNK         0.0646 
     87 H87        22.8225  -24.9577  -39.2724 H         1 UNK         0.0847 
     88 H88        22.6263  -24.6529  -37.5485 H         1 UNK         0.0847 
     89 H89        21.7602  -23.6758  -38.7172 H         1 UNK         0.0847 
     90 H90        23.1951  -26.7923  -38.5038 H         1 UNK         0.3040 
     91 H91        22.2225  -29.5387  -37.9864 H         1 UNK         0.1015 
     92 H92        24.6058  -28.2875  -36.5126 H         1 UNK         0.0786 
     93 H93        24.0778  -29.9620  -36.3977 H         1 UNK         0.0786 
     94 H94        23.0530  -28.6810  -35.7757 H         1 UNK         0.0786 
     95 H95        23.0468  -27.9101  -40.3863 H         1 UNK         0.3172 
     96 H96        25.5840  -29.2329  -41.2199 H         1 UNK         0.0595 
     97 H97        25.6097  -27.4540  -42.9503 H         1 UNK         0.0839 
     98 H98        25.4125  -26.7179  -41.3744 H         1 UNK         0.0839 
     99 H99        24.0254  -26.8868  -42.4428 H         1 UNK         0.0839 
    100 H100       25.4670  -29.4870  -43.7483 H         1 UNK         0.2998 
    101 H101       24.8785  -30.7032  -45.5028 H         1 UNK         0.0822 
    102 H102       22.5261  -30.4067  -46.3574 H         1 UNK         0.0787 
    103 H103       22.0691  -29.6832  -44.8138 H         1 UNK         0.0787 
    104 H104       23.2552  -28.9005  -45.8491 H         1 UNK         0.0787 
    105 H105       21.7559  -31.7856  -44.8586 H         1 UNK         0.3055 
    106 H106       22.4683  -34.5164  -44.8923 H         1 UNK         0.1106 
    107 H107       20.0531  -34.9094  -44.5688 H         1 UNK         0.0828 
    108 H108       19.8130  -33.2656  -44.0061 H         1 UNK         0.0828 
    109 H109       20.2675  -33.5726  -45.6861 H         1 UNK         0.0828 
    110 H110       22.2047  -32.3573  -42.1416 H         1 UNK         0.2931 
    111 H111       22.0083  -34.5529  -40.1957 H         1 UNK         0.0412 
    112 H112       24.6525  -33.3983  -42.0384 H         1 UNK         0.3472 
    113 H113       25.8865  -33.8185  -40.8746 H         1 UNK         0.3472 
    114 H114       22.4109  -31.6020  -39.6221 H         1 UNK         0.0970 
    115 H115       22.0039  -32.8358  -38.4646 H         1 UNK         0.0970 
    116 H116       19.8612  -30.0276  -39.0482 H         1 UNK         0.0612 
    117 H117       20.9709  -30.1078  -40.3889 H         1 UNK         0.0612 
@<TRIPOS>BOND
     1    1    2 1    
     2    1   62 1    
     3    1   63 1    
     4    1   64 1    
     5    2    3 2    
     6    2    4 am   BACKBONE|DICT|INTERRES
     7    4    5 1    
     8    4   65 1    
     9    5    6 1    
    10    5   25 1    
    11    5   66 1    
    12    6    7 1    
    13    6   67 1    
    14    6   68 1    
    15    7    8 1    
    16    8    9 1    
    17    8   69 1    
    18    8   70 1    
    19    9   10 ar   
    20    9   14 ar   
    21   10   11 ar   
    22   10   71 1    
    23   11   12 ar   
    24   11   61 1    
    25   12   13 ar   
    26   12   72 1    
    27   13   14 ar   
    28   13   15 1    
    29   14   73 1    
    30   15   16 1    
    31   15   74 1    
    32   15   75 1    
    33   16   17 1    
    34   17   18 1    
    35   17   76 1    
    36   17   77 1    
    37   18   19 1    
    38   18   27 1    
    39   18   78 1    
    40   19   20 am   BACKBONE|DICT|INTERRES
    41   19   79 1    
    42   20   21 2    
    43   20   22 1    
    44   22   23 1    
    45   22   24 1    
    46   22   80 1    
    47   23   81 1    
    48   23   82 1    
    49   23   83 1    
    50   24   25 am   BACKBONE|DICT|INTERRES
    51   24   84 1    
    52   25   26 2    
    53   27   28 2    
    54   27   29 am   BACKBONE|DICT|INTERRES
    55   29   30 1    
    56   29   85 1    
    57   30   31 1    
    58   30   32 1    
    59   30   86 1    
    60   31   87 1    
    61   31   88 1    
    62   31   89 1    
    63   32   33 2    
    64   32   34 am   BACKBONE|DICT|INTERRES
    65   34   35 1    
    66   34   90 1    
    67   35   36 1    
    68   35   37 1    
    69   35   91 1    
    70   36   92 1    
    71   36   93 1    
    72   36   94 1    
    73   37   38 2    
    74   37   39 am   BACKBONE|DICT|INTERRES
    75   39   40 1    
    76   39   95 1    
    77   40   41 1    
    78   40   42 1    
    79   40   96 1    
    80   41   97 1    
    81   41   98 1    
    82   41   99 1    
    83   42   43 2    
    84   42   44 am   BACKBONE|DICT|INTERRES
    85   44   45 1    
    86   44  100 1    
    87   45   46 1    
    88   45   47 1    
    89   45  101 1    
    90   46  102 1    
    91   46  103 1    
    92   46  104 1    
    93   47   48 2    
    94   47   49 am   BACKBONE|DICT|INTERRES
    95   49   50 1    
    96   49  105 1    
    97   50   51 1    
    98   50   52 1    
    99   50  106 1    
   100   51  107 1    
   101   51  108 1    
   102   51  109 1    
   103   52   53 2    
   104   52   54 am   BACKBONE|DICT|INTERRES
   105   54   55 1    
   106   54  110 1    
   107   55   56 1    
   108   55   59 1    
   109   55  111 1    
   110   56   57 am   BACKBONE|DICT|INTERRES
   111   56   58 2    
   112   57  112 1    
   113   57  113 1    
   114   59   60 1    
   115   59  114 1    
   116   59  115 1    
   117   60   61 1    
   118   61  116 1    
   119   61  117 1    
@<TRIPOS>SUBSTRUCTURE
     1 UNK         1 GROUP             0       ****    0 ROOT    
