@<TRIPOS>MOLECULE
3R8
117   119    1
SMALL
USER_CHARGES


@<TRIPOS>ATOM
      1 CA         13.2840  -22.7544  -43.8389 C.3       0 UNK        -0.2013 
      2 C          14.5572  -23.4125  -44.3496 C.2       0 UNK         0.4866 
      3 O          15.3249  -22.7793  -45.0754 O.2       0 UNK        -0.5176 
      4 N          14.7824  -24.6806  -43.9847 N.am      1 UNK        -0.4884 
      5 CA         15.9767  -25.4547  -44.3404 C.3       1 UNK         0.0853 
      6 C6         15.7837  -26.9633  -44.0601 C.3       10 UNK        -0.0849 
      7 S7         14.5428  -27.7115  -45.1684 S.3       10 UNK        -0.2776 
      8 C8         14.5961  -29.4646  -44.6574 C.3       10 UNK         0.0316 
      9 C9         16.0082  -30.0410  -44.6478 C.ar      10 UNK        -0.0863 
     10 C10        16.5158  -30.6330  -43.4867 C.ar      10 UNK        -0.1009 
     11 C11        17.8208  -31.1334  -43.4562 C.ar      10 UNK        -0.0712 
     12 C12        18.6211  -31.0395  -44.5980 C.ar      10 UNK        -0.0894 
     13 C13        18.1305  -30.4372  -45.7605 C.ar      10 UNK        -0.0745 
     14 C14        16.8176  -29.9593  -45.7858 C.ar      10 UNK        -0.0972 
     15 C15        19.0185  -30.2811  -46.9859 C.3       10 UNK         0.0209 
     16 S16        19.7546  -28.6156  -47.0698 S.3       10 UNK        -0.2568 
     17 C17        21.0775  -28.7519  -45.8236 C.3       10 UNK        -0.0983 
     18 CA         21.6534  -27.3780  -45.4033 C.3       3 UNK         0.0876 
     19 N          20.6490  -26.5259  -44.7602 N.am      3 UNK        -0.4424 
     20 C          20.8081  -25.2188  -44.5109 C.2       2 UNK         0.4918 
     21 O          21.7936  -24.5742  -44.8735 O.2       2 UNK        -0.4875 
     22 CA         19.6689  -24.5200  -43.7505 C.3       2 UNK         0.0481 
     23 CB         19.7830  -22.9814  -43.7700 C.3       2 UNK        -0.1831 
     24 N          18.3712  -24.9423  -44.2794 N.am      2 UNK        -0.4498 
     25 C          17.2213  -24.9330  -43.5940 C.2       1 UNK         0.5027 
     26 O          17.1234  -24.5723  -42.4177 O.2       1 UNK        -0.4969 
     27 C          22.8421  -27.5770  -44.4451 C.2       3 UNK         0.5005 
     28 O          22.6449  -28.1264  -43.3594 O.2       3 UNK        -0.5279 
     29 N          24.0355  -27.1116  -44.8435 N.am      4 UNK        -0.4463 
     30 CA         25.3413  -27.2112  -44.1659 C.3       4 UNK         0.0283 
     31 CB         25.7800  -28.6837  -44.0466 C.3       4 UNK        -0.1875 
     32 C          25.4685  -26.4968  -42.8023 C.2       4 UNK         0.4949 
     33 O          26.5698  -26.0636  -42.4649 O.2       4 UNK        -0.5039 
     34 N          24.3669  -26.3991  -42.0460 N.am      5 UNK        -0.4663 
     35 CA         24.2184  -25.8359  -40.6951 C.3       5 UNK         0.0242 
     36 CB         24.6339  -24.3501  -40.6527 C.3       5 UNK        -0.1982 
     37 C          24.8918  -26.6713  -39.5854 C.2       5 UNK         0.5017 
     38 O          24.9672  -26.2132  -38.4443 O.2       5 UNK        -0.5012 
     39 N          25.3330  -27.8873  -39.9220 N.am      6 UNK        -0.4439 
     40 CA         25.9337  -28.8881  -39.0481 C.3       6 UNK         0.0297 
     41 CB         27.3701  -28.4820  -38.6673 C.3       6 UNK        -0.2006 
     42 C          25.9289  -30.2197  -39.8067 C.2       6 UNK         0.4892 
     43 O          25.9047  -30.2090  -41.0402 O.2       6 UNK        -0.5089 
     44 N          25.9530  -31.3336  -39.0620 N.am      7 UNK        -0.4243 
     45 CA         26.0081  -32.7394  -39.5032 C.3       7 UNK         0.0196 
     46 CB         27.3000  -33.0243  -40.2943 C.3       7 UNK        -0.2007 
     47 C          24.7741  -33.2545  -40.2725 C.2       7 UNK         0.5020 
     48 O          24.3820  -34.4047  -40.0666 O.2       7 UNK        -0.5147 
     49 N          24.1830  -32.4201  -41.1365 N.am      8 UNK        -0.4734 
     50 CA         22.9807  -32.7029  -41.9238 C.3       8 UNK         0.0238 
     51 CB         22.6566  -31.4897  -42.8107 C.3       8 UNK        -0.1912 
     52 C          21.7823  -33.0580  -41.0278 C.2       8 UNK         0.5038 
     53 O          21.4731  -32.3029  -40.1030 O.2       8 UNK        -0.5046 
     54 N          21.1525  -34.2031  -41.3175 N.am      9 UNK        -0.4200 
     55 CA         20.0626  -34.8188  -40.5393 C.3       9 UNK         0.0839 
     56 C          20.4838  -35.3392  -39.1290 C.2       9 UNK         0.5513 
     57 N          21.7676  -35.4215  -38.7968 N.am      9 UNK        -0.7519 
     58 O          19.6308  -35.7128  -38.3277 O.2       9 UNK        -0.4960 
     59 C59        18.7657  -33.9581  -40.4916 C.3       10 UNK        -0.0876 
     60 S60        18.1140  -33.5468  -42.1473 S.3       10 UNK        -0.2414 
     61 C61        18.3746  -31.7485  -42.1813 C.3       10 UNK         0.0169 
     62 H62        12.6655  -22.4331  -44.6766 H         1 UNK         0.0903 
     63 H63        12.6936  -23.4317  -43.2220 H         1 UNK         0.0903 
     64 H64        13.5295  -21.8776  -43.2402 H         1 UNK         0.0903 
     65 H65        14.1231  -25.1505  -43.3809 H         1 UNK         0.3096 
     66 H66        16.1486  -25.3221  -45.4114 H         1 UNK         0.1121 
     67 H67        15.4919  -27.1366  -43.0223 H         1 UNK         0.0849 
     68 H68        16.7274  -27.4926  -44.2050 H         1 UNK         0.0849 
     69 H69        14.1357  -29.5524  -43.6721 H         1 UNK         0.0865 
     70 H70        13.9777  -30.0516  -45.3377 H         1 UNK         0.0865 
     71 H71        15.8997  -30.6981  -42.6000 H         1 UNK         0.1346 
     72 H72        19.6322  -31.4210  -44.5752 H         1 UNK         0.1412 
     73 H73        16.4360  -29.4896  -46.6824 H         1 UNK         0.1426 
     74 H74        18.4282  -30.4508  -47.8875 H         1 UNK         0.0716 
     75 H75        19.8082  -31.0342  -46.9926 H         1 UNK         0.0716 
     76 H76        21.8619  -29.3850  -46.2436 H         1 UNK         0.0695 
     77 H77        20.6951  -29.2778  -44.9484 H         1 UNK         0.0695 
     78 H78        22.0061  -26.8683  -46.3028 H         1 UNK         0.0983 
     79 H79        19.8296  -26.9973  -44.4074 H         1 UNK         0.3095 
     80 H80        19.7515  -24.8540  -42.7141 H         1 UNK         0.0454 
     81 H81        19.7151  -22.5878  -44.7846 H         1 UNK         0.0851 
     82 H82        20.7356  -22.6524  -43.3530 H         1 UNK         0.0851 
     83 H83        18.9969  -22.5142  -43.1768 H         1 UNK         0.0851 
     84 H84        18.3735  -25.2592  -45.2404 H         1 UNK         0.2976 
     85 H85        24.0631  -26.6136  -45.7234 H         1 UNK         0.3116 
     86 H86        26.0508  -26.7147  -44.8300 H         1 UNK         0.0646 
     87 H87        25.0935  -29.2642  -43.4304 H         1 UNK         0.0847 
     88 H88        25.8366  -29.1620  -45.0242 H         1 UNK         0.0847 
     89 H89        26.7673  -28.7643  -43.5892 H         1 UNK         0.0847 
     90 H90        23.5462  -26.8813  -42.4112 H         1 UNK         0.3040 
     91 H91        23.1498  -25.8781  -40.4786 H         1 UNK         0.1015 
     92 H92        24.3601  -23.8951  -39.7000 H         1 UNK         0.0786 
     93 H93        24.1394  -23.7772  -41.4373 H         1 UNK         0.0786 
     94 H94        25.7104  -24.2246  -40.7709 H         1 UNK         0.0786 
     95 H95        25.2224  -28.2009  -40.8793 H         1 UNK         0.3172 
     96 H96        25.3219  -28.9875  -38.1492 H         1 UNK         0.0595 
     97 H97        27.9962  -28.3502  -39.5508 H         1 UNK         0.0839 
     98 H98        27.8416  -29.2420  -38.0430 H         1 UNK         0.0839 
     99 H99        27.3875  -27.5489  -38.1041 H         1 UNK         0.0839 
    100 H100       25.9348  -31.2134  -38.0582 H         1 UNK         0.2998 
    101 H101       26.0566  -33.3270  -38.5848 H         1 UNK         0.0822 
    102 H102       27.3857  -34.0861  -40.5295 H         1 UNK         0.0787 
    103 H103       27.3283  -32.4814  -41.2396 H         1 UNK         0.0787 
    104 H104       28.1851  -32.7471  -39.7217 H         1 UNK         0.0787 
    105 H105       24.6096  -31.5040  -41.2503 H         1 UNK         0.3055 
    106 H106       23.2086  -33.5523  -42.5712 H         1 UNK         0.1106 
    107 H107       23.4838  -31.2490  -43.4784 H         1 UNK         0.0828 
    108 H108       21.7836  -31.6825  -43.4344 H         1 UNK         0.0828 
    109 H109       22.4407  -30.6024  -42.2138 H         1 UNK         0.0828 
    110 H110       21.4885  -34.7588  -42.0904 H         1 UNK         0.2931 
    111 H111       19.8134  -35.7265  -41.0903 H         1 UNK         0.0412 
    112 H112       22.4978  -35.1102  -39.4263 H         1 UNK         0.3472 
    113 H113       22.0141  -35.7751  -37.8860 H         1 UNK         0.3472 
    114 H114       17.9741  -34.4980  -39.9690 H         1 UNK         0.0970 
    115 H115       18.9296  -33.0479  -39.9129 H         1 UNK         0.0970 
    116 H116       19.4398  -31.5315  -42.0948 H         1 UNK         0.0612 
    117 H117       17.8960  -31.2965  -41.3110 H         1 UNK         0.0612 
@<TRIPOS>BOND
     1    1    2 1    
     2    1   62 1    
     3    1   63 1    
     4    1   64 1    
     5    2    3 2    
     6    2    4 am   BACKBONE|DICT|INTERRES
     7    4    5 1    
     8    4   65 1    
     9    5    6 1    
    10    5   25 1    
    11    5   66 1    
    12    6    7 1    
    13    6   67 1    
    14    6   68 1    
    15    7    8 1    
    16    8    9 1    
    17    8   69 1    
    18    8   70 1    
    19    9   10 ar   
    20    9   14 ar   
    21   10   11 ar   
    22   10   71 1    
    23   11   12 ar   
    24   11   61 1    
    25   12   13 ar   
    26   12   72 1    
    27   13   14 ar   
    28   13   15 1    
    29   14   73 1    
    30   15   16 1    
    31   15   74 1    
    32   15   75 1    
    33   16   17 1    
    34   17   18 1    
    35   17   76 1    
    36   17   77 1    
    37   18   19 1    
    38   18   27 1    
    39   18   78 1    
    40   19   20 am   BACKBONE|DICT|INTERRES
    41   19   79 1    
    42   20   21 2    
    43   20   22 1    
    44   22   23 1    
    45   22   24 1    
    46   22   80 1    
    47   23   81 1    
    48   23   82 1    
    49   23   83 1    
    50   24   25 am   BACKBONE|DICT|INTERRES
    51   24   84 1    
    52   25   26 2    
    53   27   28 2    
    54   27   29 am   BACKBONE|DICT|INTERRES
    55   29   30 1    
    56   29   85 1    
    57   30   31 1    
    58   30   32 1    
    59   30   86 1    
    60   31   87 1    
    61   31   88 1    
    62   31   89 1    
    63   32   33 2    
    64   32   34 am   BACKBONE|DICT|INTERRES
    65   34   35 1    
    66   34   90 1    
    67   35   36 1    
    68   35   37 1    
    69   35   91 1    
    70   36   92 1    
    71   36   93 1    
    72   36   94 1    
    73   37   38 2    
    74   37   39 am   BACKBONE|DICT|INTERRES
    75   39   40 1    
    76   39   95 1    
    77   40   41 1    
    78   40   42 1    
    79   40   96 1    
    80   41   97 1    
    81   41   98 1    
    82   41   99 1    
    83   42   43 2    
    84   42   44 am   BACKBONE|DICT|INTERRES
    85   44   45 1    
    86   44  100 1    
    87   45   46 1    
    88   45   47 1    
    89   45  101 1    
    90   46  102 1    
    91   46  103 1    
    92   46  104 1    
    93   47   48 2    
    94   47   49 am   BACKBONE|DICT|INTERRES
    95   49   50 1    
    96   49  105 1    
    97   50   51 1    
    98   50   52 1    
    99   50  106 1    
   100   51  107 1    
   101   51  108 1    
   102   51  109 1    
   103   52   53 2    
   104   52   54 am   BACKBONE|DICT|INTERRES
   105   54   55 1    
   106   54  110 1    
   107   55   56 1    
   108   55   59 1    
   109   55  111 1    
   110   56   57 am   BACKBONE|DICT|INTERRES
   111   56   58 2    
   112   57  112 1    
   113   57  113 1    
   114   59   60 1    
   115   59  114 1    
   116   59  115 1    
   117   60   61 1    
   118   61  116 1    
   119   61  117 1    
@<TRIPOS>SUBSTRUCTURE
     1 UNK         1 GROUP             0       ****    0 ROOT    
