@<TRIPOS>MOLECULE
3R8
117   119    1
SMALL
USER_CHARGES


@<TRIPOS>ATOM
      1 CA         18.0190  -24.1910  -49.1585 C.3       0 UNK        -0.2013 
      2 C          18.7604  -25.3121  -48.4458 C.2       0 UNK         0.4866 
      3 O          19.9637  -25.4746  -48.6472 O.2       0 UNK        -0.5176 
      4 N          18.0528  -26.0842  -47.6091 N.am      1 UNK        -0.4884 
      5 CA         18.6044  -27.2104  -46.8389 C.3       1 UNK         0.0853 
      6 C6         17.4993  -28.2439  -46.4891 C.3       10 UNK        -0.0849 
      7 S7         18.0866  -29.9649  -46.6474 S.3       10 UNK        -0.2776 
      8 C8         16.8600  -30.8735  -45.6534 C.3       10 UNK         0.0316 
      9 C9         17.0840  -30.6646  -44.1640 C.ar      10 UNK        -0.0863 
     10 C10        18.0967  -31.3644  -43.5039 C.ar      10 UNK        -0.1009 
     11 C11        18.3365  -31.1538  -42.1431 C.ar      10 UNK        -0.0712 
     12 C12        17.5441  -30.2452  -41.4364 C.ar      10 UNK        -0.0894 
     13 C13        16.5439  -29.5229  -42.0930 C.ar      10 UNK        -0.0745 
     14 C14        16.3029  -29.7523  -43.4503 C.ar      10 UNK        -0.0972 
     15 C15        15.7587  -28.4492  -41.3602 C.3       10 UNK         0.0209 
     16 S16        16.4444  -26.7998  -41.7187 S.3       10 UNK        -0.2568 
     17 C17        17.8617  -26.7042  -40.5702 C.3       10 UNK        -0.0983 
     18 CA         19.2367  -27.0939  -41.1864 C.3       3 UNK         0.0876 
     19 N          19.5532  -26.4305  -42.4598 N.am      3 UNK        -0.4424 
     20 C          19.6516  -25.1241  -42.7263 C.2       2 UNK         0.4918 
     21 O          19.5022  -24.2393  -41.8825 O.2       2 UNK        -0.4875 
     22 CA         19.9906  -24.7189  -44.1722 C.3       2 UNK         0.0481 
     23 CB         21.5149  -24.7268  -44.3962 C.3       2 UNK        -0.1831 
     24 N          19.2887  -25.4654  -45.2289 N.am      2 UNK        -0.4498 
     25 C          19.3978  -26.7553  -45.5888 C.2       1 UNK         0.5027 
     26 O          20.0889  -27.5724  -44.9805 O.2       1 UNK        -0.4969 
     27 C          20.3503  -26.9616  -40.1230 C.2       3 UNK         0.5005 
     28 O          20.7347  -27.9650  -39.5200 O.2       3 UNK        -0.5279 
     29 N          20.8199  -25.7303  -39.8855 N.am      4 UNK        -0.4463 
     30 CA         21.8468  -25.3706  -38.9076 C.3       4 UNK         0.0283 
     31 CB         21.9049  -23.8390  -38.7900 C.3       4 UNK        -0.1875 
     32 C          23.2308  -25.9302  -39.2730 C.2       4 UNK         0.4949 
     33 O          23.5522  -26.0437  -40.4572 O.2       4 UNK        -0.5039 
     34 N          24.0279  -26.2317  -38.2361 N.am      5 UNK        -0.4663 
     35 CA         25.3813  -26.8066  -38.2974 C.3       5 UNK         0.0242 
     36 CB         26.3787  -25.8012  -38.9131 C.3       5 UNK        -0.1982 
     37 C          25.4077  -28.1840  -38.9905 C.2       5 UNK         0.5017 
     38 O          26.2940  -28.4536  -39.8034 O.2       5 UNK        -0.5012 
     39 N          24.4009  -29.0133  -38.6769 N.am      6 UNK        -0.4439 
     40 CA         24.0872  -30.3444  -39.2178 C.3       6 UNK         0.0297 
     41 CB         25.2363  -31.3473  -38.9986 C.3       6 UNK        -0.2006 
     42 C          23.6255  -30.3423  -40.6857 C.2       6 UNK         0.4892 
     43 O          22.6845  -31.0655  -41.0060 O.2       6 UNK        -0.5089 
     44 N          24.2723  -29.5388  -41.5412 N.am      7 UNK        -0.4243 
     45 CA         23.9799  -29.3323  -42.9624 C.3       7 UNK         0.0196 
     46 CB         22.7030  -28.4750  -43.1145 C.3       7 UNK        -0.2007 
     47 C          23.9432  -30.6625  -43.7420 C.2       7 UNK         0.5020 
     48 O          24.8958  -31.4400  -43.6557 O.2       7 UNK        -0.5147 
     49 N          22.8440  -30.9213  -44.4623 N.am      8 UNK        -0.4734 
     50 CA         22.6046  -32.1493  -45.2266 C.3       8 UNK         0.0238 
     51 CB         21.3703  -31.9450  -46.1202 C.3       8 UNK        -0.1912 
     52 C          22.4494  -33.4190  -44.3652 C.2       8 UNK         0.5038 
     53 O          22.5702  -34.5181  -44.9083 O.2       8 UNK        -0.5046 
     54 N          22.1950  -33.2592  -43.0596 N.am      9 UNK        -0.4200 
     55 CA         22.1227  -34.3531  -42.0789 C.3       9 UNK         0.0839 
     56 C          23.5151  -34.7583  -41.5118 C.2       9 UNK         0.5513 
     57 N          24.6037  -34.0680  -41.8372 N.am      9 UNK        -0.7519 
     58 O          23.6117  -35.7313  -40.7686 O.2       9 UNK        -0.4960 
     59 C59        21.1160  -34.0528  -40.9332 C.3       10 UNK        -0.0876 
     60 S60        19.4371  -33.6446  -41.5281 S.3       10 UNK        -0.2414 
     61 C61        19.5179  -31.8274  -41.4671 C.3       10 UNK         0.0169 
     62 H62        16.9613  -24.1688  -48.8966 H         1 UNK         0.0903 
     63 H63        18.4540  -23.2270  -48.8957 H         1 UNK         0.0903 
     64 H64        18.0976  -24.3170  -50.2381 H         1 UNK         0.0903 
     65 H65        17.0655  -25.9054  -47.4855 H         1 UNK         0.3096 
     66 H66        19.3362  -27.7010  -47.4854 H         1 UNK         0.1121 
     67 H67        16.6523  -28.1490  -47.1707 H         1 UNK         0.0849 
     68 H68        17.0929  -28.0670  -45.4925 H         1 UNK         0.0849 
     69 H69        15.8527  -30.5706  -45.9439 H         1 UNK         0.0865 
     70 H70        16.9360  -31.9370  -45.8849 H         1 UNK         0.0865 
     71 H71        18.7172  -32.0574  -44.0544 H         1 UNK         0.1346 
     72 H72        17.7424  -30.0573  -40.3899 H         1 UNK         0.1412 
     73 H73        15.5309  -29.1898  -43.9577 H         1 UNK         0.1426 
     74 H74        15.7475  -28.6318  -40.2846 H         1 UNK         0.0716 
     75 H75        14.7172  -28.4755  -41.6841 H         1 UNK         0.0716 
     76 H76        17.6499  -27.3277  -39.6997 H         1 UNK         0.0695 
     77 H77        17.8940  -25.6800  -40.1944 H         1 UNK         0.0695 
     78 H78        19.1989  -28.1521  -41.4405 H         1 UNK         0.0983 
     79 H79        19.7328  -27.0561  -43.2418 H         1 UNK         0.3095 
     80 H80        19.6563  -23.6865  -44.2855 H         1 UNK         0.0454 
     81 H81        21.9375  -25.7271  -44.3050 H         1 UNK         0.0851 
     82 H82        22.0198  -24.0969  -43.6626 H         1 UNK         0.0851 
     83 H83        21.7723  -24.3441  -45.3837 H         1 UNK         0.0851 
     84 H84        18.6597  -24.9073  -45.7887 H         1 UNK         0.2976 
     85 H85        20.4478  -24.9802  -40.4625 H         1 UNK         0.3116 
     86 H86        21.5447  -25.7844  -37.9432 H         1 UNK         0.0646 
     87 H87        20.9439  -23.4265  -38.4821 H         1 UNK         0.0847 
     88 H88        22.6418  -23.5292  -38.0477 H         1 UNK         0.0847 
     89 H89        22.1817  -23.3738  -39.7372 H         1 UNK         0.0847 
     90 H90        23.6660  -26.0787  -37.3039 H         1 UNK         0.3040 
     91 H91        25.6923  -26.9845  -37.2665 H         1 UNK         0.1015 
     92 H92        26.1692  -25.6134  -39.9667 H         1 UNK         0.0786 
     93 H93        27.4010  -26.1759  -38.8483 H         1 UNK         0.0786 
     94 H94        26.3520  -24.8451  -38.3905 H         1 UNK         0.0786 
     95 H95        23.7050  -28.6486  -38.0408 H         1 UNK         0.3172 
     96 H96        23.2369  -30.6968  -38.6315 H         1 UNK         0.0595 
     97 H97        26.1229  -31.0894  -39.5781 H         1 UNK         0.0839 
     98 H98        24.9350  -32.3504  -39.3038 H         1 UNK         0.0839 
     99 H99        25.5235  -31.4003  -37.9486 H         1 UNK         0.0839 
    100 H100       25.0663  -29.0267  -41.1678 H         1 UNK         0.2998 
    101 H101       24.8154  -28.7619  -43.3700 H         1 UNK         0.0822 
    102 H102       22.5289  -28.2122  -44.1580 H         1 UNK         0.0787 
    103 H103       21.8143  -28.9846  -42.7393 H         1 UNK         0.0787 
    104 H104       22.7938  -27.5378  -42.5660 H         1 UNK         0.0787 
    105 H105       22.1048  -30.2322  -44.4675 H         1 UNK         0.3055 
    106 H106       23.4703  -32.3130  -45.8722 H         1 UNK         0.1106 
    107 H107       21.1627  -32.8354  -46.7153 H         1 UNK         0.0828 
    108 H108       20.4784  -31.7307  -45.5325 H         1 UNK         0.0828 
    109 H109       21.5155  -31.1194  -46.8173 H         1 UNK         0.0828 
    110 H110       22.1769  -32.3248  -42.6691 H         1 UNK         0.2931 
    111 H111       21.7481  -35.2393  -42.5947 H         1 UNK         0.0412 
    112 H112       25.4958  -34.3550  -41.4672 H         1 UNK         0.3472 
    113 H113       24.5467  -33.2628  -42.4473 H         1 UNK         0.3472 
    114 H114       21.4834  -33.2495  -40.2931 H         1 UNK         0.0970 
    115 H115       21.0232  -34.9246  -40.2829 H         1 UNK         0.0970 
    116 H116       19.6165  -31.5062  -40.4289 H         1 UNK         0.0612 
    117 H117       20.4128  -31.4887  -41.9848 H         1 UNK         0.0612 
@<TRIPOS>BOND
     1    1    2 1    
     2    1   62 1    
     3    1   63 1    
     4    1   64 1    
     5    2    3 2    
     6    2    4 am   BACKBONE|DICT|INTERRES
     7    4    5 1    
     8    4   65 1    
     9    5    6 1    
    10    5   25 1    
    11    5   66 1    
    12    6    7 1    
    13    6   67 1    
    14    6   68 1    
    15    7    8 1    
    16    8    9 1    
    17    8   69 1    
    18    8   70 1    
    19    9   10 ar   
    20    9   14 ar   
    21   10   11 ar   
    22   10   71 1    
    23   11   12 ar   
    24   11   61 1    
    25   12   13 ar   
    26   12   72 1    
    27   13   14 ar   
    28   13   15 1    
    29   14   73 1    
    30   15   16 1    
    31   15   74 1    
    32   15   75 1    
    33   16   17 1    
    34   17   18 1    
    35   17   76 1    
    36   17   77 1    
    37   18   19 1    
    38   18   27 1    
    39   18   78 1    
    40   19   20 am   BACKBONE|DICT|INTERRES
    41   19   79 1    
    42   20   21 2    
    43   20   22 1    
    44   22   23 1    
    45   22   24 1    
    46   22   80 1    
    47   23   81 1    
    48   23   82 1    
    49   23   83 1    
    50   24   25 am   BACKBONE|DICT|INTERRES
    51   24   84 1    
    52   25   26 2    
    53   27   28 2    
    54   27   29 am   BACKBONE|DICT|INTERRES
    55   29   30 1    
    56   29   85 1    
    57   30   31 1    
    58   30   32 1    
    59   30   86 1    
    60   31   87 1    
    61   31   88 1    
    62   31   89 1    
    63   32   33 2    
    64   32   34 am   BACKBONE|DICT|INTERRES
    65   34   35 1    
    66   34   90 1    
    67   35   36 1    
    68   35   37 1    
    69   35   91 1    
    70   36   92 1    
    71   36   93 1    
    72   36   94 1    
    73   37   38 2    
    74   37   39 am   BACKBONE|DICT|INTERRES
    75   39   40 1    
    76   39   95 1    
    77   40   41 1    
    78   40   42 1    
    79   40   96 1    
    80   41   97 1    
    81   41   98 1    
    82   41   99 1    
    83   42   43 2    
    84   42   44 am   BACKBONE|DICT|INTERRES
    85   44   45 1    
    86   44  100 1    
    87   45   46 1    
    88   45   47 1    
    89   45  101 1    
    90   46  102 1    
    91   46  103 1    
    92   46  104 1    
    93   47   48 2    
    94   47   49 am   BACKBONE|DICT|INTERRES
    95   49   50 1    
    96   49  105 1    
    97   50   51 1    
    98   50   52 1    
    99   50  106 1    
   100   51  107 1    
   101   51  108 1    
   102   51  109 1    
   103   52   53 2    
   104   52   54 am   BACKBONE|DICT|INTERRES
   105   54   55 1    
   106   54  110 1    
   107   55   56 1    
   108   55   59 1    
   109   55  111 1    
   110   56   57 am   BACKBONE|DICT|INTERRES
   111   56   58 2    
   112   57  112 1    
   113   57  113 1    
   114   59   60 1    
   115   59  114 1    
   116   59  115 1    
   117   60   61 1    
   118   61  116 1    
   119   61  117 1    
@<TRIPOS>SUBSTRUCTURE
     1 UNK         1 GROUP             0       ****    0 ROOT    
