@<TRIPOS>MOLECULE
3R8
117   119    1
SMALL
USER_CHARGES


@<TRIPOS>ATOM
      1 CA         14.6611  -23.1037  -43.7573 C.3       0 UNK        -0.2013 
      2 C          15.5434  -23.9329  -44.6781 C.2       0 UNK         0.4866 
      3 O          16.4054  -23.3813  -45.3621 O.2       0 UNK        -0.5176 
      4 N          15.3384  -25.2561  -44.6992 N.am      1 UNK        -0.4884 
      5 CA         16.0999  -26.2133  -45.5144 C.3       1 UNK         0.0853 
      6 C6         15.2855  -27.5036  -45.7945 C.3       10 UNK        -0.0849 
      7 S7         14.6844  -28.3556  -44.2913 S.3       10 UNK        -0.2776 
      8 C8         15.3740  -30.0329  -44.4896 C.3       10 UNK         0.0316 
      9 C9         16.8266  -30.1348  -44.0399 C.ar      10 UNK        -0.0863 
     10 C10        17.1478  -29.9918  -42.6874 C.ar      10 UNK        -0.1009 
     11 C11        18.4652  -30.1351  -42.2429 C.ar      10 UNK        -0.0712 
     12 C12        19.4722  -30.4177  -43.1756 C.ar      10 UNK        -0.0894 
     13 C13        19.1640  -30.5840  -44.5285 C.ar      10 UNK        -0.0745 
     14 C14        17.8407  -30.4302  -44.9565 C.ar      10 UNK        -0.0972 
     15 C15        20.2448  -30.9942  -45.5198 C.3       10 UNK         0.0209 
     16 S16        21.0076  -29.5708  -46.3594 S.3       10 UNK        -0.2568 
     17 C17        22.2962  -29.0463  -45.1780 C.3       10 UNK        -0.0983 
     18 CA         22.1029  -27.5811  -44.7166 C.3       3 UNK         0.0876 
     19 N          20.8855  -27.4346  -43.9245 N.am      3 UNK        -0.4424 
     20 C          20.2780  -26.2834  -43.6224 C.2       2 UNK         0.4918 
     21 O          20.6974  -25.1674  -43.9349 O.2       2 UNK        -0.4875 
     22 CA         18.9434  -26.4220  -42.8701 C.3       2 UNK         0.0481 
     23 CB         18.9217  -25.5307  -41.6174 C.3       2 UNK        -0.1831 
     24 N          17.7566  -26.1410  -43.6858 N.am      2 UNK        -0.4498 
     25 C          17.4970  -26.5400  -44.9439 C.2       1 UNK         0.5027 
     26 O          18.2858  -27.1551  -45.6605 O.2       1 UNK        -0.4969 
     27 C          23.3325  -27.0686  -43.9420 C.2       3 UNK         0.5005 
     28 O          23.9003  -27.8154  -43.1397 O.2       3 UNK        -0.5279 
     29 N          23.7195  -25.8109  -44.2056 N.am      4 UNK        -0.4463 
     30 CA         24.9049  -25.1118  -43.6962 C.3       4 UNK         0.0283 
     31 CB         26.1801  -25.6690  -44.3704 C.3       4 UNK        -0.1875 
     32 C          24.9649  -25.1053  -42.1568 C.2       4 UNK         0.4949 
     33 O          24.1919  -24.3842  -41.5263 O.2       4 UNK        -0.5039 
     34 N          25.8628  -25.9171  -41.5836 N.am      5 UNK        -0.4663 
     35 CA         26.0396  -26.1086  -40.1418 C.3       5 UNK         0.0242 
     36 CB         27.4215  -26.7408  -39.8998 C.3       5 UNK        -0.1982 
     37 C          24.9355  -26.9573  -39.4796 C.2       5 UNK         0.5017 
     38 O          24.9414  -27.0720  -38.2535 O.2       5 UNK        -0.5012 
     39 N          24.0349  -27.5472  -40.2831 N.am      6 UNK        -0.4439 
     40 CA         22.9560  -28.4614  -39.8923 C.3       6 UNK         0.0297 
     41 CB         21.9397  -27.7747  -38.9539 C.3       6 UNK        -0.2006 
     42 C          23.5024  -29.7955  -39.3482 C.2       6 UNK         0.4892 
     43 O          23.0063  -30.3129  -38.3462 O.2       6 UNK        -0.5089 
     44 N          24.5255  -30.3243  -40.0326 N.am      7 UNK        -0.4243 
     45 CA         25.1450  -31.6196  -39.7415 C.3       7 UNK         0.0196 
     46 CB         26.6672  -31.4881  -39.9170 C.3       7 UNK        -0.2007 
     47 C          24.6031  -32.7442  -40.6419 C.2       7 UNK         0.5020 
     48 O          24.7211  -33.9135  -40.2769 O.2       7 UNK        -0.5147 
     49 N          24.0330  -32.3868  -41.8013 N.am      8 UNK        -0.4734 
     50 CA         23.5823  -33.3179  -42.8438 C.3       8 UNK         0.0238 
     51 CB         23.9849  -32.7453  -44.2162 C.3       8 UNK        -0.1912 
     52 C          22.0730  -33.6241  -42.7797 C.2       8 UNK         0.5038 
     53 O          21.5175  -34.1099  -43.7658 O.2       8 UNK        -0.5046 
     54 N          21.4289  -33.3216  -41.6456 N.am      9 UNK        -0.4200 
     55 CA         19.9783  -33.4701  -41.4280 C.3       9 UNK         0.0839 
     56 C          19.4645  -34.9374  -41.3484 C.2       9 UNK         0.5513 
     57 N          20.3249  -35.9383  -41.2045 N.am      9 UNK        -0.7519 
     58 O          18.2605  -35.1701  -41.4168 O.2       9 UNK        -0.4960 
     59 C59        19.4818  -32.6549  -40.2023 C.3       10 UNK        -0.0876 
     60 S60        20.1444  -30.9559  -40.1272 S.3       10 UNK        -0.2414 
     61 C61        18.7638  -29.9494  -40.7566 C.3       10 UNK         0.0169 
     62 H62        15.2733  -22.5720  -43.0293 H         1 UNK         0.0903 
     63 H63        14.1032  -22.3677  -44.3356 H         1 UNK         0.0903 
     64 H64        13.9455  -23.7200  -43.2133 H         1 UNK         0.0903 
     65 H65        14.6167  -25.6661  -44.1211 H         1 UNK         0.3096 
     66 H66        16.2875  -25.7427  -46.4827 H         1 UNK         0.1121 
     67 H67        15.8653  -28.1950  -46.4092 H         1 UNK         0.0849 
     68 H68        14.4119  -27.2506  -46.3971 H         1 UNK         0.0849 
     69 H69        14.7781  -30.7227  -43.8901 H         1 UNK         0.0865 
     70 H70        15.2561  -30.3607  -45.5236 H         1 UNK         0.0865 
     71 H71        16.3622  -29.7697  -41.9778 H         1 UNK         0.1346 
     72 H72        20.4946  -30.5414  -42.8476 H         1 UNK         0.1412 
     73 H73        17.6003  -30.5606  -46.0028 H         1 UNK         0.1426 
     74 H74        19.8075  -31.6447  -46.2788 H         1 UNK         0.0716 
     75 H75        21.0118  -31.5934  -45.0277 H         1 UNK         0.0716 
     76 H76        23.2588  -29.1661  -45.6791 H         1 UNK         0.0695 
     77 H77        22.3165  -29.7185  -44.3191 H         1 UNK         0.0695 
     78 H78        21.9922  -26.9661  -45.6127 H         1 UNK         0.0983 
     79 H79        20.4162  -28.2963  -43.6874 H         1 UNK         0.3095 
     80 H80        18.8481  -27.4532  -42.5351 H         1 UNK         0.0454 
     81 H81        19.7941  -25.7181  -40.9898 H         1 UNK         0.0851 
     82 H82        18.0393  -25.7218  -41.0067 H         1 UNK         0.0851 
     83 H83        18.9295  -24.4713  -41.8771 H         1 UNK         0.0851 
     84 H84        17.0201  -25.6276  -43.2256 H         1 UNK         0.2976 
     85 H85        23.1162  -25.2549  -44.7978 H         1 UNK         0.3116 
     86 H86        24.8044  -24.0684  -43.9993 H         1 UNK         0.0646 
     87 H87        26.3145  -26.7364  -44.1918 H         1 UNK         0.0847 
     88 H88        26.1432  -25.5233  -45.4500 H         1 UNK         0.0847 
     89 H89        27.0735  -25.1546  -44.0130 H         1 UNK         0.0847 
     90 H90        26.4343  -26.4901  -42.1879 H         1 UNK         0.3040 
     91 H91        26.0200  -25.1284  -39.6600 H         1 UNK         0.1015 
     92 H92        27.6199  -26.8542  -38.8329 H         1 UNK         0.0786 
     93 H93        28.2196  -26.1213  -40.3093 H         1 UNK         0.0786 
     94 H94        27.4975  -27.7310  -40.3511 H         1 UNK         0.0786 
     95 H95        24.1374  -27.4155  -41.2876 H         1 UNK         0.3172 
     96 H96        22.4251  -28.7081  -40.8133 H         1 UNK         0.0595 
     97 H97        22.3697  -27.5532  -37.9770 H         1 UNK         0.0839 
     98 H98        21.0731  -28.4135  -38.7830 H         1 UNK         0.0839 
     99 H99        21.5743  -26.8410  -39.3806 H         1 UNK         0.0839 
    100 H100       24.8928  -29.8060  -40.8180 H         1 UNK         0.2998 
    101 H101       24.9477  -31.9046  -38.7057 H         1 UNK         0.0822 
    102 H102       27.1700  -32.4274  -39.6822 H         1 UNK         0.0787 
    103 H103       26.9366  -31.2208  -40.9397 H         1 UNK         0.0787 
    104 H104       27.0775  -30.7275  -39.2523 H         1 UNK         0.0787 
    105 H105       23.9412  -31.4035  -42.0087 H         1 UNK         0.3055 
    106 H106       24.0939  -34.2759  -42.7245 H         1 UNK         0.1106 
    107 H107       25.0588  -32.5658  -44.2706 H         1 UNK         0.0828 
    108 H108       23.7373  -33.4373  -45.0223 H         1 UNK         0.0828 
    109 H109       23.4776  -31.8048  -44.4281 H         1 UNK         0.0828 
    110 H110       21.9555  -32.9249  -40.8819 H         1 UNK         0.2931 
    111 H111       19.4927  -33.0470  -42.3085 H         1 UNK         0.0412 
    112 H112       19.9802  -36.8844  -41.1560 H         1 UNK         0.3472 
    113 H113       21.3142  -35.7571  -41.1467 H         1 UNK         0.3472 
    114 H114       18.3909  -32.6151  -40.1896 H         1 UNK         0.0970 
    115 H115       19.7736  -33.1544  -39.2765 H         1 UNK         0.0970 
    116 H116       17.8778  -30.1677  -40.1583 H         1 UNK         0.0612 
    117 H117       19.0019  -28.8999  -40.5813 H         1 UNK         0.0612 
@<TRIPOS>BOND
     1    1    2 1    
     2    1   62 1    
     3    1   63 1    
     4    1   64 1    
     5    2    3 2    
     6    2    4 am   BACKBONE|DICT|INTERRES
     7    4    5 1    
     8    4   65 1    
     9    5    6 1    
    10    5   25 1    
    11    5   66 1    
    12    6    7 1    
    13    6   67 1    
    14    6   68 1    
    15    7    8 1    
    16    8    9 1    
    17    8   69 1    
    18    8   70 1    
    19    9   10 ar   
    20    9   14 ar   
    21   10   11 ar   
    22   10   71 1    
    23   11   12 ar   
    24   11   61 1    
    25   12   13 ar   
    26   12   72 1    
    27   13   14 ar   
    28   13   15 1    
    29   14   73 1    
    30   15   16 1    
    31   15   74 1    
    32   15   75 1    
    33   16   17 1    
    34   17   18 1    
    35   17   76 1    
    36   17   77 1    
    37   18   19 1    
    38   18   27 1    
    39   18   78 1    
    40   19   20 am   BACKBONE|DICT|INTERRES
    41   19   79 1    
    42   20   21 2    
    43   20   22 1    
    44   22   23 1    
    45   22   24 1    
    46   22   80 1    
    47   23   81 1    
    48   23   82 1    
    49   23   83 1    
    50   24   25 am   BACKBONE|DICT|INTERRES
    51   24   84 1    
    52   25   26 2    
    53   27   28 2    
    54   27   29 am   BACKBONE|DICT|INTERRES
    55   29   30 1    
    56   29   85 1    
    57   30   31 1    
    58   30   32 1    
    59   30   86 1    
    60   31   87 1    
    61   31   88 1    
    62   31   89 1    
    63   32   33 2    
    64   32   34 am   BACKBONE|DICT|INTERRES
    65   34   35 1    
    66   34   90 1    
    67   35   36 1    
    68   35   37 1    
    69   35   91 1    
    70   36   92 1    
    71   36   93 1    
    72   36   94 1    
    73   37   38 2    
    74   37   39 am   BACKBONE|DICT|INTERRES
    75   39   40 1    
    76   39   95 1    
    77   40   41 1    
    78   40   42 1    
    79   40   96 1    
    80   41   97 1    
    81   41   98 1    
    82   41   99 1    
    83   42   43 2    
    84   42   44 am   BACKBONE|DICT|INTERRES
    85   44   45 1    
    86   44  100 1    
    87   45   46 1    
    88   45   47 1    
    89   45  101 1    
    90   46  102 1    
    91   46  103 1    
    92   46  104 1    
    93   47   48 2    
    94   47   49 am   BACKBONE|DICT|INTERRES
    95   49   50 1    
    96   49  105 1    
    97   50   51 1    
    98   50   52 1    
    99   50  106 1    
   100   51  107 1    
   101   51  108 1    
   102   51  109 1    
   103   52   53 2    
   104   52   54 am   BACKBONE|DICT|INTERRES
   105   54   55 1    
   106   54  110 1    
   107   55   56 1    
   108   55   59 1    
   109   55  111 1    
   110   56   57 am   BACKBONE|DICT|INTERRES
   111   56   58 2    
   112   57  112 1    
   113   57  113 1    
   114   59   60 1    
   115   59  114 1    
   116   59  115 1    
   117   60   61 1    
   118   61  116 1    
   119   61  117 1    
@<TRIPOS>SUBSTRUCTURE
     1 UNK         1 GROUP             0       ****    0 ROOT    
