@<TRIPOS>MOLECULE
3R8
117   119    1
SMALL
USER_CHARGES


@<TRIPOS>ATOM
      1 CA         16.5852  -28.4699  -40.9106 C.3       0 UNK        -0.2013 
      2 C          16.0812  -27.3597  -41.8193 C.2       0 UNK         0.4866 
      3 O          14.9577  -26.8883  -41.6414 O.2       0 UNK        -0.5176 
      4 N          16.9050  -26.9300  -42.7805 N.am      1 UNK        -0.4884 
      5 CA         16.6423  -25.7913  -43.6586 C.3       1 UNK         0.0853 
      6 C6         15.6629  -26.1125  -44.8287 C.3       10 UNK        -0.0849 
      7 S7         16.3503  -26.9118  -46.3225 S.3       10 UNK        -0.2776 
      8 C8         16.1675  -28.6919  -45.9721 C.3       10 UNK         0.0316 
      9 C9         17.4594  -29.2900  -45.4336 C.ar      10 UNK        -0.0863 
     10 C10        17.4940  -29.9136  -44.1839 C.ar      10 UNK        -0.1009 
     11 C11        18.6896  -30.4415  -43.6845 C.ar      10 UNK        -0.0712 
     12 C12        19.8578  -30.3416  -44.4495 C.ar      10 UNK        -0.0894 
     13 C13        19.8306  -29.7383  -45.7109 C.ar      10 UNK        -0.0745 
     14 C14        18.6262  -29.2273  -46.1994 C.ar      10 UNK        -0.0972 
     15 C15        21.0920  -29.6443  -46.5588 C.3       10 UNK         0.0209 
     16 S16        21.5353  -27.9195  -46.9476 S.3       10 UNK        -0.2568 
     17 C17        22.1487  -27.3541  -45.3327 C.3       10 UNK        -0.0983 
     18 CA         22.2835  -25.8118  -45.2548 C.3       3 UNK         0.0876 
     19 N          20.9927  -25.1401  -45.1233 N.am      3 UNK        -0.4424 
     20 C          20.4067  -24.3769  -46.0489 C.2       2 UNK         0.4918 
     21 O          20.8246  -24.2629  -47.2028 O.2       2 UNK        -0.4875 
     22 CA         19.1661  -23.5745  -45.5955 C.3       2 UNK         0.0481 
     23 CB         18.6557  -22.6155  -46.6876 C.3       2 UNK        -0.1831 
     24 N          18.0449  -24.4051  -45.1455 N.am      2 UNK        -0.4498 
     25 C          17.9785  -25.0998  -44.0025 C.2       1 UNK         0.5027 
     26 O          18.9147  -25.1715  -43.2010 O.2       1 UNK        -0.4969 
     27 C          23.1143  -25.4358  -44.0206 C.2       3 UNK         0.5005 
     28 O          22.5824  -25.4315  -42.9083 O.2       3 UNK        -0.5279 
     29 N          24.4199  -25.2046  -44.2156 N.am      4 UNK        -0.4463 
     30 CA         25.3935  -25.0702  -43.1239 C.3       4 UNK         0.0283 
     31 CB         26.6995  -24.4712  -43.6697 C.3       4 UNK        -0.1875 
     32 C          25.6682  -26.4150  -42.4233 C.2       4 UNK         0.4949 
     33 O          25.9904  -26.4330  -41.2363 O.2       4 UNK        -0.5039 
     34 N          25.5051  -27.5155  -43.1700 N.am      5 UNK        -0.4663 
     35 CA         25.6632  -28.8968  -42.7141 C.3       5 UNK         0.0242 
     36 CB         26.1727  -29.7433  -43.8949 C.3       5 UNK        -0.1982 
     37 C          24.3735  -29.4970  -42.1206 C.2       5 UNK         0.5017 
     38 O          24.3298  -30.7095  -41.9156 O.2       5 UNK        -0.5012 
     39 N          23.3488  -28.6721  -41.8444 N.am      6 UNK        -0.4439 
     40 CA         22.0337  -29.0878  -41.3306 C.3       6 UNK         0.0297 
     41 CB         21.1068  -27.8670  -41.2171 C.3       6 UNK        -0.2006 
     42 C          22.0571  -29.8739  -40.0043 C.2       6 UNK         0.4892 
     43 O          21.1169  -30.6206  -39.7344 O.2       6 UNK        -0.5089 
     44 N          23.1421  -29.7473  -39.2269 N.am      7 UNK        -0.4243 
     45 CA         23.4245  -30.5597  -38.0393 C.3       7 UNK         0.0196 
     46 CB         24.7163  -30.0533  -37.3784 C.3       7 UNK        -0.2007 
     47 C          23.5250  -32.0718  -38.3274 C.2       7 UNK         0.5020 
     48 O          23.2555  -32.8703  -37.4295 O.2       7 UNK        -0.5147 
     49 N          23.8670  -32.4489  -39.5702 N.am      8 UNK        -0.4734 
     50 CA         23.9141  -33.8383  -40.0384 C.3       8 UNK         0.0238 
     51 CB         24.5913  -33.8914  -41.4174 C.3       8 UNK        -0.1912 
     52 C          22.5367  -34.5257  -40.0914 C.2       8 UNK         0.5038 
     53 O          22.4913  -35.7569  -40.0875 O.2       8 UNK        -0.5046 
     54 N          21.4491  -33.7414  -40.1216 N.am      9 UNK        -0.4200 
     55 CA         20.0697  -34.2383  -40.0024 C.3       9 UNK         0.0839 
     56 C          19.6813  -34.6803  -38.5593 C.2       9 UNK         0.5513 
     57 N          20.4814  -34.4140  -37.5318 N.am      9 UNK        -0.7519 
     58 O          18.6299  -35.2865  -38.3697 O.2       9 UNK        -0.4960 
     59 C59        19.0318  -33.2321  -40.5643 C.3       10 UNK        -0.0876 
     60 S60        19.3059  -32.8002  -42.3175 S.3       10 UNK        -0.2414 
     61 C61        18.7173  -31.0789  -42.3019 C.3       10 UNK         0.0169 
     62 H62        16.4446  -28.1921  -39.8663 H         1 UNK         0.0903 
     63 H63        16.0299  -29.3888  -41.0951 H         1 UNK         0.0903 
     64 H64        17.6454  -28.6662  -41.0632 H         1 UNK         0.0903 
     65 H65        17.8363  -27.3148  -42.8684 H         1 UNK         0.3096 
     66 H66        16.1361  -25.0439  -43.0424 H         1 UNK         0.1121 
     67 H67        15.2059  -25.1799  -45.1638 H         1 UNK         0.0849 
     68 H68        14.8239  -26.7056  -44.4624 H         1 UNK         0.0849 
     69 H69        15.3354  -28.8594  -45.2869 H         1 UNK         0.0865 
     70 H70        15.9070  -29.2054  -46.8986 H         1 UNK         0.0865 
     71 H71        16.5896  -29.9775  -43.5949 H         1 UNK         0.1346 
     72 H72        20.7844  -30.7445  -44.0648 H         1 UNK         0.1412 
     73 H73        18.6029  -28.7552  -47.1725 H         1 UNK         0.1426 
     74 H74        20.9279  -30.1835  -47.4927 H         1 UNK         0.0716 
     75 H75        21.9353  -30.1309  -46.0661 H         1 UNK         0.0716 
     76 H76        21.4861  -27.7203  -44.5464 H         1 UNK         0.0695 
     77 H77        23.1114  -27.8440  -45.1739 H         1 UNK         0.0695 
     78 H78        22.8082  -25.4485  -46.1415 H         1 UNK         0.0983 
     79 H79        20.5780  -25.1716  -44.1947 H         1 UNK         0.3095 
     80 H80        19.4848  -22.9602  -44.7507 H         1 UNK         0.0454 
     81 H81        19.4468  -21.9410  -47.0182 H         1 UNK         0.0851 
     82 H82        18.3003  -23.1563  -47.5657 H         1 UNK         0.0851 
     83 H83        17.8384  -21.9939  -46.3218 H         1 UNK         0.0851 
     84 H84        17.2579  -24.4670  -45.7762 H         1 UNK         0.2976 
     85 H85        24.7877  -25.2013  -45.1573 H         1 UNK         0.3116 
     86 H86        24.9878  -24.3826  -42.3783 H         1 UNK         0.0646 
     87 H87        27.4301  -24.3386  -42.8704 H         1 UNK         0.0847 
     88 H88        26.5311  -23.4913  -44.1166 H         1 UNK         0.0847 
     89 H89        27.1571  -25.1119  -44.4246 H         1 UNK         0.0847 
     90 H90        25.2445  -27.3938  -44.1372 H         1 UNK         0.3040 
     91 H91        26.4179  -28.9287  -41.9249 H         1 UNK         0.1015 
     92 H92        27.0988  -29.3384  -44.3035 H         1 UNK         0.0786 
     93 H93        25.4411  -29.7920  -44.7025 H         1 UNK         0.0786 
     94 H94        26.3832  -30.7679  -43.5844 H         1 UNK         0.0786 
     95 H95        23.4700  -27.6848  -42.0252 H         1 UNK         0.3172 
     96 H96        21.6096  -29.7617  -42.0754 H         1 UNK         0.0595 
     97 H97        20.9018  -27.4295  -42.1938 H         1 UNK         0.0839 
     98 H98        21.5377  -27.0896  -40.5852 H         1 UNK         0.0839 
     99 H99        20.1435  -28.1405  -40.7850 H         1 UNK         0.0839 
    100 H100       23.8654  -29.1097  -39.5254 H         1 UNK         0.2998 
    101 H101       22.5987  -30.4175  -37.3389 H         1 UNK         0.0822 
    102 H102       24.6303  -29.0061  -37.0875 H         1 UNK         0.0787 
    103 H103       24.9404  -30.6214  -36.4743 H         1 UNK         0.0787 
    104 H104       25.5746  -30.1491  -38.0447 H         1 UNK         0.0787 
    105 H105       24.0505  -31.7348  -40.2707 H         1 UNK         0.3055 
    106 H106       24.5277  -34.4045  -39.3341 H         1 UNK         0.1106 
    107 H107       24.0017  -33.3739  -42.1752 H         1 UNK         0.0828 
    108 H108       25.5814  -33.4358  -41.3940 H         1 UNK         0.0828 
    109 H109       24.7164  -34.9222  -41.7515 H         1 UNK         0.0828 
    110 H110       21.5615  -32.7352  -40.1063 H         1 UNK         0.2931 
    111 H111       19.9978  -35.1391  -40.6151 H         1 UNK         0.0412 
    112 H112       20.2100  -34.7138  -36.6086 H         1 UNK         0.3472 
    113 H113       21.3551  -33.9202  -37.6621 H         1 UNK         0.3472 
    114 H114       19.0349  -32.3233  -39.9597 H         1 UNK         0.0970 
    115 H115       18.0225  -33.6410  -40.4863 H         1 UNK         0.0970 
    116 H116       19.3509  -30.4812  -41.6495 H         1 UNK         0.0612 
    117 H117       17.7208  -31.0695  -41.8590 H         1 UNK         0.0612 
@<TRIPOS>BOND
     1    1    2 1    
     2    1   62 1    
     3    1   63 1    
     4    1   64 1    
     5    2    3 2    
     6    2    4 am   BACKBONE|DICT|INTERRES
     7    4    5 1    
     8    4   65 1    
     9    5    6 1    
    10    5   25 1    
    11    5   66 1    
    12    6    7 1    
    13    6   67 1    
    14    6   68 1    
    15    7    8 1    
    16    8    9 1    
    17    8   69 1    
    18    8   70 1    
    19    9   10 ar   
    20    9   14 ar   
    21   10   11 ar   
    22   10   71 1    
    23   11   12 ar   
    24   11   61 1    
    25   12   13 ar   
    26   12   72 1    
    27   13   14 ar   
    28   13   15 1    
    29   14   73 1    
    30   15   16 1    
    31   15   74 1    
    32   15   75 1    
    33   16   17 1    
    34   17   18 1    
    35   17   76 1    
    36   17   77 1    
    37   18   19 1    
    38   18   27 1    
    39   18   78 1    
    40   19   20 am   BACKBONE|DICT|INTERRES
    41   19   79 1    
    42   20   21 2    
    43   20   22 1    
    44   22   23 1    
    45   22   24 1    
    46   22   80 1    
    47   23   81 1    
    48   23   82 1    
    49   23   83 1    
    50   24   25 am   BACKBONE|DICT|INTERRES
    51   24   84 1    
    52   25   26 2    
    53   27   28 2    
    54   27   29 am   BACKBONE|DICT|INTERRES
    55   29   30 1    
    56   29   85 1    
    57   30   31 1    
    58   30   32 1    
    59   30   86 1    
    60   31   87 1    
    61   31   88 1    
    62   31   89 1    
    63   32   33 2    
    64   32   34 am   BACKBONE|DICT|INTERRES
    65   34   35 1    
    66   34   90 1    
    67   35   36 1    
    68   35   37 1    
    69   35   91 1    
    70   36   92 1    
    71   36   93 1    
    72   36   94 1    
    73   37   38 2    
    74   37   39 am   BACKBONE|DICT|INTERRES
    75   39   40 1    
    76   39   95 1    
    77   40   41 1    
    78   40   42 1    
    79   40   96 1    
    80   41   97 1    
    81   41   98 1    
    82   41   99 1    
    83   42   43 2    
    84   42   44 am   BACKBONE|DICT|INTERRES
    85   44   45 1    
    86   44  100 1    
    87   45   46 1    
    88   45   47 1    
    89   45  101 1    
    90   46  102 1    
    91   46  103 1    
    92   46  104 1    
    93   47   48 2    
    94   47   49 am   BACKBONE|DICT|INTERRES
    95   49   50 1    
    96   49  105 1    
    97   50   51 1    
    98   50   52 1    
    99   50  106 1    
   100   51  107 1    
   101   51  108 1    
   102   51  109 1    
   103   52   53 2    
   104   52   54 am   BACKBONE|DICT|INTERRES
   105   54   55 1    
   106   54  110 1    
   107   55   56 1    
   108   55   59 1    
   109   55  111 1    
   110   56   57 am   BACKBONE|DICT|INTERRES
   111   56   58 2    
   112   57  112 1    
   113   57  113 1    
   114   59   60 1    
   115   59  114 1    
   116   59  115 1    
   117   60   61 1    
   118   61  116 1    
   119   61  117 1    
@<TRIPOS>SUBSTRUCTURE
     1 UNK         1 GROUP             0       ****    0 ROOT    
