@<TRIPOS>MOLECULE
3R8
117   119    1
SMALL
USER_CHARGES


@<TRIPOS>ATOM
      1 CA         17.3974  -24.4041  -45.8400 C.3       0 UNK        -0.2013 
      2 C          15.8764  -24.5011  -45.9037 C.2       0 UNK         0.4866 
      3 O          15.2190  -23.4963  -46.1695 O.2       0 UNK        -0.5176 
      4 N          15.2689  -25.6754  -45.6873 N.am      1 UNK        -0.4884 
      5 CA         15.8981  -26.9446  -45.2961 C.3       1 UNK         0.0853 
      6 C6         15.0259  -28.1527  -45.7262 C.3       10 UNK        -0.0849 
      7 S7         15.2372  -28.4668  -47.5089 S.3       10 UNK        -0.2776 
      8 C8         16.2907  -29.9587  -47.5075 C.3       10 UNK         0.0316 
      9 C9         17.5662  -29.8111  -46.6798 C.ar      10 UNK        -0.0863 
     10 C10        17.8224  -30.6946  -45.6272 C.ar      10 UNK        -0.1009 
     11 C11        19.0121  -30.6225  -44.8945 C.ar      10 UNK        -0.0712 
     12 C12        19.9417  -29.6200  -45.2095 C.ar      10 UNK        -0.0894 
     13 C13        19.6937  -28.7197  -46.2523 C.ar      10 UNK        -0.0745 
     14 C14        18.5103  -28.8285  -46.9893 C.ar      10 UNK        -0.0972 
     15 C15        20.7209  -27.6595  -46.6275 C.3       10 UNK         0.0209 
     16 S16        20.5388  -26.1365  -45.6425 S.3       10 UNK        -0.2568 
     17 C17        21.5943  -26.4908  -44.1972 C.3       10 UNK        -0.0983 
     18 CA         20.8496  -26.3868  -42.8402 C.3       3 UNK         0.0876 
     19 N          19.6504  -27.2227  -42.8142 N.am      3 UNK        -0.4424 
     20 C          18.7136  -27.2289  -41.8569 C.2       2 UNK         0.4918 
     21 O          18.7067  -26.4660  -40.8896 O.2       2 UNK        -0.4875 
     22 CA         17.5751  -28.2416  -42.0722 C.3       2 UNK         0.0481 
     23 CB         16.5387  -28.2621  -40.9287 C.3       2 UNK        -0.1831 
     24 N          16.9492  -28.0455  -43.3856 N.am      2 UNK        -0.4498 
     25 C          16.2402  -26.9801  -43.7926 C.2       1 UNK         0.5027 
     26 O          15.8909  -26.0559  -43.0546 O.2       1 UNK        -0.4969 
     27 C          21.7900  -26.7868  -41.6870 C.2       3 UNK         0.5005 
     28 O          22.4513  -27.8184  -41.7924 O.2       3 UNK        -0.5279 
     29 N          21.8497  -25.9824  -40.6169 N.am      4 UNK        -0.4463 
     30 CA         22.6017  -26.2765  -39.3867 C.3       4 UNK         0.0283 
     31 CB         22.3451  -25.1600  -38.3616 C.3       4 UNK        -0.1875 
     32 C          24.1177  -26.4962  -39.5721 C.2       4 UNK         0.4949 
     33 O          24.7437  -27.1250  -38.7187 O.2       4 UNK        -0.5039 
     34 N          24.6789  -25.9799  -40.6730 N.am      5 UNK        -0.4663 
     35 CA         26.0742  -26.1729  -41.0677 C.3       5 UNK         0.0242 
     36 CB         26.4777  -25.0378  -42.0237 C.3       5 UNK        -0.1982 
     37 C          26.3529  -27.5429  -41.7172 C.2       5 UNK         0.5017 
     38 O          27.5200  -27.9337  -41.7757 O.2       5 UNK        -0.5012 
     39 N          25.3174  -28.2356  -42.2157 N.am      6 UNK        -0.4439 
     40 CA         25.4443  -29.5414  -42.8661 C.3       6 UNK         0.0297 
     41 CB         24.3915  -29.6682  -43.9804 C.3       6 UNK        -0.2006 
     42 C          25.3164  -30.6760  -41.8380 C.2       6 UNK         0.4892 
     43 O          24.5826  -30.5439  -40.8546 O.2       6 UNK        -0.5089 
     44 N          26.0365  -31.7771  -42.0923 N.am      7 UNK        -0.4243 
     45 CA         26.1008  -32.9620  -41.2336 C.3       7 UNK         0.0196 
     46 CB         27.1177  -33.9591  -41.8133 C.3       7 UNK        -0.2007 
     47 C          24.7260  -33.6268  -41.0559 C.2       7 UNK         0.5020 
     48 O          24.0776  -33.9528  -42.0509 O.2       7 UNK        -0.5147 
     49 N          24.3185  -33.7960  -39.7901 N.am      8 UNK        -0.4734 
     50 CA         23.0435  -34.3566  -39.3129 C.3       8 UNK         0.0238 
     51 CB         22.8614  -35.8139  -39.7893 C.3       8 UNK        -0.1912 
     52 C          21.7948  -33.4973  -39.6086 C.2       8 UNK         0.5038 
     53 O          20.6935  -33.9154  -39.2470 O.2       8 UNK        -0.5046 
     54 N          21.9707  -32.3195  -40.2199 N.am      9 UNK        -0.4200 
     55 CA         20.8999  -31.3590  -40.5279 C.3       9 UNK         0.0839 
     56 C          20.7073  -30.2740  -39.4311 C.2       9 UNK         0.5513 
     57 N          21.5529  -30.1934  -38.4103 N.am      9 UNK        -0.7519 
     58 O          19.7509  -29.5077  -39.4943 O.2       9 UNK        -0.4960 
     59 C59        21.1116  -30.7161  -41.9195 C.3       10 UNK        -0.0876 
     60 S60        20.9727  -31.9199  -43.2801 S.3       10 UNK        -0.2414 
     61 C61        19.2400  -31.6671  -43.7969 C.3       10 UNK         0.0169 
     62 H62        17.7223  -23.3752  -45.9935 H         1 UNK         0.0903 
     63 H63        17.8538  -25.0133  -46.6196 H         1 UNK         0.0903 
     64 H64        17.7761  -24.7259  -44.8706 H         1 UNK         0.0903 
     65 H65        14.2601  -25.6978  -45.7250 H         1 UNK         0.3096 
     66 H66        16.8582  -27.0174  -45.8076 H         1 UNK         0.1121 
     67 H67        15.2708  -29.0670  -45.1834 H         1 UNK         0.0849 
     68 H68        13.9707  -27.9672  -45.5175 H         1 UNK         0.0849 
     69 H69        15.6955  -30.8023  -47.1540 H         1 UNK         0.0865 
     70 H70        16.5650  -30.1947  -48.5366 H         1 UNK         0.0865 
     71 H71        17.1027  -31.4683  -45.3940 H         1 UNK         0.1346 
     72 H72        20.8726  -29.5487  -44.6656 H         1 UNK         0.1412 
     73 H73        18.3228  -28.1500  -47.8109 H         1 UNK         0.1426 
     74 H74        20.6086  -27.3973  -47.6807 H         1 UNK         0.0716 
     75 H75        21.7324  -28.0574  -46.5323 H         1 UNK         0.0716 
     76 H76        22.0408  -27.4784  -44.3199 H         1 UNK         0.0695 
     77 H77        22.4279  -25.7864  -44.2195 H         1 UNK         0.0695 
     78 H78        20.5380  -25.3495  -42.7003 H         1 UNK         0.0983 
     79 H79        19.5503  -27.8540  -43.5943 H         1 UNK         0.3095 
     80 H80        18.0394  -29.2275  -42.0975 H         1 UNK         0.0454 
     81 H81        16.0698  -27.2900  -40.7765 H         1 UNK         0.0851 
     82 H82        15.7509  -28.9904  -41.1191 H         1 UNK         0.0851 
     83 H83        17.0151  -28.5375  -39.9869 H         1 UNK         0.0851 
     84 H84        17.1773  -28.7494  -44.0755 H         1 UNK         0.2976 
     85 H85        21.2545  -25.1660  -40.5939 H         1 UNK         0.3116 
     86 H86        22.1972  -27.2071  -38.9828 H         1 UNK         0.0646 
     87 H87        22.8632  -25.3638  -37.4233 H         1 UNK         0.0847 
     88 H88        21.2840  -25.0699  -38.1281 H         1 UNK         0.0847 
     89 H89        22.6954  -24.1923  -38.7229 H         1 UNK         0.0847 
     90 H90        24.0874  -25.4716  -41.3137 H         1 UNK         0.3040 
     91 H91        26.7014  -26.1057  -40.1756 H         1 UNK         0.1015 
     92 H92        26.3553  -24.0611  -41.5550 H         1 UNK         0.0786 
     93 H93        25.8841  -25.0497  -42.9388 H         1 UNK         0.0786 
     94 H94        27.5257  -25.1256  -42.3145 H         1 UNK         0.0786 
     95 H95        24.3678  -27.9233  -42.0259 H         1 UNK         0.3172 
     96 H96        26.4269  -29.6163  -43.3373 H         1 UNK         0.0595 
     97 H97        24.4257  -30.6543  -44.4455 H         1 UNK         0.0839 
     98 H98        24.5623  -28.9331  -44.7669 H         1 UNK         0.0839 
     99 H99        23.3797  -29.5207  -43.6097 H         1 UNK         0.0839 
    100 H100       26.5811  -31.8113  -42.9418 H         1 UNK         0.2998 
    101 H101       26.4660  -32.6349  -40.2576 H         1 UNK         0.0822 
    102 H102       26.8292  -34.2960  -42.8101 H         1 UNK         0.0787 
    103 H103       28.1130  -33.5193  -41.8815 H         1 UNK         0.0787 
    104 H104       27.1986  -34.8448  -41.1815 H         1 UNK         0.0787 
    105 H105       24.9344  -33.4690  -39.0572 H         1 UNK         0.3055 
    106 H106       23.1223  -34.3815  -38.2247 H         1 UNK         0.1106 
    107 H107       22.6921  -35.8729  -40.8647 H         1 UNK         0.0828 
    108 H108       23.7339  -36.4224  -39.5519 H         1 UNK         0.0828 
    109 H109       22.0029  -36.2798  -39.3038 H         1 UNK         0.0828 
    110 H110       22.9072  -32.0312  -40.4737 H         1 UNK         0.2931 
    111 H111       19.9491  -31.8939  -40.5684 H         1 UNK         0.0412 
    112 H112       22.3488  -30.8080  -38.3557 H         1 UNK         0.3472 
    113 H113       21.4026  -29.4956  -37.6996 H         1 UNK         0.3472 
    114 H114       20.4140  -29.8974  -42.0948 H         1 UNK         0.0970 
    115 H115       22.1067  -30.2795  -41.9588 H         1 UNK         0.0970 
    116 H116       18.8773  -32.6317  -44.1554 H         1 UNK         0.0612 
    117 H117       18.6293  -31.4220  -42.9275 H         1 UNK         0.0612 
@<TRIPOS>BOND
     1    1    2 1    
     2    1   62 1    
     3    1   63 1    
     4    1   64 1    
     5    2    3 2    
     6    2    4 am   BACKBONE|DICT|INTERRES
     7    4    5 1    
     8    4   65 1    
     9    5    6 1    
    10    5   25 1    
    11    5   66 1    
    12    6    7 1    
    13    6   67 1    
    14    6   68 1    
    15    7    8 1    
    16    8    9 1    
    17    8   69 1    
    18    8   70 1    
    19    9   10 ar   
    20    9   14 ar   
    21   10   11 ar   
    22   10   71 1    
    23   11   12 ar   
    24   11   61 1    
    25   12   13 ar   
    26   12   72 1    
    27   13   14 ar   
    28   13   15 1    
    29   14   73 1    
    30   15   16 1    
    31   15   74 1    
    32   15   75 1    
    33   16   17 1    
    34   17   18 1    
    35   17   76 1    
    36   17   77 1    
    37   18   19 1    
    38   18   27 1    
    39   18   78 1    
    40   19   20 am   BACKBONE|DICT|INTERRES
    41   19   79 1    
    42   20   21 2    
    43   20   22 1    
    44   22   23 1    
    45   22   24 1    
    46   22   80 1    
    47   23   81 1    
    48   23   82 1    
    49   23   83 1    
    50   24   25 am   BACKBONE|DICT|INTERRES
    51   24   84 1    
    52   25   26 2    
    53   27   28 2    
    54   27   29 am   BACKBONE|DICT|INTERRES
    55   29   30 1    
    56   29   85 1    
    57   30   31 1    
    58   30   32 1    
    59   30   86 1    
    60   31   87 1    
    61   31   88 1    
    62   31   89 1    
    63   32   33 2    
    64   32   34 am   BACKBONE|DICT|INTERRES
    65   34   35 1    
    66   34   90 1    
    67   35   36 1    
    68   35   37 1    
    69   35   91 1    
    70   36   92 1    
    71   36   93 1    
    72   36   94 1    
    73   37   38 2    
    74   37   39 am   BACKBONE|DICT|INTERRES
    75   39   40 1    
    76   39   95 1    
    77   40   41 1    
    78   40   42 1    
    79   40   96 1    
    80   41   97 1    
    81   41   98 1    
    82   41   99 1    
    83   42   43 2    
    84   42   44 am   BACKBONE|DICT|INTERRES
    85   44   45 1    
    86   44  100 1    
    87   45   46 1    
    88   45   47 1    
    89   45  101 1    
    90   46  102 1    
    91   46  103 1    
    92   46  104 1    
    93   47   48 2    
    94   47   49 am   BACKBONE|DICT|INTERRES
    95   49   50 1    
    96   49  105 1    
    97   50   51 1    
    98   50   52 1    
    99   50  106 1    
   100   51  107 1    
   101   51  108 1    
   102   51  109 1    
   103   52   53 2    
   104   52   54 am   BACKBONE|DICT|INTERRES
   105   54   55 1    
   106   54  110 1    
   107   55   56 1    
   108   55   59 1    
   109   55  111 1    
   110   56   57 am   BACKBONE|DICT|INTERRES
   111   56   58 2    
   112   57  112 1    
   113   57  113 1    
   114   59   60 1    
   115   59  114 1    
   116   59  115 1    
   117   60   61 1    
   118   61  116 1    
   119   61  117 1    
@<TRIPOS>SUBSTRUCTURE
     1 UNK         1 GROUP             0       ****    0 ROOT    
