@<TRIPOS>MOLECULE
3R8
117   119    1
SMALL
USER_CHARGES


@<TRIPOS>ATOM
      1 CA         14.7030  -22.8695  -41.6913 C.3       0 UNK        -0.2013 
      2 C          15.4884  -23.5480  -42.8041 C.2       0 UNK         0.4866 
      3 O          15.2898  -23.2285  -43.9772 O.2       0 UNK        -0.5176 
      4 N          16.3716  -24.4886  -42.4472 N.am      1 UNK        -0.4884 
      5 CA         17.2459  -25.2132  -43.3749 C.3       1 UNK         0.0853 
      6 C6         17.9070  -26.4361  -42.6976 C.3       10 UNK        -0.0849 
      7 S7         16.7081  -27.7272  -42.2134 S.3       10 UNK        -0.2776 
      8 C8         16.5036  -28.6892  -43.7511 C.3       10 UNK         0.0316 
      9 C9         17.6631  -29.6421  -44.0161 C.ar      10 UNK        -0.0863 
     10 C10        17.5979  -30.9775  -43.6084 C.ar      10 UNK        -0.1009 
     11 C11        18.6408  -31.8688  -43.8879 C.ar      10 UNK        -0.0712 
     12 C12        19.7695  -31.3949  -44.5766 C.ar      10 UNK        -0.0894 
     13 C13        19.8579  -30.0573  -44.9768 C.ar      10 UNK        -0.0745 
     14 C14        18.7908  -29.1968  -44.7050 C.ar      10 UNK        -0.0972 
     15 C15        21.1272  -29.5398  -45.6512 C.3       10 UNK         0.0209 
     16 S16        20.8051  -28.2869  -46.9381 S.3       10 UNK        -0.2568 
     17 C17        22.3622  -27.3295  -46.9515 C.3       10 UNK        -0.0983 
     18 CA         22.3521  -26.0106  -46.1218 C.3       3 UNK         0.0876 
     19 N          21.0634  -25.3147  -46.1592 N.am      3 UNK        -0.4424 
     20 C          20.8938  -24.0050  -45.9359 C.2       2 UNK         0.4918 
     21 O          21.8163  -23.2246  -45.6970 O.2       2 UNK        -0.4875 
     22 CA         19.4546  -23.4695  -46.0140 C.3       2 UNK         0.0481 
     23 CB         19.0103  -23.3254  -47.4789 C.3       2 UNK        -0.1831 
     24 N          18.4950  -24.3065  -45.2889 N.am      2 UNK        -0.4498 
     25 C          18.3248  -24.2764  -43.9590 C.2       1 UNK         0.5027 
     26 O          18.9775  -23.5576  -43.1979 O.2       1 UNK        -0.4969 
     27 C          22.8179  -26.2205  -44.6671 C.2       3 UNK         0.5005 
     28 O          22.0253  -26.6324  -43.8169 O.2       3 UNK        -0.5279 
     29 N          24.1103  -25.9609  -44.4161 N.am      4 UNK        -0.4463 
     30 CA         24.7572  -26.0598  -43.1005 C.3       4 UNK         0.0283 
     31 CB         26.1473  -25.4069  -43.1706 C.3       4 UNK        -0.1875 
     32 C          24.8690  -27.4954  -42.5565 C.2       4 UNK         0.4949 
     33 O          25.0313  -27.6722  -41.3488 O.2       4 UNK        -0.5039 
     34 N          24.7492  -28.4948  -43.4430 N.am      5 UNK        -0.4663 
     35 CA         24.7363  -29.9255  -43.1199 C.3       5 UNK         0.0242 
     36 CB         24.7941  -30.7371  -44.4240 C.3       5 UNK        -0.1982 
     37 C          23.5387  -30.3721  -42.2607 C.2       5 UNK         0.5017 
     38 O          23.5802  -31.4774  -41.7205 O.2       5 UNK        -0.5012 
     39 N          22.5164  -29.5132  -42.1206 N.am      6 UNK        -0.4439 
     40 CA         21.3103  -29.7073  -41.3091 C.3       6 UNK         0.0297 
     41 CB         20.4814  -28.4192  -41.3379 C.3       6 UNK        -0.2006 
     42 C          21.5741  -30.1330  -39.8535 C.2       6 UNK         0.4892 
     43 O          20.7997  -30.9188  -39.3079 O.2       6 UNK        -0.5089 
     44 N          22.6754  -29.6385  -39.2685 N.am      7 UNK        -0.4243 
     45 CA         23.1321  -29.9790  -37.9186 C.3       7 UNK         0.0196 
     46 CB         24.2895  -29.0446  -37.5299 C.3       7 UNK        -0.2007 
     47 C          23.5525  -31.4523  -37.7559 C.2       7 UNK         0.5020 
     48 O          23.4001  -31.9992  -36.6629 O.2       7 UNK        -0.5147 
     49 N          24.0694  -32.0658  -38.8298 N.am      8 UNK        -0.4734 
     50 CA         24.4326  -33.4850  -38.8758 C.3       8 UNK         0.0238 
     51 CB         25.6900  -33.6595  -39.7442 C.3       8 UNK        -0.1912 
     52 C          23.2778  -34.3373  -39.4236 C.2       8 UNK         0.5038 
     53 O          23.0541  -35.4438  -38.9322 O.2       8 UNK        -0.5046 
     54 N          22.5808  -33.8057  -40.4346 N.am      9 UNK        -0.4200 
     55 CA         21.4228  -34.4085  -41.1043 C.3       9 UNK         0.0839 
     56 C          20.1957  -34.6124  -40.1706 C.2       9 UNK         0.5513 
     57 N          19.8680  -33.6580  -39.3081 N.am      9 UNK        -0.7519 
     58 O          19.5449  -35.6532  -40.2189 O.2       9 UNK        -0.4960 
     59 C59        21.0714  -33.5744  -42.3596 C.3       10 UNK        -0.0876 
     60 S60        19.9627  -34.3908  -43.5530 S.3       10 UNK        -0.2414 
     61 C61        18.4812  -33.3247  -43.4300 C.3       10 UNK         0.0169 
     62 H62        13.6345  -23.0296  -41.8347 H         1 UNK         0.0903 
     63 H63        14.9741  -23.2530  -40.7076 H         1 UNK         0.0903 
     64 H64        14.8915  -21.7961  -41.7002 H         1 UNK         0.0903 
     65 H65        16.4990  -24.7077  -41.4691 H         1 UNK         0.3096 
     66 H66        16.6246  -25.5702  -44.1990 H         1 UNK         0.1121 
     67 H67        18.6662  -26.8666  -43.3444 H         1 UNK         0.0849 
     68 H68        18.4435  -26.1232  -41.7996 H         1 UNK         0.0849 
     69 H69        15.5744  -29.2569  -43.6798 H         1 UNK         0.0865 
     70 H70        16.3711  -28.0131  -44.5968 H         1 UNK         0.0865 
     71 H71        16.7222  -31.3294  -43.0795 H         1 UNK         0.1346 
     72 H72        20.5922  -32.0580  -44.8000 H         1 UNK         0.1412 
     73 H73        18.8400  -28.1702  -45.0329 H         1 UNK         0.1426 
     74 H74        21.6848  -30.3615  -46.1026 H         1 UNK         0.0716 
     75 H75        21.7652  -29.1125  -44.8787 H         1 UNK         0.0716 
     76 H76        23.1962  -27.9770  -46.6733 H         1 UNK         0.0695 
     77 H77        22.5447  -27.0735  -47.9964 H         1 UNK         0.0695 
     78 H78        23.0805  -25.3456  -46.5925 H         1 UNK         0.0983 
     79 H79        20.2592  -25.9016  -46.3224 H         1 UNK         0.3095 
     80 H80        19.4475  -22.4715  -45.5700 H         1 UNK         0.0454 
     81 H81        19.7029  -22.6922  -48.0352 H         1 UNK         0.0851 
     82 H82        18.9675  -24.2875  -47.9906 H         1 UNK         0.0851 
     83 H83        18.0254  -22.8636  -47.5503 H         1 UNK         0.0851 
     84 H84        17.9104  -24.9121  -45.8470 H         1 UNK         0.2976 
     85 H85        24.6937  -25.6316  -45.1728 H         1 UNK         0.3116 
     86 H86        24.1506  -25.4945  -42.3897 H         1 UNK         0.0646 
     87 H87        26.6418  -25.4359  -42.1983 H         1 UNK         0.0847 
     88 H88        26.0810  -24.3591  -43.4644 H         1 UNK         0.0847 
     89 H89        26.7991  -25.9165  -43.8814 H         1 UNK         0.0847 
     90 H90        24.6371  -28.2484  -44.4150 H         1 UNK         0.3040 
     91 H91        25.6359  -30.1434  -42.5400 H         1 UNK         0.1015 
     92 H92        25.6945  -30.5081  -44.9944 H         1 UNK         0.0786 
     93 H93        23.9329  -30.5417  -45.0626 H         1 UNK         0.0786 
     94 H94        24.8096  -31.8087  -44.2181 H         1 UNK         0.0786 
     95 H95        22.5816  -28.6273  -42.6062 H         1 UNK         0.3172 
     96 H96        20.7170  -30.4829  -41.7891 H         1 UNK         0.0595 
     97 H97        20.2376  -28.1484  -42.3633 H         1 UNK         0.0839 
     98 H98        21.0124  -27.5796  -40.8871 H         1 UNK         0.0839 
     99 H99        19.5393  -28.5451  -40.8020 H         1 UNK         0.0839 
    100 H100       23.2576  -29.0069  -39.8024 H         1 UNK         0.2998 
    101 H101       22.3011  -29.8003  -37.2324 H         1 UNK         0.0822 
    102 H102       23.9795  -27.9995  -37.5477 H         1 UNK         0.0787 
    103 H103       24.6429  -29.2591  -36.5200 H         1 UNK         0.0787 
    104 H104       25.1403  -29.1538  -38.2044 H         1 UNK         0.0787 
    105 H105       24.1139  -31.5577  -39.7059 H         1 UNK         0.3055 
    106 H106       24.6634  -33.8445  -37.8702 H         1 UNK         0.1106 
    107 H107       25.5294  -33.3179  -40.7677 H         1 UNK         0.0828 
    108 H108       26.5330  -33.1030  -39.3347 H         1 UNK         0.0828 
    109 H109       25.9876  -34.7080  -39.7929 H         1 UNK         0.0828 
    110 H110       22.8774  -32.9037  -40.7955 H         1 UNK         0.2931 
    111 H111       21.7426  -35.3969  -41.4408 H         1 UNK         0.0412 
    112 H112       19.0790  -33.7993  -38.6980 H         1 UNK         0.3472 
    113 H113       20.3616  -32.7694  -39.2888 H         1 UNK         0.3472 
    114 H114       21.9825  -33.3286  -42.9083 H         1 UNK         0.0970 
    115 H115       20.6434  -32.6219  -42.0545 H         1 UNK         0.0970 
    116 H116       18.1387  -33.3393  -42.3937 H         1 UNK         0.0612 
    117 H117       17.6882  -33.7834  -44.0223 H         1 UNK         0.0612 
@<TRIPOS>BOND
     1    1    2 1    
     2    1   62 1    
     3    1   63 1    
     4    1   64 1    
     5    2    3 2    
     6    2    4 am   BACKBONE|DICT|INTERRES
     7    4    5 1    
     8    4   65 1    
     9    5    6 1    
    10    5   25 1    
    11    5   66 1    
    12    6    7 1    
    13    6   67 1    
    14    6   68 1    
    15    7    8 1    
    16    8    9 1    
    17    8   69 1    
    18    8   70 1    
    19    9   10 ar   
    20    9   14 ar   
    21   10   11 ar   
    22   10   71 1    
    23   11   12 ar   
    24   11   61 1    
    25   12   13 ar   
    26   12   72 1    
    27   13   14 ar   
    28   13   15 1    
    29   14   73 1    
    30   15   16 1    
    31   15   74 1    
    32   15   75 1    
    33   16   17 1    
    34   17   18 1    
    35   17   76 1    
    36   17   77 1    
    37   18   19 1    
    38   18   27 1    
    39   18   78 1    
    40   19   20 am   BACKBONE|DICT|INTERRES
    41   19   79 1    
    42   20   21 2    
    43   20   22 1    
    44   22   23 1    
    45   22   24 1    
    46   22   80 1    
    47   23   81 1    
    48   23   82 1    
    49   23   83 1    
    50   24   25 am   BACKBONE|DICT|INTERRES
    51   24   84 1    
    52   25   26 2    
    53   27   28 2    
    54   27   29 am   BACKBONE|DICT|INTERRES
    55   29   30 1    
    56   29   85 1    
    57   30   31 1    
    58   30   32 1    
    59   30   86 1    
    60   31   87 1    
    61   31   88 1    
    62   31   89 1    
    63   32   33 2    
    64   32   34 am   BACKBONE|DICT|INTERRES
    65   34   35 1    
    66   34   90 1    
    67   35   36 1    
    68   35   37 1    
    69   35   91 1    
    70   36   92 1    
    71   36   93 1    
    72   36   94 1    
    73   37   38 2    
    74   37   39 am   BACKBONE|DICT|INTERRES
    75   39   40 1    
    76   39   95 1    
    77   40   41 1    
    78   40   42 1    
    79   40   96 1    
    80   41   97 1    
    81   41   98 1    
    82   41   99 1    
    83   42   43 2    
    84   42   44 am   BACKBONE|DICT|INTERRES
    85   44   45 1    
    86   44  100 1    
    87   45   46 1    
    88   45   47 1    
    89   45  101 1    
    90   46  102 1    
    91   46  103 1    
    92   46  104 1    
    93   47   48 2    
    94   47   49 am   BACKBONE|DICT|INTERRES
    95   49   50 1    
    96   49  105 1    
    97   50   51 1    
    98   50   52 1    
    99   50  106 1    
   100   51  107 1    
   101   51  108 1    
   102   51  109 1    
   103   52   53 2    
   104   52   54 am   BACKBONE|DICT|INTERRES
   105   54   55 1    
   106   54  110 1    
   107   55   56 1    
   108   55   59 1    
   109   55  111 1    
   110   56   57 am   BACKBONE|DICT|INTERRES
   111   56   58 2    
   112   57  112 1    
   113   57  113 1    
   114   59   60 1    
   115   59  114 1    
   116   59  115 1    
   117   60   61 1    
   118   61  116 1    
   119   61  117 1    
@<TRIPOS>SUBSTRUCTURE
     1 UNK         1 GROUP             0       ****    0 ROOT    
