@<TRIPOS>MOLECULE
3R8
117   119    1
SMALL
USER_CHARGES


@<TRIPOS>ATOM
      1 CA         20.1954  -28.1530  -41.5072 C.3       0 UNK        -0.2013 
      2 C          19.2872  -27.4775  -42.5211 C.2       0 UNK         0.4866 
      3 O          19.7331  -27.1802  -43.6291 O.2       0 UNK        -0.5176 
      4 N          18.0279  -27.2228  -42.1411 N.am      1 UNK        -0.4884 
      5 CA         16.9661  -26.6294  -42.9693 C.3       1 UNK         0.0853 
      6 C6         16.4566  -27.5936  -44.0811 C.3       10 UNK        -0.0849 
      7 S7         15.9604  -29.2280  -43.4347 S.3       10 UNK        -0.2776 
      8 C8         16.3527  -30.3205  -44.8409 C.3       10 UNK         0.0316 
      9 C9         17.8436  -30.3659  -45.1525 C.ar      10 UNK        -0.0863 
     10 C10        18.7275  -30.9978  -44.2733 C.ar      10 UNK        -0.1009 
     11 C11        20.0987  -31.0677  -44.5588 C.ar      10 UNK        -0.0712 
     12 C12        20.5727  -30.4747  -45.7349 C.ar      10 UNK        -0.0894 
     13 C13        19.6996  -29.8435  -46.6268 C.ar      10 UNK        -0.0745 
     14 C14        18.3349  -29.7981  -46.3315 C.ar      10 UNK        -0.0972 
     15 C15        20.2231  -29.2498  -47.9300 C.3       10 UNK         0.0209 
     16 S16        19.9663  -27.4493  -48.0442 S.3       10 UNK        -0.2568 
     17 C17        21.1356  -26.8441  -46.7849 C.3       10 UNK        -0.0983 
     18 CA         20.9225  -25.3484  -46.4389 C.3       3 UNK         0.0876 
     19 N          19.5480  -25.0647  -46.0131 N.am      3 UNK        -0.4424 
     20 C          18.9984  -23.8429  -45.9513 C.2       2 UNK         0.4918 
     21 O          19.5947  -22.8110  -46.2606 O.2       2 UNK        -0.4875 
     22 CA         17.5320  -23.7444  -45.4857 C.3       2 UNK         0.0481 
     23 CB         16.6075  -23.4953  -46.6884 C.3       2 UNK        -0.1831 
     24 N          17.0754  -24.9405  -44.7733 N.am      2 UNK        -0.4498 
     25 C          17.3806  -25.2338  -43.5007 C.2       1 UNK         0.5027 
     26 O          17.9841  -24.4573  -42.7559 O.2       1 UNK        -0.4969 
     27 C          21.9472  -24.9040  -45.3776 C.2       3 UNK         0.5005 
     28 O          23.0334  -24.4477  -45.7372 O.2       3 UNK        -0.5279 
     29 N          21.5790  -25.0678  -44.0966 N.am      4 UNK        -0.4463 
     30 CA         22.3826  -24.8321  -42.8912 C.3       4 UNK         0.0283 
     31 CB         22.7658  -23.3437  -42.7528 C.3       4 UNK        -0.1875 
     32 C          23.5935  -25.7815  -42.7901 C.2       4 UNK         0.4949 
     33 O          24.6200  -25.4129  -42.2184 O.2       4 UNK        -0.5039 
     34 N          23.4482  -26.9942  -43.3455 N.am      5 UNK        -0.4663 
     35 CA         24.4872  -28.0285  -43.3801 C.3       5 UNK         0.0242 
     36 CB         24.1089  -29.0807  -44.4344 C.3       5 UNK        -0.1982 
     37 C          24.7401  -28.6885  -42.0124 C.2       5 UNK         0.5017 
     38 O          25.8563  -29.1468  -41.7662 O.2       5 UNK        -0.5012 
     39 N          23.7067  -28.7013  -41.1564 N.am      6 UNK        -0.4439 
     40 CA         23.6800  -29.2335  -39.7901 C.3       6 UNK         0.0297 
     41 CB         24.5041  -28.3253  -38.8486 C.3       6 UNK        -0.2006 
     42 C          24.0619  -30.7276  -39.7372 C.2       6 UNK         0.4892 
     43 O          23.4683  -31.5188  -40.4732 O.2       6 UNK        -0.5089 
     44 N          25.0202  -31.0873  -38.8690 N.am      7 UNK        -0.4243 
     45 CA         25.4975  -32.4450  -38.5890 C.3       7 UNK         0.0196 
     46 CB         26.2373  -33.0359  -39.8124 C.3       7 UNK        -0.2007 
     47 C          24.3539  -33.3232  -38.0505 C.2       7 UNK         0.5020 
     48 O          23.9072  -33.0967  -36.9254 O.2       7 UNK        -0.5147 
     49 N          23.8918  -34.2909  -38.8514 N.am      8 UNK        -0.4734 
     50 CA         22.7528  -35.1546  -38.5324 C.3       8 UNK         0.0238 
     51 CB         22.7826  -36.3846  -39.4546 C.3       8 UNK        -0.1912 
     52 C          21.3925  -34.4397  -38.6370 C.2       8 UNK         0.5038 
     53 O          20.4356  -34.8936  -38.0075 O.2       8 UNK        -0.5046 
     54 N          21.3167  -33.3652  -39.4328 N.am      9 UNK        -0.4200 
     55 CA         20.0976  -32.5761  -39.6484 C.3       9 UNK         0.0839 
     56 C          19.8528  -31.5946  -38.4743 C.2       9 UNK         0.5513 
     57 N          18.6203  -31.4896  -37.9978 N.am      9 UNK        -0.7519 
     58 O          20.7583  -30.8938  -38.0278 O.2       9 UNK        -0.4960 
     59 C59        20.1351  -31.8151  -40.9971 C.3       10 UNK        -0.0876 
     60 S60        20.3938  -32.9287  -42.4209 S.3       10 UNK        -0.2414 
     61 C61        21.1055  -31.7797  -43.6495 C.3       10 UNK         0.0169 
     62 H62        20.8648  -27.4204  -41.0583 H         1 UNK         0.0903 
     63 H63        19.6266  -28.6316  -40.7101 H         1 UNK         0.0903 
     64 H64        20.7912  -28.9169  -42.0042 H         1 UNK         0.0903 
     65 H65        17.7438  -27.4635  -41.2021 H         1 UNK         0.3096 
     66 H66        16.1298  -26.4404  -42.2942 H         1 UNK         0.1121 
     67 H67        15.5858  -27.1767  -44.5900 H         1 UNK         0.0849 
     68 H68        17.2297  -27.7261  -44.8384 H         1 UNK         0.0849 
     69 H69        16.0070  -31.3291  -44.6097 H         1 UNK         0.0865 
     70 H70        15.7820  -29.9981  -45.7132 H         1 UNK         0.0865 
     71 H71        18.3278  -31.4380  -43.3721 H         1 UNK         0.1346 
     72 H72        21.6275  -30.5233  -45.9680 H         1 UNK         0.1412 
     73 H73        17.6575  -29.3168  -47.0238 H         1 UNK         0.1426 
     74 H74        19.7093  -29.7289  -48.7644 H         1 UNK         0.0716 
     75 H75        21.2846  -29.4662  -48.0609 H         1 UNK         0.0716 
     76 H76        21.0345  -27.4635  -45.8925 H         1 UNK         0.0695 
     77 H77        22.1480  -27.0090  -47.1588 H         1 UNK         0.0695 
     78 H78        21.1181  -24.7630  -47.3403 H         1 UNK         0.0983 
     79 H79        19.0047  -25.8649  -45.7237 H         1 UNK         0.3095 
     80 H80        17.4549  -22.8853  -44.8159 H         1 UNK         0.0454 
     81 H81        16.8977  -22.5892  -47.2223 H         1 UNK         0.0851 
     82 H82        16.6415  -24.3182  -47.4036 H         1 UNK         0.0851 
     83 H83        15.5720  -23.3644  -46.3738 H         1 UNK         0.0851 
     84 H84        16.5589  -25.6158  -45.3178 H         1 UNK         0.2976 
     85 H85        20.6897  -25.5367  -43.9375 H         1 UNK         0.3116 
     86 H86        21.7353  -25.0806  -42.0490 H         1 UNK         0.0646 
     87 H87        23.2235  -23.1470  -41.7827 H         1 UNK         0.0847 
     88 H88        21.8901  -22.6997  -42.8332 H         1 UNK         0.0847 
     89 H89        23.4812  -23.0351  -43.5155 H         1 UNK         0.0847 
     90 H90        22.5726  -27.2046  -43.8034 H         1 UNK         0.3040 
     91 H91        25.4243  -27.5589  -43.6885 H         1 UNK         0.1015 
     92 H92        24.0420  -28.6391  -45.4290 H         1 UNK         0.0786 
     93 H93        23.1505  -29.5467  -44.2104 H         1 UNK         0.0786 
     94 H94        24.8560  -29.8744  -44.4823 H         1 UNK         0.0786 
     95 H95        22.8423  -28.3065  -41.4906 H         1 UNK         0.3172 
     96 H96        22.6399  -29.1829  -39.4644 H         1 UNK         0.0595 
     97 H97        24.1656  -27.2910  -38.9116 H         1 UNK         0.0839 
     98 H98        25.5670  -28.3348  -39.0937 H         1 UNK         0.0839 
     99 H99        24.3946  -28.6278  -37.8062 H         1 UNK         0.0839 
    100 H100       25.4254  -30.3598  -38.2972 H         1 UNK         0.2998 
    101 H101       26.2229  -32.3598  -37.7784 H         1 UNK         0.0822 
    102 H102       27.0905  -32.4146  -40.0852 H         1 UNK         0.0787 
    103 H103       26.6256  -34.0317  -39.5939 H         1 UNK         0.0787 
    104 H104       25.5993  -33.1133  -40.6933 H         1 UNK         0.0787 
    105 H105       24.3034  -34.3905  -39.7685 H         1 UNK         0.3055 
    106 H106       22.8588  -35.4978  -37.5005 H         1 UNK         0.1106 
    107 H107       22.6838  -36.1052  -40.5044 H         1 UNK         0.0828 
    108 H108       23.7105  -36.9454  -39.3404 H         1 UNK         0.0828 
    109 H109       21.9636  -37.0667  -39.2214 H         1 UNK         0.0828 
    110 H110       22.1580  -33.0051  -39.8697 H         1 UNK         0.2931 
    111 H111       19.2554  -33.2702  -39.6952 H         1 UNK         0.0412 
    112 H112       18.4396  -30.8437  -37.2450 H         1 UNK         0.3472 
    113 H113       17.8697  -32.0558  -38.3625 H         1 UNK         0.3472 
    114 H114       20.9294  -31.0688  -40.9770 H         1 UNK         0.0970 
    115 H115       19.2033  -31.2687  -41.1526 H         1 UNK         0.0970 
    116 H116       21.7853  -32.3615  -44.2737 H         1 UNK         0.0612 
    117 H117       21.7226  -31.0395  -43.1408 H         1 UNK         0.0612 
@<TRIPOS>BOND
     1    1    2 1    
     2    1   62 1    
     3    1   63 1    
     4    1   64 1    
     5    2    3 2    
     6    2    4 am   BACKBONE|DICT|INTERRES
     7    4    5 1    
     8    4   65 1    
     9    5    6 1    
    10    5   25 1    
    11    5   66 1    
    12    6    7 1    
    13    6   67 1    
    14    6   68 1    
    15    7    8 1    
    16    8    9 1    
    17    8   69 1    
    18    8   70 1    
    19    9   10 ar   
    20    9   14 ar   
    21   10   11 ar   
    22   10   71 1    
    23   11   12 ar   
    24   11   61 1    
    25   12   13 ar   
    26   12   72 1    
    27   13   14 ar   
    28   13   15 1    
    29   14   73 1    
    30   15   16 1    
    31   15   74 1    
    32   15   75 1    
    33   16   17 1    
    34   17   18 1    
    35   17   76 1    
    36   17   77 1    
    37   18   19 1    
    38   18   27 1    
    39   18   78 1    
    40   19   20 am   BACKBONE|DICT|INTERRES
    41   19   79 1    
    42   20   21 2    
    43   20   22 1    
    44   22   23 1    
    45   22   24 1    
    46   22   80 1    
    47   23   81 1    
    48   23   82 1    
    49   23   83 1    
    50   24   25 am   BACKBONE|DICT|INTERRES
    51   24   84 1    
    52   25   26 2    
    53   27   28 2    
    54   27   29 am   BACKBONE|DICT|INTERRES
    55   29   30 1    
    56   29   85 1    
    57   30   31 1    
    58   30   32 1    
    59   30   86 1    
    60   31   87 1    
    61   31   88 1    
    62   31   89 1    
    63   32   33 2    
    64   32   34 am   BACKBONE|DICT|INTERRES
    65   34   35 1    
    66   34   90 1    
    67   35   36 1    
    68   35   37 1    
    69   35   91 1    
    70   36   92 1    
    71   36   93 1    
    72   36   94 1    
    73   37   38 2    
    74   37   39 am   BACKBONE|DICT|INTERRES
    75   39   40 1    
    76   39   95 1    
    77   40   41 1    
    78   40   42 1    
    79   40   96 1    
    80   41   97 1    
    81   41   98 1    
    82   41   99 1    
    83   42   43 2    
    84   42   44 am   BACKBONE|DICT|INTERRES
    85   44   45 1    
    86   44  100 1    
    87   45   46 1    
    88   45   47 1    
    89   45  101 1    
    90   46  102 1    
    91   46  103 1    
    92   46  104 1    
    93   47   48 2    
    94   47   49 am   BACKBONE|DICT|INTERRES
    95   49   50 1    
    96   49  105 1    
    97   50   51 1    
    98   50   52 1    
    99   50  106 1    
   100   51  107 1    
   101   51  108 1    
   102   51  109 1    
   103   52   53 2    
   104   52   54 am   BACKBONE|DICT|INTERRES
   105   54   55 1    
   106   54  110 1    
   107   55   56 1    
   108   55   59 1    
   109   55  111 1    
   110   56   57 am   BACKBONE|DICT|INTERRES
   111   56   58 2    
   112   57  112 1    
   113   57  113 1    
   114   59   60 1    
   115   59  114 1    
   116   59  115 1    
   117   60   61 1    
   118   61  116 1    
   119   61  117 1    
@<TRIPOS>SUBSTRUCTURE
     1 UNK         1 GROUP             0       ****    0 ROOT    
