@<TRIPOS>MOLECULE
3R8
117   119    1
SMALL
USER_CHARGES


@<TRIPOS>ATOM
      1 CA         15.5665  -22.7584  -46.3286 C.3       0 UNK        -0.2013 
      2 C          15.6773  -24.2665  -46.1619 C.2       0 UNK         0.4866 
      3 O          15.6993  -24.9936  -47.1553 O.2       0 UNK        -0.5176 
      4 N          15.7489  -24.7427  -44.9154 N.am      1 UNK        -0.4884 
      5 CA         15.9108  -26.1489  -44.5542 C.3       1 UNK         0.0853 
      6 C6         14.5686  -26.9246  -44.6489 C.3       10 UNK        -0.0849 
      7 S7         14.6593  -28.7356  -44.4127 S.3       10 UNK        -0.2776 
      8 C8         15.6271  -29.3065  -45.8513 C.3       10 UNK         0.0316 
      9 C9         17.1208  -29.3385  -45.5501 C.ar      10 UNK        -0.0863 
     10 C10        17.6178  -30.2015  -44.5676 C.ar      10 UNK        -0.1009 
     11 C11        18.9810  -30.2203  -44.2599 C.ar      10 UNK        -0.0712 
     12 C12        19.8526  -29.3783  -44.9550 C.ar      10 UNK        -0.0894 
     13 C13        19.3709  -28.5102  -45.9379 C.ar      10 UNK        -0.0745 
     14 C14        18.0071  -28.5085  -46.2444 C.ar      10 UNK        -0.0972 
     15 C15        20.3193  -27.5742  -46.6727 C.3       10 UNK         0.0209 
     16 S16        20.4797  -25.9679  -45.8239 S.3       10 UNK        -0.2568 
     17 C17        21.7300  -26.3246  -44.5396 C.3       10 UNK        -0.0983 
     18 CA         21.2179  -26.0657  -43.0999 C.3       3 UNK         0.0876 
     19 N          20.0082  -26.8367  -42.8058 N.am      3 UNK        -0.4424 
     20 C          19.2894  -26.7823  -41.6762 C.2       2 UNK         0.4918 
     21 O          19.5677  -26.0703  -40.7096 O.2       2 UNK        -0.4875 
     22 CA         18.0128  -27.6436  -41.6697 C.3       2 UNK         0.0481 
     23 CB         17.2014  -27.5309  -40.3621 C.3       2 UNK        -0.1831 
     24 N          17.1777  -27.3664  -42.8450 N.am      2 UNK        -0.4498 
     25 C          16.5885  -26.2060  -43.1722 C.2       1 UNK         0.5027 
     26 O          16.5857  -25.2011  -42.4543 O.2       1 UNK        -0.4969 
     27 C          22.3385  -26.3593  -42.0822 C.2       3 UNK         0.5005 
     28 O          22.6400  -27.5298  -41.8353 O.2       3 UNK        -0.5279 
     29 N          22.9702  -25.3042  -41.5478 N.am      4 UNK        -0.4463 
     30 CA         24.0287  -25.3841  -40.5311 C.3       4 UNK         0.0283 
     31 CB         24.3913  -23.9667  -40.0600 C.3       4 UNK        -0.1875 
     32 C          25.2932  -26.1374  -40.9839 C.2       4 UNK         0.4949 
     33 O          25.9848  -26.7112  -40.1436 O.2       4 UNK        -0.5039 
     34 N          25.5585  -26.1441  -42.2977 N.am      5 UNK        -0.4663 
     35 CA         26.6356  -26.9165  -42.9225 C.3       5 UNK         0.0242 
     36 CB         26.8696  -26.3903  -44.3480 C.3       5 UNK        -0.1982 
     37 C          26.3582  -28.4315  -42.9482 C.2       5 UNK         0.5017 
     38 O          27.3102  -29.2123  -42.9710 O.2       5 UNK        -0.5012 
     39 N          25.0744  -28.8171  -42.9513 N.am      6 UNK        -0.4439 
     40 CA         24.6213  -30.2077  -42.9044 C.3       6 UNK         0.0297 
     41 CB         23.3190  -30.3409  -43.7045 C.3       6 UNK        -0.2006 
     42 C          24.4130  -30.6755  -41.4564 C.2       6 UNK         0.4892 
     43 O          24.7082  -31.8331  -41.1566 O.2       6 UNK        -0.5089 
     44 N          23.9206  -29.7702  -40.5944 N.am      7 UNK        -0.4243 
     45 CA         23.6973  -29.9225  -39.1530 C.3       7 UNK         0.0196 
     46 CB         25.0451  -29.9944  -38.4009 C.3       7 UNK        -0.2007 
     47 C          22.7492  -31.0920  -38.8351 C.2       7 UNK         0.5020 
     48 O          21.5328  -30.9206  -38.9138 O.2       7 UNK        -0.5147 
     49 N          23.3182  -32.2610  -38.5092 N.am      8 UNK        -0.4734 
     50 CA         22.6001  -33.5212  -38.2921 C.3       8 UNK         0.0238 
     51 CB         23.5624  -34.5467  -37.6707 C.3       8 UNK        -0.1912 
     52 C          21.9517  -34.0934  -39.5681 C.2       8 UNK         0.5038 
     53 O          21.0369  -34.9099  -39.4541 O.2       8 UNK        -0.5046 
     54 N          22.4170  -33.6510  -40.7458 N.am      9 UNK        -0.4200 
     55 CA         21.8889  -33.9994  -42.0748 C.3       9 UNK         0.0839 
     56 C          22.2239  -35.4449  -42.5529 C.2       9 UNK         0.5513 
     57 N          23.1601  -36.1461  -41.9243 N.am      9 UNK        -0.7519 
     58 O          21.6507  -35.9331  -43.5234 O.2       9 UNK        -0.4960 
     59 C59        20.3824  -33.6218  -42.2352 C.3       10 UNK        -0.0876 
     60 S60        20.0206  -32.7448  -43.7952 S.3       10 UNK        -0.2414 
     61 C61        19.5006  -31.1248  -43.1533 C.3       10 UNK         0.0169 
     62 H62        16.4121  -22.3815  -46.9033 H         1 UNK         0.0903 
     63 H63        14.6512  -22.5065  -46.8636 H         1 UNK         0.0903 
     64 H64        15.5512  -22.2421  -45.3689 H         1 UNK         0.0903 
     65 H65        15.7838  -24.1169  -44.1182 H         1 UNK         0.3096 
     66 H66        16.6179  -26.5671  -45.2653 H         1 UNK         0.1121 
     67 H67        14.1105  -26.7513  -45.6240 H         1 UNK         0.0849 
     68 H68        13.8598  -26.5266  -43.9205 H         1 UNK         0.0849 
     69 H69        15.3026  -30.3145  -46.1138 H         1 UNK         0.0865 
     70 H70        15.4079  -28.6811  -46.7185 H         1 UNK         0.0865 
     71 H71        16.9378  -30.8496  -44.0306 H         1 UNK         0.1346 
     72 H72        20.9069  -29.3941  -44.7297 H         1 UNK         0.1412 
     73 H73        17.6346  -27.8427  -47.0120 H         1 UNK         0.1426 
     74 H74        21.3006  -28.0356  -46.7942 H         1 UNK         0.0716 
     75 H75        19.9470  -27.3955  -47.6827 H         1 UNK         0.0716 
     76 H76        22.5949  -25.6925  -44.7500 H         1 UNK         0.0695 
     77 H77        22.0823  -27.3519  -44.6444 H         1 UNK         0.0695 
     78 H78        20.9448  -25.0116  -43.0176 H         1 UNK         0.0983 
     79 H79        19.6862  -27.4363  -43.5513 H         1 UNK         0.3095 
     80 H80        18.3390  -28.6802  -41.7597 H         1 UNK         0.0454 
     81 H81        16.8767  -26.5086  -40.1669 H         1 UNK         0.0851 
     82 H82        16.3153  -28.1647  -40.3901 H         1 UNK         0.0851 
     83 H83        17.7998  -27.8473  -39.5071 H         1 UNK         0.0851 
     84 H84        17.0900  -28.1326  -43.5018 H         1 UNK         0.2976 
     85 H85        22.6729  -24.3749  -41.8107 H         1 UNK         0.3116 
     86 H86        23.6192  -25.9309  -39.6789 H         1 UNK         0.0646 
     87 H87        23.5273  -23.4542  -39.6366 H         1 UNK         0.0847 
     88 H88        25.1574  -23.9976  -39.2838 H         1 UNK         0.0847 
     89 H89        24.7801  -23.3558  -40.8757 H         1 UNK         0.0847 
     90 H90        24.9526  -25.6194  -42.9113 H         1 UNK         0.3040 
     91 H91        27.5497  -26.7619  -42.3444 H         1 UNK         0.1015 
     92 H92        25.9845  -26.5092  -44.9744 H         1 UNK         0.0786 
     93 H93        27.6859  -26.9280  -44.8327 H         1 UNK         0.0786 
     94 H94        27.1392  -25.3339  -44.3422 H         1 UNK         0.0786 
     95 H95        24.3572  -28.1083  -42.8566 H         1 UNK         0.3172 
     96 H96        25.3701  -30.8532  -43.3684 H         1 UNK         0.0595 
     97 H97        22.5070  -29.7941  -43.2270 H         1 UNK         0.0839 
     98 H98        23.0104  -31.3827  -43.7821 H         1 UNK         0.0839 
     99 H99        23.4335  -29.9625  -44.7203 H         1 UNK         0.0839 
    100 H100       23.5991  -28.8869  -40.9844 H         1 UNK         0.2998 
    101 H101       23.1870  -29.0154  -38.8248 H         1 UNK         0.0822 
    102 H102       24.8910  -30.1183  -37.3281 H         1 UNK         0.0787 
    103 H103       25.6734  -30.8168  -38.7438 H         1 UNK         0.0787 
    104 H104       25.6128  -29.0737  -38.5382 H         1 UNK         0.0787 
    105 H105       24.3275  -32.3074  -38.5111 H         1 UNK         0.3055 
    106 H106       21.7924  -33.3303  -37.5818 H         1 UNK         0.1106 
    107 H107       23.9623  -34.1913  -36.7208 H         1 UNK         0.0828 
    108 H108       23.0525  -35.4904  -37.4715 H         1 UNK         0.0828 
    109 H109       24.4036  -34.7639  -38.3302 H         1 UNK         0.0828 
    110 H110       23.2057  -33.0104  -40.7433 H         1 UNK         0.2931 
    111 H111       22.4675  -33.3639  -42.7436 H         1 UNK         0.0412 
    112 H112       23.3794  -37.0768  -42.2437 H         1 UNK         0.3472 
    113 H113       23.6487  -35.7532  -41.1359 H         1 UNK         0.3472 
    114 H114       19.7420  -34.5035  -42.1693 H         1 UNK         0.0970 
    115 H115       20.0593  -32.9861  -41.4095 H         1 UNK         0.0970 
    116 H116       18.7210  -31.2680  -42.4033 H         1 UNK         0.0612 
    117 H117       20.3375  -30.6518  -42.6376 H         1 UNK         0.0612 
@<TRIPOS>BOND
     1    1    2 1    
     2    1   62 1    
     3    1   63 1    
     4    1   64 1    
     5    2    3 2    
     6    2    4 am   BACKBONE|DICT|INTERRES
     7    4    5 1    
     8    4   65 1    
     9    5    6 1    
    10    5   25 1    
    11    5   66 1    
    12    6    7 1    
    13    6   67 1    
    14    6   68 1    
    15    7    8 1    
    16    8    9 1    
    17    8   69 1    
    18    8   70 1    
    19    9   10 ar   
    20    9   14 ar   
    21   10   11 ar   
    22   10   71 1    
    23   11   12 ar   
    24   11   61 1    
    25   12   13 ar   
    26   12   72 1    
    27   13   14 ar   
    28   13   15 1    
    29   14   73 1    
    30   15   16 1    
    31   15   74 1    
    32   15   75 1    
    33   16   17 1    
    34   17   18 1    
    35   17   76 1    
    36   17   77 1    
    37   18   19 1    
    38   18   27 1    
    39   18   78 1    
    40   19   20 am   BACKBONE|DICT|INTERRES
    41   19   79 1    
    42   20   21 2    
    43   20   22 1    
    44   22   23 1    
    45   22   24 1    
    46   22   80 1    
    47   23   81 1    
    48   23   82 1    
    49   23   83 1    
    50   24   25 am   BACKBONE|DICT|INTERRES
    51   24   84 1    
    52   25   26 2    
    53   27   28 2    
    54   27   29 am   BACKBONE|DICT|INTERRES
    55   29   30 1    
    56   29   85 1    
    57   30   31 1    
    58   30   32 1    
    59   30   86 1    
    60   31   87 1    
    61   31   88 1    
    62   31   89 1    
    63   32   33 2    
    64   32   34 am   BACKBONE|DICT|INTERRES
    65   34   35 1    
    66   34   90 1    
    67   35   36 1    
    68   35   37 1    
    69   35   91 1    
    70   36   92 1    
    71   36   93 1    
    72   36   94 1    
    73   37   38 2    
    74   37   39 am   BACKBONE|DICT|INTERRES
    75   39   40 1    
    76   39   95 1    
    77   40   41 1    
    78   40   42 1    
    79   40   96 1    
    80   41   97 1    
    81   41   98 1    
    82   41   99 1    
    83   42   43 2    
    84   42   44 am   BACKBONE|DICT|INTERRES
    85   44   45 1    
    86   44  100 1    
    87   45   46 1    
    88   45   47 1    
    89   45  101 1    
    90   46  102 1    
    91   46  103 1    
    92   46  104 1    
    93   47   48 2    
    94   47   49 am   BACKBONE|DICT|INTERRES
    95   49   50 1    
    96   49  105 1    
    97   50   51 1    
    98   50   52 1    
    99   50  106 1    
   100   51  107 1    
   101   51  108 1    
   102   51  109 1    
   103   52   53 2    
   104   52   54 am   BACKBONE|DICT|INTERRES
   105   54   55 1    
   106   54  110 1    
   107   55   56 1    
   108   55   59 1    
   109   55  111 1    
   110   56   57 am   BACKBONE|DICT|INTERRES
   111   56   58 2    
   112   57  112 1    
   113   57  113 1    
   114   59   60 1    
   115   59  114 1    
   116   59  115 1    
   117   60   61 1    
   118   61  116 1    
   119   61  117 1    
@<TRIPOS>SUBSTRUCTURE
     1 UNK         1 GROUP             0       ****    0 ROOT    
