@<TRIPOS>MOLECULE
3R8
117   119    1
SMALL
USER_CHARGES


@<TRIPOS>ATOM
      1 CA         18.9846  -27.4174  -42.2228 C.3       0 UNK        -0.2013 
      2 C          18.5392  -26.3160  -43.1645 C.2       0 UNK         0.4866 
      3 O          19.0230  -25.1892  -43.0567 O.2       0 UNK        -0.5176 
      4 N          17.6215  -26.6324  -44.0864 N.am      1 UNK        -0.4884 
      5 CA         16.9530  -25.7004  -45.0059 C.3       1 UNK         0.0853 
      6 C6         15.6240  -26.2883  -45.5538 C.3       10 UNK        -0.0849 
      7 S7         14.5387  -26.9522  -44.2402 S.3       10 UNK        -0.2776 
      8 C8         14.4468  -28.7219  -44.6752 C.3       10 UNK         0.0316 
      9 C9         15.7671  -29.4577  -44.4715 C.ar      10 UNK        -0.0863 
     10 C10        16.1010  -29.9781  -43.2157 C.ar      10 UNK        -0.1009 
     11 C11        17.2806  -30.7111  -43.0406 C.ar      10 UNK        -0.0712 
     12 C12        18.1372  -30.9034  -44.1291 C.ar      10 UNK        -0.0894 
     13 C13        17.8215  -30.3801  -45.3850 C.ar      10 UNK        -0.0745 
     14 C14        16.6311  -29.6674  -45.5519 C.ar      10 UNK        -0.0972 
     15 C15        18.7450  -30.6188  -46.5714 C.3       10 UNK         0.0209 
     16 S16        19.6258  -29.1082  -47.0738 S.3       10 UNK        -0.2568 
     17 C17        20.7972  -28.8914  -45.6935 C.3       10 UNK        -0.0983 
     18 CA         21.6592  -27.6131  -45.8504 C.3       3 UNK         0.0876 
     19 N          20.8227  -26.4172  -45.9768 N.am      3 UNK        -0.4424 
     20 C          21.1795  -25.2545  -46.5373 C.2       2 UNK         0.4918 
     21 O          22.2892  -25.0495  -47.0291 O.2       2 UNK        -0.4875 
     22 CA         20.1414  -24.1116  -46.5093 C.3       2 UNK         0.0481 
     23 CB         19.8479  -23.5584  -47.9189 C.3       2 UNK        -0.1831 
     24 N          18.9156  -24.4581  -45.7714 N.am      2 UNK        -0.4498 
     25 C          17.9119  -25.2695  -46.1379 C.2       1 UNK         0.5027 
     26 O          17.7845  -25.7396  -47.2685 O.2       1 UNK        -0.4969 
     27 C          22.6734  -27.4996  -44.6910 C.2       3 UNK         0.5005 
     28 O          23.6576  -28.2382  -44.6987 O.2       3 UNK        -0.5279 
     29 N          22.4164  -26.5831  -43.7402 N.am      4 UNK        -0.4463 
     30 CA         23.1641  -26.3040  -42.5084 C.3       4 UNK         0.0283 
     31 CB         24.6267  -25.9082  -42.7998 C.3       4 UNK        -0.1875 
     32 C          23.0710  -27.4645  -41.5041 C.2       4 UNK         0.4949 
     33 O          23.8299  -28.4302  -41.5952 O.2       4 UNK        -0.5039 
     34 N          22.1403  -27.3493  -40.5478 N.am      5 UNK        -0.4663 
     35 CA         21.9679  -28.3100  -39.4538 C.3       5 UNK         0.0242 
     36 CB         20.7474  -27.9201  -38.6050 C.3       5 UNK        -0.1982 
     37 C          23.2282  -28.4126  -38.5742 C.2       5 UNK         0.5017 
     38 O          23.8504  -27.3876  -38.2893 O.2       5 UNK        -0.5012 
     39 N          23.5646  -29.6486  -38.1867 N.am      6 UNK        -0.4439 
     40 CA         24.7633  -30.1191  -37.4780 C.3       6 UNK         0.0297 
     41 CB         25.2600  -29.1715  -36.3668 C.3       6 UNK        -0.2006 
     42 C          25.8896  -30.5416  -38.4363 C.2       6 UNK         0.4892 
     43 O          26.7018  -31.3833  -38.0501 O.2       6 UNK        -0.5089 
     44 N          25.8953  -30.0183  -39.6712 N.am      7 UNK        -0.4243 
     45 CA         26.6177  -30.6136  -40.7978 C.3       7 UNK         0.0196 
     46 CB         27.0991  -29.5213  -41.7686 C.3       7 UNK        -0.2007 
     47 C          25.6873  -31.6248  -41.4845 C.2       7 UNK         0.5020 
     48 O          26.0476  -32.7938  -41.6238 O.2       7 UNK        -0.5147 
     49 N          24.4814  -31.1634  -41.8353 N.am      8 UNK        -0.4734 
     50 CA         23.3343  -31.9827  -42.2185 C.3       8 UNK         0.0238 
     51 CB         22.5602  -31.2368  -43.3216 C.3       8 UNK        -0.1912 
     52 C          22.4320  -32.2334  -40.9957 C.2       8 UNK         0.5038 
     53 O          22.7047  -31.7313  -39.9010 O.2       8 UNK        -0.5046 
     54 N          21.3430  -32.9779  -41.2186 N.am      9 UNK        -0.4200 
     55 CA         20.2539  -33.2289  -40.2551 C.3       9 UNK         0.0839 
     56 C          20.6131  -34.2097  -39.0986 C.2       9 UNK         0.5513 
     57 N          21.7316  -34.9223  -39.1567 N.am      9 UNK        -0.7519 
     58 O          19.8503  -34.3531  -38.1464 O.2       9 UNK        -0.4960 
     59 C59        19.5583  -31.9323  -39.7320 C.3       10 UNK        -0.0876 
     60 S60        19.1904  -30.7064  -41.0335 S.3       10 UNK        -0.2414 
     61 C61        17.6174  -31.3365  -41.6930 C.3       10 UNK         0.0169 
     62 H62        19.9092  -27.8784  -42.5670 H         1 UNK         0.0903 
     63 H63        19.1529  -27.0094  -41.2279 H         1 UNK         0.0903 
     64 H64        18.2210  -28.1879  -42.1378 H         1 UNK         0.0903 
     65 H65        17.2693  -27.5812  -44.1248 H         1 UNK         0.3096 
     66 H66        16.6972  -24.8008  -44.4408 H         1 UNK         0.1121 
     67 H67        15.8130  -27.0689  -46.2905 H         1 UNK         0.0849 
     68 H68        15.0693  -25.5138  -46.0866 H         1 UNK         0.0849 
     69 H69        13.6746  -29.1900  -44.0627 H         1 UNK         0.0865 
     70 H70        14.1073  -28.8243  -45.7073 H         1 UNK         0.0865 
     71 H71        15.4289  -29.8320  -42.3808 H         1 UNK         0.1346 
     72 H72        19.0477  -31.4715  -43.9957 H         1 UNK         0.1412 
     73 H73        16.3775  -29.2874  -46.5322 H         1 UNK         0.1426 
     74 H74        18.1550  -30.9773  -47.4161 H         1 UNK         0.0716 
     75 H75        19.4704  -31.4039  -46.3522 H         1 UNK         0.0716 
     76 H76        21.4331  -29.7776  -45.6525 H         1 UNK         0.0695 
     77 H77        20.2358  -28.8681  -44.7584 H         1 UNK         0.0695 
     78 H78        22.2435  -27.7121  -46.7682 H         1 UNK         0.0983 
     79 H79        19.8705  -26.5099  -45.6581 H         1 UNK         0.3095 
     80 H80        20.6019  -23.3057  -45.9363 H         1 UNK         0.0454 
     81 H81        19.0983  -22.7679  -47.8893 H         1 UNK         0.0851 
     82 H82        19.4954  -24.3337  -48.5994 H         1 UNK         0.0851 
     83 H83        20.7492  -23.1332  -48.3619 H         1 UNK         0.0851 
     84 H84        18.9457  -24.2261  -44.7816 H         1 UNK         0.2976 
     85 H85        21.5759  -26.0349  -43.8572 H         1 UNK         0.3116 
     86 H86        22.6848  -25.4339  -42.0567 H         1 UNK         0.0646 
     87 H87        25.2000  -26.7306  -43.2284 H         1 UNK         0.0847 
     88 H88        25.1352  -25.6104  -41.8821 H         1 UNK         0.0847 
     89 H89        24.6806  -25.0668  -43.4902 H         1 UNK         0.0847 
     90 H90        21.5787  -26.5116  -40.5079 H         1 UNK         0.3040 
     91 H91        21.7712  -29.2830  -39.9075 H         1 UNK         0.1015 
     92 H92        20.8468  -26.9164  -38.1900 H         1 UNK         0.0786 
     93 H93        20.6202  -28.6080  -37.7678 H         1 UNK         0.0786 
     94 H94        19.8276  -27.9588  -39.1874 H         1 UNK         0.0786 
     95 H95        23.0215  -30.4117  -38.5905 H         1 UNK         0.3172 
     96 H96        24.4388  -31.0359  -36.9831 H         1 UNK         0.0595 
     97 H97        25.7263  -28.2734  -36.7726 H         1 UNK         0.0839 
     98 H98        26.0109  -29.6658  -35.7492 H         1 UNK         0.0839 
     99 H99        24.4476  -28.8658  -35.7076 H         1 UNK         0.0839 
    100 H100       25.1832  -29.3390  -39.9061 H         1 UNK         0.2998 
    101 H101       27.4987  -31.1499  -40.4381 H         1 UNK         0.0822 
    102 H102       27.7534  -28.8086  -41.2665 H         1 UNK         0.0787 
    103 H103       27.6665  -29.9596  -42.5904 H         1 UNK         0.0787 
    104 H104       26.2745  -28.9620  -42.2096 H         1 UNK         0.0787 
    105 H105       24.2787  -30.1742  -41.6948 H         1 UNK         0.3055 
    106 H106       23.6729  -32.9468  -42.6040 H         1 UNK         0.1106 
    107 H107       21.7437  -31.8389  -43.7206 H         1 UNK         0.0828 
    108 H108       22.1286  -30.3056  -42.9508 H         1 UNK         0.0828 
    109 H109       23.2120  -30.9876  -44.1592 H         1 UNK         0.0828 
    110 H110       21.2035  -33.3730  -42.1366 H         1 UNK         0.2931 
    111 H111       19.5048  -33.7682  -40.8353 H         1 UNK         0.0412 
    112 H112       22.3643  -34.8168  -39.9333 H         1 UNK         0.3472 
    113 H113       21.9500  -35.5622  -38.4091 H         1 UNK         0.3472 
    114 H114       20.1887  -31.4415  -38.9888 H         1 UNK         0.0970 
    115 H115       18.6299  -32.1794  -39.2141 H         1 UNK         0.0970 
    116 H116       16.8271  -31.1505  -40.9643 H         1 UNK         0.0612 
    117 H117       17.6810  -32.4181  -41.8179 H         1 UNK         0.0612 
@<TRIPOS>BOND
     1    1    2 1    
     2    1   62 1    
     3    1   63 1    
     4    1   64 1    
     5    2    3 2    
     6    2    4 am   BACKBONE|DICT|INTERRES
     7    4    5 1    
     8    4   65 1    
     9    5    6 1    
    10    5   25 1    
    11    5   66 1    
    12    6    7 1    
    13    6   67 1    
    14    6   68 1    
    15    7    8 1    
    16    8    9 1    
    17    8   69 1    
    18    8   70 1    
    19    9   10 ar   
    20    9   14 ar   
    21   10   11 ar   
    22   10   71 1    
    23   11   12 ar   
    24   11   61 1    
    25   12   13 ar   
    26   12   72 1    
    27   13   14 ar   
    28   13   15 1    
    29   14   73 1    
    30   15   16 1    
    31   15   74 1    
    32   15   75 1    
    33   16   17 1    
    34   17   18 1    
    35   17   76 1    
    36   17   77 1    
    37   18   19 1    
    38   18   27 1    
    39   18   78 1    
    40   19   20 am   BACKBONE|DICT|INTERRES
    41   19   79 1    
    42   20   21 2    
    43   20   22 1    
    44   22   23 1    
    45   22   24 1    
    46   22   80 1    
    47   23   81 1    
    48   23   82 1    
    49   23   83 1    
    50   24   25 am   BACKBONE|DICT|INTERRES
    51   24   84 1    
    52   25   26 2    
    53   27   28 2    
    54   27   29 am   BACKBONE|DICT|INTERRES
    55   29   30 1    
    56   29   85 1    
    57   30   31 1    
    58   30   32 1    
    59   30   86 1    
    60   31   87 1    
    61   31   88 1    
    62   31   89 1    
    63   32   33 2    
    64   32   34 am   BACKBONE|DICT|INTERRES
    65   34   35 1    
    66   34   90 1    
    67   35   36 1    
    68   35   37 1    
    69   35   91 1    
    70   36   92 1    
    71   36   93 1    
    72   36   94 1    
    73   37   38 2    
    74   37   39 am   BACKBONE|DICT|INTERRES
    75   39   40 1    
    76   39   95 1    
    77   40   41 1    
    78   40   42 1    
    79   40   96 1    
    80   41   97 1    
    81   41   98 1    
    82   41   99 1    
    83   42   43 2    
    84   42   44 am   BACKBONE|DICT|INTERRES
    85   44   45 1    
    86   44  100 1    
    87   45   46 1    
    88   45   47 1    
    89   45  101 1    
    90   46  102 1    
    91   46  103 1    
    92   46  104 1    
    93   47   48 2    
    94   47   49 am   BACKBONE|DICT|INTERRES
    95   49   50 1    
    96   49  105 1    
    97   50   51 1    
    98   50   52 1    
    99   50  106 1    
   100   51  107 1    
   101   51  108 1    
   102   51  109 1    
   103   52   53 2    
   104   52   54 am   BACKBONE|DICT|INTERRES
   105   54   55 1    
   106   54  110 1    
   107   55   56 1    
   108   55   59 1    
   109   55  111 1    
   110   56   57 am   BACKBONE|DICT|INTERRES
   111   56   58 2    
   112   57  112 1    
   113   57  113 1    
   114   59   60 1    
   115   59  114 1    
   116   59  115 1    
   117   60   61 1    
   118   61  116 1    
   119   61  117 1    
@<TRIPOS>SUBSTRUCTURE
     1 UNK         1 GROUP             0       ****    0 ROOT    
