@<TRIPOS>MOLECULE
3R8
117   119    1
SMALL
USER_CHARGES


@<TRIPOS>ATOM
      1 CA         19.8508  -24.6663  -44.9337 C.3       0 UNK        -0.2013 
      2 C          18.9150  -24.1892  -46.0385 C.2       0 UNK         0.4866 
      3 O          19.2721  -23.2676  -46.7695 O.2       0 UNK        -0.5176 
      4 N          17.7236  -24.7765  -46.2213 N.am      1 UNK        -0.4884 
      5 CA         17.0795  -25.8152  -45.4049 C.3       1 UNK         0.0853 
      6 C6         15.8229  -26.3337  -46.1556 C.3       10 UNK        -0.0849 
      7 S7         14.8913  -27.6713  -45.3280 S.3       10 UNK        -0.2776 
      8 C8         15.3058  -29.1247  -46.3397 C.3       10 UNK         0.0316 
      9 C9         16.6204  -29.7596  -45.9120 C.ar      10 UNK        -0.0863 
     10 C10        16.6259  -30.7601  -44.9353 C.ar      10 UNK        -0.1009 
     11 C11        17.8162  -31.4002  -44.5795 C.ar      10 UNK        -0.0712 
     12 C12        19.0102  -31.0269  -45.2027 C.ar      10 UNK        -0.0894 
     13 C13        19.0206  -30.0129  -46.1658 C.ar      10 UNK        -0.0745 
     14 C14        17.8227  -29.3834  -46.5178 C.ar      10 UNK        -0.0972 
     15 C15        20.3172  -29.6227  -46.8590 C.3       10 UNK         0.0209 
     16 S16        21.0734  -28.1483  -46.1081 S.3       10 UNK        -0.2568 
     17 C17        21.7398  -28.8195  -44.5481 C.3       10 UNK        -0.0983 
     18 CA         21.1913  -28.0998  -43.2908 C.3       3 UNK         0.0876 
     19 N          19.7192  -28.1227  -43.2436 N.am      3 UNK        -0.4424 
     20 C          18.9527  -27.2398  -42.5934 C.2       2 UNK         0.4918 
     21 O          19.4044  -26.3669  -41.8507 O.2       2 UNK        -0.4875 
     22 CA         17.4358  -27.3567  -42.7816 C.3       2 UNK         0.0481 
     23 CB         16.8046  -28.0615  -41.5723 C.3       2 UNK        -0.1831 
     24 N          16.8467  -26.0208  -42.9037 N.am      2 UNK        -0.4498 
     25 C          16.7196  -25.2582  -44.0009 C.2       1 UNK         0.5027 
     26 O          16.2892  -24.1067  -43.9209 O.2       1 UNK        -0.4969 
     27 C          21.8628  -28.6113  -41.9904 C.2       3 UNK         0.5005 
     28 O          22.9119  -29.2588  -42.0446 O.2       3 UNK        -0.5279 
     29 N          21.2647  -28.3105  -40.8302 N.am      4 UNK        -0.4463 
     30 CA         21.7617  -28.6787  -39.5019 C.3       4 UNK         0.0283 
     31 CB         20.6800  -28.3924  -38.4500 C.3       4 UNK        -0.1875 
     32 C          23.0783  -27.9718  -39.1432 C.2       4 UNK         0.4949 
     33 O          23.9252  -28.5730  -38.4847 O.2       4 UNK        -0.5039 
     34 N          23.2589  -26.7387  -39.6390 N.am      5 UNK        -0.4663 
     35 CA         24.4913  -25.9525  -39.5068 C.3       5 UNK         0.0242 
     36 CB         24.2293  -24.5206  -40.0005 C.3       5 UNK        -0.1982 
     37 C          25.6961  -26.5648  -40.2474 C.2       5 UNK         0.5017 
     38 O          26.8346  -26.3237  -39.8464 O.2       5 UNK        -0.5012 
     39 N          25.4231  -27.3573  -41.2933 N.am      6 UNK        -0.4439 
     40 CA         26.4115  -28.1280  -42.0509 C.3       6 UNK         0.0297 
     41 CB         25.9834  -28.1542  -43.5289 C.3       6 UNK        -0.2006 
     42 C          26.5757  -29.5631  -41.5122 C.2       6 UNK         0.4892 
     43 O          27.3574  -30.3228  -42.0849 O.2       6 UNK        -0.5089 
     44 N          25.8239  -29.9199  -40.4565 N.am      7 UNK        -0.4243 
     45 CA         25.6988  -31.2520  -39.8510 C.3       7 UNK         0.0196 
     46 CB         27.0379  -31.7171  -39.2401 C.3       7 UNK        -0.2007 
     47 C          25.0742  -32.3015  -40.7942 C.2       7 UNK         0.5020 
     48 O          25.2711  -33.4993  -40.5864 O.2       7 UNK        -0.5147 
     49 N          24.3103  -31.8448  -41.7960 N.am      8 UNK        -0.4734 
     50 CA         23.6269  -32.6834  -42.7855 C.3       8 UNK         0.0238 
     51 CB         23.8477  -32.0735  -44.1801 C.3       8 UNK        -0.1912 
     52 C          22.1288  -32.8557  -42.4739 C.2       8 UNK         0.5038 
     53 O          21.4355  -33.5435  -43.2236 O.2       8 UNK        -0.5046 
     54 N          21.6576  -32.2405  -41.3833 N.am      9 UNK        -0.4200 
     55 CA         20.2823  -32.3175  -40.8738 C.3       9 UNK         0.0839 
     56 C          20.2222  -32.2882  -39.3186 C.2       9 UNK         0.5513 
     57 N          21.2987  -32.6230  -38.6155 N.am      9 UNK        -0.7519 
     58 O          19.1952  -31.9583  -38.7330 O.2       9 UNK        -0.4960 
     59 C59        19.3586  -31.2744  -41.5638 C.3       10 UNK        -0.0876 
     60 S60        17.6739  -31.9100  -41.8504 S.3       10 UNK        -0.2414 
     61 C61        17.7992  -32.5276  -43.5568 C.3       10 UNK         0.0169 
     62 H62        19.5108  -24.3200  -43.9582 H         1 UNK         0.0903 
     63 H63        19.9222  -25.7502  -44.9233 H         1 UNK         0.0903 
     64 H64        20.8564  -24.2777  -45.0929 H         1 UNK         0.0903 
     65 H65        17.1402  -24.4056  -46.9576 H         1 UNK         0.3096 
     66 H66        17.7909  -26.6353  -45.3219 H         1 UNK         0.1121 
     67 H67        15.1229  -25.5114  -46.3179 H         1 UNK         0.0849 
     68 H68        16.1076  -26.6683  -47.1542 H         1 UNK         0.0849 
     69 H69        14.5008  -29.8544  -46.2394 H         1 UNK         0.0865 
     70 H70        15.3305  -28.8594  -47.3977 H         1 UNK         0.0865 
     71 H71        15.6988  -31.0568  -44.4634 H         1 UNK         0.1346 
     72 H72        19.9280  -31.5395  -44.9474 H         1 UNK         0.1412 
     73 H73        17.8258  -28.6136  -47.2777 H         1 UNK         0.1426 
     74 H74        21.0299  -30.4490  -46.8449 H         1 UNK         0.0716 
     75 H75        20.1183  -29.4150  -47.9114 H         1 UNK         0.0716 
     76 H76        21.5384  -29.8885  -44.4875 H         1 UNK         0.0695 
     77 H77        22.8244  -28.7165  -44.6042 H         1 UNK         0.0695 
     78 H78        21.4975  -27.0544  -43.3721 H         1 UNK         0.0983 
     79 H79        19.2766  -28.8186  -43.8284 H         1 UNK         0.3095 
     80 H80        17.2229  -27.9599  -43.6630 H         1 UNK         0.0454 
     81 H81        15.7275  -28.1725  -41.6994 H         1 UNK         0.0851 
     82 H82        17.2149  -29.0617  -41.4430 H         1 UNK         0.0851 
     83 H83        16.9795  -27.5166  -40.6436 H         1 UNK         0.0851 
     84 H84        16.6117  -25.5881  -42.0225 H         1 UNK         0.2976 
     85 H85        20.4477  -27.7089  -40.8726 H         1 UNK         0.3116 
     86 H86        21.9594  -29.7519  -39.5021 H         1 UNK         0.0646 
     87 H87        21.0214  -28.6766  -37.4536 H         1 UNK         0.0847 
     88 H88        19.7710  -28.9598  -38.6511 H         1 UNK         0.0847 
     89 H89        20.4162  -27.3346  -38.4159 H         1 UNK         0.0847 
     90 H90        22.5033  -26.3178  -40.1606 H         1 UNK         0.3040 
     91 H91        24.7510  -25.9103  -38.4465 H         1 UNK         0.1015 
     92 H92        23.4334  -24.0425  -39.4290 H         1 UNK         0.0786 
     93 H93        23.9468  -24.5005  -41.0539 H         1 UNK         0.0786 
     94 H94        25.1205  -23.9008  -39.8906 H         1 UNK         0.0786 
     95 H95        24.4541  -27.5238  -41.5291 H         1 UNK         0.3172 
     96 H96        27.3865  -27.6405  -41.9883 H         1 UNK         0.0595 
     97 H97        25.0493  -28.6983  -43.6686 H         1 UNK         0.0839 
     98 H98        26.7376  -28.6448  -44.1457 H         1 UNK         0.0839 
     99 H99        25.8503  -27.1472  -43.9243 H         1 UNK         0.0839 
    100 H100       25.2305  -29.2126  -40.0390 H         1 UNK         0.2998 
    101 H101       24.9906  -31.1372  -39.0290 H         1 UNK         0.0822 
    102 H102       27.4553  -30.9596  -38.5768 H         1 UNK         0.0787 
    103 H103       26.9045  -32.6241  -38.6492 H         1 UNK         0.0787 
    104 H104       27.7801  -31.9383  -40.0076 H         1 UNK         0.0787 
    105 H105       24.1508  -30.8441  -41.8776 H         1 UNK         0.3055 
    106 H106       24.0567  -33.6876  -42.7899 H         1 UNK         0.1106 
    107 H107       23.3034  -32.6234  -44.9491 H         1 UNK         0.0828 
    108 H108       23.5228  -31.0361  -44.2219 H         1 UNK         0.0828 
    109 H109       24.9028  -32.0972  -44.4530 H         1 UNK         0.0828 
    110 H110       22.2983  -31.6816  -40.8399 H         1 UNK         0.2931 
    111 H111       19.9168  -33.3145  -41.1275 H         1 UNK         0.0412 
    112 H112       21.2461  -32.6015  -37.6089 H         1 UNK         0.3472 
    113 H113       22.1261  -32.9807  -39.0645 H         1 UNK         0.3472 
    114 H114       19.7755  -30.9690  -42.5220 H         1 UNK         0.0970 
    115 H115       19.2930  -30.3586  -40.9750 H         1 UNK         0.0970 
    116 H116       18.6876  -33.1542  -43.6516 H         1 UNK         0.0612 
    117 H117       16.9467  -33.1788  -43.7549 H         1 UNK         0.0612 
@<TRIPOS>BOND
     1    1    2 1    
     2    1   62 1    
     3    1   63 1    
     4    1   64 1    
     5    2    3 2    
     6    2    4 am   BACKBONE|DICT|INTERRES
     7    4    5 1    
     8    4   65 1    
     9    5    6 1    
    10    5   25 1    
    11    5   66 1    
    12    6    7 1    
    13    6   67 1    
    14    6   68 1    
    15    7    8 1    
    16    8    9 1    
    17    8   69 1    
    18    8   70 1    
    19    9   10 ar   
    20    9   14 ar   
    21   10   11 ar   
    22   10   71 1    
    23   11   12 ar   
    24   11   61 1    
    25   12   13 ar   
    26   12   72 1    
    27   13   14 ar   
    28   13   15 1    
    29   14   73 1    
    30   15   16 1    
    31   15   74 1    
    32   15   75 1    
    33   16   17 1    
    34   17   18 1    
    35   17   76 1    
    36   17   77 1    
    37   18   19 1    
    38   18   27 1    
    39   18   78 1    
    40   19   20 am   BACKBONE|DICT|INTERRES
    41   19   79 1    
    42   20   21 2    
    43   20   22 1    
    44   22   23 1    
    45   22   24 1    
    46   22   80 1    
    47   23   81 1    
    48   23   82 1    
    49   23   83 1    
    50   24   25 am   BACKBONE|DICT|INTERRES
    51   24   84 1    
    52   25   26 2    
    53   27   28 2    
    54   27   29 am   BACKBONE|DICT|INTERRES
    55   29   30 1    
    56   29   85 1    
    57   30   31 1    
    58   30   32 1    
    59   30   86 1    
    60   31   87 1    
    61   31   88 1    
    62   31   89 1    
    63   32   33 2    
    64   32   34 am   BACKBONE|DICT|INTERRES
    65   34   35 1    
    66   34   90 1    
    67   35   36 1    
    68   35   37 1    
    69   35   91 1    
    70   36   92 1    
    71   36   93 1    
    72   36   94 1    
    73   37   38 2    
    74   37   39 am   BACKBONE|DICT|INTERRES
    75   39   40 1    
    76   39   95 1    
    77   40   41 1    
    78   40   42 1    
    79   40   96 1    
    80   41   97 1    
    81   41   98 1    
    82   41   99 1    
    83   42   43 2    
    84   42   44 am   BACKBONE|DICT|INTERRES
    85   44   45 1    
    86   44  100 1    
    87   45   46 1    
    88   45   47 1    
    89   45  101 1    
    90   46  102 1    
    91   46  103 1    
    92   46  104 1    
    93   47   48 2    
    94   47   49 am   BACKBONE|DICT|INTERRES
    95   49   50 1    
    96   49  105 1    
    97   50   51 1    
    98   50   52 1    
    99   50  106 1    
   100   51  107 1    
   101   51  108 1    
   102   51  109 1    
   103   52   53 2    
   104   52   54 am   BACKBONE|DICT|INTERRES
   105   54   55 1    
   106   54  110 1    
   107   55   56 1    
   108   55   59 1    
   109   55  111 1    
   110   56   57 am   BACKBONE|DICT|INTERRES
   111   56   58 2    
   112   57  112 1    
   113   57  113 1    
   114   59   60 1    
   115   59  114 1    
   116   59  115 1    
   117   60   61 1    
   118   61  116 1    
   119   61  117 1    
@<TRIPOS>SUBSTRUCTURE
     1 UNK         1 GROUP             0       ****    0 ROOT    
