@<TRIPOS>MOLECULE
3R8
117   119    1
SMALL
USER_CHARGES


@<TRIPOS>ATOM
      1 CA         17.7403  -28.1337  -41.0721 C.3       0 UNK        -0.2013 
      2 C          17.5090  -26.8775  -41.8950 C.2       0 UNK         0.4866 
      3 O          17.5665  -25.7725  -41.3558 O.2       0 UNK        -0.5176 
      4 N          17.2262  -27.0438  -43.1941 N.am      1 UNK        -0.4884 
      5 CA         16.8991  -25.9583  -44.1288 C.3       1 UNK         0.0853 
      6 C6         16.3525  -26.4696  -45.4888 C.3       10 UNK        -0.0849 
      7 S7         14.9816  -27.6681  -45.3332 S.3       10 UNK        -0.2776 
      8 C8         15.7355  -29.1987  -45.9818 C.3       10 UNK         0.0316 
      9 C9         16.7597  -29.7731  -45.0139 C.ar      10 UNK        -0.0863 
     10 C10        16.3452  -30.5989  -43.9641 C.ar      10 UNK        -0.1009 
     11 C11        17.2724  -31.0910  -43.0411 C.ar      10 UNK        -0.0712 
     12 C12        18.6196  -30.7475  -43.1756 C.ar      10 UNK        -0.0894 
     13 C13        19.0532  -29.9432  -44.2317 C.ar      10 UNK        -0.0745 
     14 C14        18.1168  -29.4650  -45.1542 C.ar      10 UNK        -0.0972 
     15 C15        20.5211  -29.5445  -44.3084 C.3       10 UNK         0.0209 
     16 S16        21.2182  -29.5928  -45.9888 S.3       10 UNK        -0.2568 
     17 C17        22.8543  -28.8532  -45.6672 C.3       10 UNK        -0.0983 
     18 CA         23.0340  -27.4728  -46.3542 C.3       3 UNK         0.0876 
     19 N          21.9990  -26.4769  -46.0227 N.am      3 UNK        -0.4424 
     20 C          21.6620  -25.9703  -44.8273 C.2       2 UNK         0.4918 
     21 O          22.1816  -26.3079  -43.7612 O.2       2 UNK        -0.4875 
     22 CA         20.5512  -24.9125  -44.8173 C.3       2 UNK         0.0481 
     23 CB         20.5071  -24.0731  -46.1172 C.3       2 UNK        -0.1831 
     24 N          19.2826  -25.5928  -44.5654 N.am      2 UNK        -0.4498 
     25 C          18.0920  -25.0098  -44.3656 C.2       1 UNK         0.5027 
     26 O          17.9074  -23.7918  -44.3636 O.2       1 UNK        -0.4969 
     27 C          24.4633  -26.9319  -46.1422 C.2       3 UNK         0.5005 
     28 O          25.2643  -26.9272  -47.0781 O.2       3 UNK        -0.5279 
     29 N          24.7359  -26.4660  -44.9219 N.am      4 UNK        -0.4463 
     30 CA         25.9555  -25.8056  -44.4711 C.3       4 UNK         0.0283 
     31 CB         27.1352  -26.7931  -44.3703 C.3       4 UNK        -0.1875 
     32 C          25.6525  -25.1448  -43.1236 C.2       4 UNK         0.4949 
     33 O          25.8194  -23.9335  -42.9852 O.2       4 UNK        -0.5039 
     34 N          25.1597  -25.9533  -42.1767 N.am      5 UNK        -0.4663 
     35 CA         24.7138  -25.5390  -40.8475 C.3       5 UNK         0.0242 
     36 CB         25.9253  -25.2205  -39.9442 C.3       5 UNK        -0.1982 
     37 C          23.8040  -26.6314  -40.2654 C.2       5 UNK         0.5017 
     38 O          24.0885  -27.1567  -39.1880 O.2       5 UNK        -0.5012 
     39 N          22.7629  -27.0120  -41.0227 N.am      6 UNK        -0.4439 
     40 CA         21.7489  -28.0452  -40.7452 C.3       6 UNK         0.0297 
     41 CB         20.9604  -27.7394  -39.4566 C.3       6 UNK        -0.2006 
     42 C          22.2630  -29.4981  -40.7407 C.2       6 UNK         0.4892 
     43 O          21.5078  -30.3946  -41.1186 O.2       6 UNK        -0.5089 
     44 N          23.5152  -29.7145  -40.3113 N.am      7 UNK        -0.4243 
     45 CA         24.2693  -30.9779  -40.3157 C.3       7 UNK         0.0196 
     46 CB         24.6238  -31.3662  -41.7673 C.3       7 UNK        -0.2007 
     47 C          23.5823  -32.1339  -39.5573 C.2       7 UNK         0.5020 
     48 O          23.8051  -33.2999  -39.8884 O.2       7 UNK        -0.5147 
     49 N          22.7170  -31.7910  -38.5891 N.am      8 UNK        -0.4734 
     50 CA         21.8193  -32.6800  -37.8348 C.3       8 UNK         0.0238 
     51 CB         22.6313  -33.5659  -36.8661 C.3       8 UNK        -0.1912 
     52 C          20.8630  -33.5085  -38.7239 C.2       8 UNK         0.5038 
     53 O          20.3845  -34.5558  -38.2847 O.2       8 UNK        -0.5046 
     54 N          20.6115  -33.0391  -39.9559 N.am      9 UNK        -0.4200 
     55 CA         19.8970  -33.7598  -41.0201 C.3       9 UNK         0.0839 
     56 C          20.6328  -35.0316  -41.5473 C.2       9 UNK         0.5513 
     57 N          21.9355  -35.1794  -41.3298 N.am      9 UNK        -0.7519 
     58 O          20.0272  -35.8887  -42.1855 O.2       9 UNK        -0.4960 
     59 C59        18.3935  -33.9872  -40.6769 C.3       10 UNK        -0.0876 
     60 S60        17.2857  -33.6998  -42.1016 S.3       10 UNK        -0.2414 
     61 C61        16.8172  -31.9528  -41.8723 C.3       10 UNK         0.0169 
     62 H62        16.9401  -28.8540  -41.2379 H         1 UNK         0.0903 
     63 H63        17.7628  -27.8992  -40.0081 H         1 UNK         0.0903 
     64 H64        18.6886  -28.5965  -41.3392 H         1 UNK         0.0903 
     65 H65        17.1601  -27.9801  -43.5748 H         1 UNK         0.3096 
     66 H66        16.1110  -25.3650  -43.6592 H         1 UNK         0.1121 
     67 H67        15.9786  -25.6262  -46.0730 H         1 UNK         0.0849 
     68 H68        17.1484  -26.9063  -46.0928 H         1 UNK         0.0849 
     69 H69        14.9469  -29.9322  -46.1569 H         1 UNK         0.0865 
     70 H70        16.1876  -29.0067  -46.9562 H         1 UNK         0.0865 
     71 H71        15.2966  -30.8408  -43.8550 H         1 UNK         0.1346 
     72 H72        19.3318  -31.0869  -42.4391 H         1 UNK         0.1412 
     73 H73        18.4437  -28.8337  -45.9687 H         1 UNK         0.1426 
     74 H74        21.1256  -30.2034  -43.6846 H         1 UNK         0.0716 
     75 H75        20.6236  -28.5423  -43.8962 H         1 UNK         0.0716 
     76 H76        23.6046  -29.5554  -46.0359 H         1 UNK         0.0695 
     77 H77        23.0218  -28.7798  -44.5910 H         1 UNK         0.0695 
     78 H78        22.9345  -27.6387  -47.4286 H         1 UNK         0.0983 
     79 H79        21.5065  -26.1129  -46.8256 H         1 UNK         0.3095 
     80 H80        20.7535  -24.2426  -43.9794 H         1 UNK         0.0454 
     81 H81        21.4988  -23.7050  -46.3848 H         1 UNK         0.0851 
     82 H82        19.8752  -23.1931  -46.0002 H         1 UNK         0.0851 
     83 H83        20.1199  -24.6407  -46.9639 H         1 UNK         0.0851 
     84 H84        19.3352  -26.5995  -44.4983 H         1 UNK         0.2976 
     85 H85        23.9553  -26.4403  -44.2688 H         1 UNK         0.3116 
     86 H86        26.2101  -25.0199  -45.1854 H         1 UNK         0.0646 
     87 H87        28.0175  -26.3037  -43.9558 H         1 UNK         0.0847 
     88 H88        27.4149  -27.1800  -45.3501 H         1 UNK         0.0847 
     89 H89        26.9029  -27.6455  -43.7314 H         1 UNK         0.0847 
     90 H90        25.0718  -26.9402  -42.3782 H         1 UNK         0.3040 
     91 H91        24.1051  -24.6370  -40.9428 H         1 UNK         0.1015 
     92 H92        26.5165  -24.3951  -40.3406 H         1 UNK         0.0786 
     93 H93        26.5845  -26.0828  -39.8380 H         1 UNK         0.0786 
     94 H94        25.6021  -24.9291  -38.9439 H         1 UNK         0.0786 
     95 H95        22.6455  -26.5579  -41.9263 H         1 UNK         0.3172 
     96 H96        21.0457  -27.9795  -41.5759 H         1 UNK         0.0595 
     97 H97        21.5975  -27.7402  -38.5722 H         1 UNK         0.0839 
     98 H98        20.1831  -28.4856  -39.2879 H         1 UNK         0.0839 
     99 H99        20.4691  -26.7682  -39.5159 H         1 UNK         0.0839 
    100 H100       23.9993  -28.9076  -39.9259 H         1 UNK         0.2998 
    101 H101       25.2018  -30.7816  -39.7847 H         1 UNK         0.0822 
    102 H102       23.7346  -31.6302  -42.3414 H         1 UNK         0.0787 
    103 H103       25.1266  -30.5496  -42.2854 H         1 UNK         0.0787 
    104 H104       25.2954  -32.2252  -41.7935 H         1 UNK         0.0787 
    105 H105       22.6015  -30.8028  -38.4105 H         1 UNK         0.3055 
    106 H106       21.1777  -32.0334  -37.2339 H         1 UNK         0.1106 
    107 H107       23.2467  -34.2903  -37.4007 H         1 UNK         0.0828 
    108 H108       23.2890  -32.9669  -36.2364 H         1 UNK         0.0828 
    109 H109       21.9740  -34.1272  -36.2008 H         1 UNK         0.0828 
    110 H110       21.0443  -32.1657  -40.2401 H         1 UNK         0.2931 
    111 H111       19.9495  -33.0776  -41.8655 H         1 UNK         0.0412 
    112 H112       22.4012  -36.0003  -41.6825 H         1 UNK         0.3472 
    113 H113       22.4649  -34.4854  -40.8119 H         1 UNK         0.3472 
    114 H114       18.2291  -34.9991  -40.3019 H         1 UNK         0.0970 
    115 H115       18.0779  -33.3377  -39.8596 H         1 UNK         0.0970 
    116 H116       15.7339  -31.8972  -41.7550 H         1 UNK         0.0612 
    117 H117       17.2406  -31.5516  -40.9510 H         1 UNK         0.0612 
@<TRIPOS>BOND
     1    1    2 1    
     2    1   62 1    
     3    1   63 1    
     4    1   64 1    
     5    2    3 2    
     6    2    4 am   BACKBONE|DICT|INTERRES
     7    4    5 1    
     8    4   65 1    
     9    5    6 1    
    10    5   25 1    
    11    5   66 1    
    12    6    7 1    
    13    6   67 1    
    14    6   68 1    
    15    7    8 1    
    16    8    9 1    
    17    8   69 1    
    18    8   70 1    
    19    9   10 ar   
    20    9   14 ar   
    21   10   11 ar   
    22   10   71 1    
    23   11   12 ar   
    24   11   61 1    
    25   12   13 ar   
    26   12   72 1    
    27   13   14 ar   
    28   13   15 1    
    29   14   73 1    
    30   15   16 1    
    31   15   74 1    
    32   15   75 1    
    33   16   17 1    
    34   17   18 1    
    35   17   76 1    
    36   17   77 1    
    37   18   19 1    
    38   18   27 1    
    39   18   78 1    
    40   19   20 am   BACKBONE|DICT|INTERRES
    41   19   79 1    
    42   20   21 2    
    43   20   22 1    
    44   22   23 1    
    45   22   24 1    
    46   22   80 1    
    47   23   81 1    
    48   23   82 1    
    49   23   83 1    
    50   24   25 am   BACKBONE|DICT|INTERRES
    51   24   84 1    
    52   25   26 2    
    53   27   28 2    
    54   27   29 am   BACKBONE|DICT|INTERRES
    55   29   30 1    
    56   29   85 1    
    57   30   31 1    
    58   30   32 1    
    59   30   86 1    
    60   31   87 1    
    61   31   88 1    
    62   31   89 1    
    63   32   33 2    
    64   32   34 am   BACKBONE|DICT|INTERRES
    65   34   35 1    
    66   34   90 1    
    67   35   36 1    
    68   35   37 1    
    69   35   91 1    
    70   36   92 1    
    71   36   93 1    
    72   36   94 1    
    73   37   38 2    
    74   37   39 am   BACKBONE|DICT|INTERRES
    75   39   40 1    
    76   39   95 1    
    77   40   41 1    
    78   40   42 1    
    79   40   96 1    
    80   41   97 1    
    81   41   98 1    
    82   41   99 1    
    83   42   43 2    
    84   42   44 am   BACKBONE|DICT|INTERRES
    85   44   45 1    
    86   44  100 1    
    87   45   46 1    
    88   45   47 1    
    89   45  101 1    
    90   46  102 1    
    91   46  103 1    
    92   46  104 1    
    93   47   48 2    
    94   47   49 am   BACKBONE|DICT|INTERRES
    95   49   50 1    
    96   49  105 1    
    97   50   51 1    
    98   50   52 1    
    99   50  106 1    
   100   51  107 1    
   101   51  108 1    
   102   51  109 1    
   103   52   53 2    
   104   52   54 am   BACKBONE|DICT|INTERRES
   105   54   55 1    
   106   54  110 1    
   107   55   56 1    
   108   55   59 1    
   109   55  111 1    
   110   56   57 am   BACKBONE|DICT|INTERRES
   111   56   58 2    
   112   57  112 1    
   113   57  113 1    
   114   59   60 1    
   115   59  114 1    
   116   59  115 1    
   117   60   61 1    
   118   61  116 1    
   119   61  117 1    
@<TRIPOS>SUBSTRUCTURE
     1 UNK         1 GROUP             0       ****    0 ROOT    
