@<TRIPOS>MOLECULE
3R8
117   119    1
SMALL
USER_CHARGES


@<TRIPOS>ATOM
      1 CA         11.4021  -25.8529  -44.3552 C.3       0 UNK        -0.2013 
      2 C          12.8035  -25.4400  -44.7799 C.2       0 UNK         0.4866 
      3 O          12.9663  -24.4176  -45.4470 O.2       0 UNK        -0.5176 
      4 N          13.8154  -26.2224  -44.3966 N.am      1 UNK        -0.4884 
      5 CA         15.2270  -25.9960  -44.7021 C.3       1 UNK         0.0853 
      6 C6         15.6127  -26.4188  -46.1476 C.3       10 UNK        -0.0849 
      7 S7         15.1883  -28.1495  -46.5669 S.3       10 UNK        -0.2776 
      8 C8         16.7191  -28.7486  -47.3605 C.3       10 UNK         0.0316 
      9 C9         17.8261  -29.1889  -46.4008 C.ar      10 UNK        -0.0863 
     10 C10        17.5482  -29.9040  -45.2284 C.ar      10 UNK        -0.1009 
     11 C11        18.5861  -30.4071  -44.4344 C.ar      10 UNK        -0.0712 
     12 C12        19.9139  -30.1837  -44.8129 C.ar      10 UNK        -0.0894 
     13 C13        20.2061  -29.4687  -45.9773 C.ar      10 UNK        -0.0745 
     14 C14        19.1599  -28.9703  -46.7597 C.ar      10 UNK        -0.0972 
     15 C15        21.6450  -29.2933  -46.4408 C.3       10 UNK         0.0209 
     16 S16        22.2450  -27.5943  -46.1932 S.3       10 UNK        -0.2568 
     17 C17        22.8288  -27.6322  -44.4684 C.3       10 UNK        -0.0983 
     18 CA         22.0460  -26.6474  -43.5703 C.3       3 UNK         0.0876 
     19 N          20.6638  -27.0740  -43.3383 N.am      3 UNK        -0.4424 
     20 C          19.6819  -26.2436  -42.9725 C.2       2 UNK         0.4918 
     21 O          19.8049  -25.0205  -42.8798 O.2       2 UNK        -0.4875 
     22 CA         18.3340  -26.8826  -42.6425 C.3       2 UNK         0.0481 
     23 CB         18.0308  -26.7768  -41.1346 C.3       2 UNK        -0.1831 
     24 N          17.3051  -26.2382  -43.4474 N.am      2 UNK        -0.4498 
     25 C          16.0740  -26.7201  -43.6456 C.2       1 UNK         0.5027 
     26 O          15.6073  -27.7006  -43.0569 O.2       1 UNK        -0.4969 
     27 C          22.7849  -26.4303  -42.2372 C.2       3 UNK         0.5005 
     28 O          23.4814  -25.4245  -42.0919 O.2       3 UNK        -0.5279 
     29 N          22.6314  -27.3821  -41.3011 N.am      4 UNK        -0.4463 
     30 CA         23.2250  -27.4638  -39.9566 C.3       4 UNK         0.0283 
     31 CB         22.7616  -26.2986  -39.0615 C.3       4 UNK        -0.1875 
     32 C          24.7589  -27.6074  -39.9387 C.2       4 UNK         0.4949 
     33 O          25.2725  -28.5324  -39.3106 O.2       4 UNK        -0.5039 
     34 N          25.4680  -26.7217  -40.6493 N.am      5 UNK        -0.4663 
     35 CA         26.9274  -26.7239  -40.8060 C.3       5 UNK         0.0242 
     36 CB         27.3639  -25.4081  -41.4691 C.3       5 UNK        -0.1982 
     37 C          27.4504  -27.9309  -41.6055 C.2       5 UNK         0.5017 
     38 O          28.5865  -28.3536  -41.3922 O.2       5 UNK        -0.5012 
     39 N          26.5985  -28.4794  -42.4820 N.am      6 UNK        -0.4439 
     40 CA         26.8309  -29.7095  -43.2434 C.3       6 UNK         0.0297 
     41 CB         26.1244  -29.5896  -44.6064 C.3       6 UNK        -0.2006 
     42 C          26.3661  -30.9737  -42.4890 C.2       6 UNK         0.4892 
     43 O          26.3049  -32.0390  -43.1042 O.2       6 UNK        -0.5089 
     44 N          26.0306  -30.8399  -41.1953 N.am      7 UNK        -0.4243 
     45 CA         25.4246  -31.8475  -40.3222 C.3       7 UNK         0.0196 
     46 CB         26.3533  -33.0686  -40.1216 C.3       7 UNK        -0.2007 
     47 C          23.9985  -32.1800  -40.7953 C.2       7 UNK         0.5020 
     48 O          23.1915  -31.2567  -40.9307 O.2       7 UNK        -0.5147 
     49 N          23.7026  -33.4699  -41.0145 N.am      8 UNK        -0.4734 
     50 CA         22.3951  -34.0242  -41.3860 C.3       8 UNK         0.0238 
     51 CB         21.9950  -33.5832  -42.8150 C.3       8 UNK        -0.1912 
     52 C          21.3440  -33.7081  -40.3056 C.2       8 UNK         0.5038 
     53 O          21.4091  -34.2902  -39.2216 O.2       8 UNK        -0.5046 
     54 N          20.4246  -32.7855  -40.6060 N.am      9 UNK        -0.4200 
     55 CA         19.4460  -32.2247  -39.6655 C.3       9 UNK         0.0839 
     56 C          20.0394  -31.2285  -38.6249 C.2       9 UNK         0.5513 
     57 N          21.2703  -30.7529  -38.7753 N.am      9 UNK        -0.7519 
     58 O          19.3696  -30.8938  -37.6512 O.2       9 UNK        -0.4960 
     59 C59        18.2262  -31.6274  -40.4140 C.3       10 UNK        -0.0876 
     60 S60        18.6848  -30.3742  -41.6625 S.3       10 UNK        -0.2414 
     61 C61        18.2762  -31.2476  -43.2036 C.3       10 UNK         0.0169 
     62 H62        10.7758  -26.0109  -45.2328 H         1 UNK         0.0903 
     63 H63        11.4078  -26.7743  -43.7729 H         1 UNK         0.0903 
     64 H64        10.9476  -25.0705  -43.7480 H         1 UNK         0.0903 
     65 H65        13.6568  -27.0437  -43.8244 H         1 UNK         0.3096 
     66 H66        15.4246  -24.9271  -44.5896 H         1 UNK         0.1121 
     67 H67        16.6778  -26.2509  -46.3182 H         1 UNK         0.0849 
     68 H68        15.1009  -25.7720  -46.8617 H         1 UNK         0.0849 
     69 H69        16.4611  -29.6067  -47.9825 H         1 UNK         0.0865 
     70 H70        17.0825  -27.9810  -48.0458 H         1 UNK         0.0865 
     71 H71        16.5216  -30.0989  -44.9498 H         1 UNK         0.1346 
     72 H72        20.7167  -30.5929  -44.2150 H         1 UNK         0.1412 
     73 H73        19.3916  -28.4421  -47.6750 H         1 UNK         0.1426 
     74 H74        21.7027  -29.5259  -47.5052 H         1 UNK         0.0716 
     75 H75        22.3101  -30.0028  -45.9460 H         1 UNK         0.0716 
     76 H76        22.7783  -28.6471  -44.0700 H         1 UNK         0.0695 
     77 H77        23.8875  -27.3663  -44.4958 H         1 UNK         0.0695 
     78 H78        22.0265  -25.6790  -44.0769 H         1 UNK         0.0983 
     79 H79        20.4593  -28.0560  -43.4542 H         1 UNK         0.3095 
     80 H80        18.3677  -27.9305  -42.9352 H         1 UNK         0.0454 
     81 H81        17.9138  -25.7395  -40.8191 H         1 UNK         0.0851 
     82 H82        18.8396  -27.2100  -40.5445 H         1 UNK         0.0851 
     83 H83        17.1212  -27.3145  -40.8684 H         1 UNK         0.0851 
     84 H84        17.6154  -25.4189  -43.9539 H         1 UNK         0.2976 
     85 H85        22.0562  -28.1761  -41.5457 H         1 UNK         0.3116 
     86 H86        22.8269  -28.3818  -39.5219 H         1 UNK         0.0646 
     87 H87        23.1147  -25.3336  -39.4259 H         1 UNK         0.0847 
     88 H88        23.1379  -26.4168  -38.0445 H         1 UNK         0.0847 
     89 H89        21.6741  -26.2553  -39.0011 H         1 UNK         0.0847 
     90 H90        24.9411  -26.0117  -41.1563 H         1 UNK         0.3040 
     91 H91        27.3735  -26.7749  -39.8101 H         1 UNK         0.1015 
     92 H92        26.9253  -25.2907  -42.4610 H         1 UNK         0.0786 
     93 H93        28.4482  -25.3684  -41.5837 H         1 UNK         0.0786 
     94 H94        27.0710  -24.5461  -40.8691 H         1 UNK         0.0786 
     95 H95        25.6858  -28.0575  -42.5680 H         1 UNK         0.3172 
     96 H96        27.9015  -29.8193  -43.4287 H         1 UNK         0.0595 
     97 H97        26.3918  -30.4224  -45.2583 H         1 UNK         0.0839 
     98 H98        26.4062  -28.6737  -45.1263 H         1 UNK         0.0839 
     99 H99        25.0396  -29.6007  -44.5015 H         1 UNK         0.0839 
    100 H100       26.0752  -29.9135  -40.7884 H         1 UNK         0.2998 
    101 H101       25.3073  -31.3677  -39.3492 H         1 UNK         0.0822 
    102 H102       25.9533  -33.7468  -39.3667 H         1 UNK         0.0787 
    103 H103       26.4983  -33.6406  -41.0385 H         1 UNK         0.0787 
    104 H104       27.3375  -32.7545  -39.7735 H         1 UNK         0.0787 
    105 H105       24.4337  -34.1487  -40.8533 H         1 UNK         0.3055 
    106 H106       22.5020  -35.1104  -41.3953 H         1 UNK         0.1106 
    107 H107       21.0346  -34.0119  -43.1050 H         1 UNK         0.0828 
    108 H108       21.9200  -32.5005  -42.9174 H         1 UNK         0.0828 
    109 H109       22.7286  -33.9261  -43.5448 H         1 UNK         0.0828 
    110 H110       20.4875  -32.3162  -41.4964 H         1 UNK         0.2931 
    111 H111       19.0647  -33.0595  -39.0739 H         1 UNK         0.0412 
    112 H112       21.8353  -31.0057  -39.5803 H         1 UNK         0.3472 
    113 H113       21.6369  -30.1226  -38.0813 H         1 UNK         0.3472 
    114 H114       17.6703  -32.4325  -40.8966 H         1 UNK         0.0970 
    115 H115       17.5225  -31.1765  -39.7117 H         1 UNK         0.0970 
    116 H116       18.8393  -32.1806  -43.2528 H         1 UNK         0.0612 
    117 H117       17.2205  -31.5227  -43.1854 H         1 UNK         0.0612 
@<TRIPOS>BOND
     1    1    2 1    
     2    1   62 1    
     3    1   63 1    
     4    1   64 1    
     5    2    3 2    
     6    2    4 am   BACKBONE|DICT|INTERRES
     7    4    5 1    
     8    4   65 1    
     9    5    6 1    
    10    5   25 1    
    11    5   66 1    
    12    6    7 1    
    13    6   67 1    
    14    6   68 1    
    15    7    8 1    
    16    8    9 1    
    17    8   69 1    
    18    8   70 1    
    19    9   10 ar   
    20    9   14 ar   
    21   10   11 ar   
    22   10   71 1    
    23   11   12 ar   
    24   11   61 1    
    25   12   13 ar   
    26   12   72 1    
    27   13   14 ar   
    28   13   15 1    
    29   14   73 1    
    30   15   16 1    
    31   15   74 1    
    32   15   75 1    
    33   16   17 1    
    34   17   18 1    
    35   17   76 1    
    36   17   77 1    
    37   18   19 1    
    38   18   27 1    
    39   18   78 1    
    40   19   20 am   BACKBONE|DICT|INTERRES
    41   19   79 1    
    42   20   21 2    
    43   20   22 1    
    44   22   23 1    
    45   22   24 1    
    46   22   80 1    
    47   23   81 1    
    48   23   82 1    
    49   23   83 1    
    50   24   25 am   BACKBONE|DICT|INTERRES
    51   24   84 1    
    52   25   26 2    
    53   27   28 2    
    54   27   29 am   BACKBONE|DICT|INTERRES
    55   29   30 1    
    56   29   85 1    
    57   30   31 1    
    58   30   32 1    
    59   30   86 1    
    60   31   87 1    
    61   31   88 1    
    62   31   89 1    
    63   32   33 2    
    64   32   34 am   BACKBONE|DICT|INTERRES
    65   34   35 1    
    66   34   90 1    
    67   35   36 1    
    68   35   37 1    
    69   35   91 1    
    70   36   92 1    
    71   36   93 1    
    72   36   94 1    
    73   37   38 2    
    74   37   39 am   BACKBONE|DICT|INTERRES
    75   39   40 1    
    76   39   95 1    
    77   40   41 1    
    78   40   42 1    
    79   40   96 1    
    80   41   97 1    
    81   41   98 1    
    82   41   99 1    
    83   42   43 2    
    84   42   44 am   BACKBONE|DICT|INTERRES
    85   44   45 1    
    86   44  100 1    
    87   45   46 1    
    88   45   47 1    
    89   45  101 1    
    90   46  102 1    
    91   46  103 1    
    92   46  104 1    
    93   47   48 2    
    94   47   49 am   BACKBONE|DICT|INTERRES
    95   49   50 1    
    96   49  105 1    
    97   50   51 1    
    98   50   52 1    
    99   50  106 1    
   100   51  107 1    
   101   51  108 1    
   102   51  109 1    
   103   52   53 2    
   104   52   54 am   BACKBONE|DICT|INTERRES
   105   54   55 1    
   106   54  110 1    
   107   55   56 1    
   108   55   59 1    
   109   55  111 1    
   110   56   57 am   BACKBONE|DICT|INTERRES
   111   56   58 2    
   112   57  112 1    
   113   57  113 1    
   114   59   60 1    
   115   59  114 1    
   116   59  115 1    
   117   60   61 1    
   118   61  116 1    
   119   61  117 1    
@<TRIPOS>SUBSTRUCTURE
     1 UNK         1 GROUP             0       ****    0 ROOT    
