@<TRIPOS>MOLECULE
3R8
117   119    1
SMALL
USER_CHARGES


@<TRIPOS>ATOM
      1 CA         16.4109  -25.8810  -48.5507 C.3       0 UNK        -0.2013 
      2 C          17.0146  -26.3267  -47.2278 C.2       0 UNK         0.4866 
      3 O          18.1848  -26.0493  -46.9631 O.2       0 UNK        -0.5176 
      4 N          16.2245  -27.0057  -46.3864 N.am      1 UNK        -0.4884 
      5 CA         16.6185  -27.5410  -45.0751 C.3       1 UNK         0.0853 
      6 C6         15.7259  -28.7395  -44.6642 C.3       10 UNK        -0.0849 
      7 S7         16.0359  -30.1710  -45.7542 S.3       10 UNK        -0.2776 
      8 C8         16.9163  -31.3259  -44.6492 C.3       10 UNK         0.0316 
      9 C9         18.1020  -30.6924  -43.9285 C.ar      10 UNK        -0.0863 
     10 C10        18.0850  -30.5686  -42.5363 C.ar      10 UNK        -0.1009 
     11 C11        19.1773  -30.0250  -41.8555 C.ar      10 UNK        -0.0712 
     12 C12        20.2971  -29.6028  -42.5774 C.ar      10 UNK        -0.0894 
     13 C13        20.3203  -29.7029  -43.9724 C.ar      10 UNK        -0.0745 
     14 C14        19.2203  -30.2497  -44.6422 C.ar      10 UNK        -0.0972 
     15 C15        21.5356  -29.2384  -44.7609 C.3       10 UNK         0.0209 
     16 S16        21.4005  -27.4907  -45.2521 S.3       10 UNK        -0.2568 
     17 C17        22.1328  -26.6661  -43.8000 C.3       10 UNK        -0.0983 
     18 CA         21.6293  -25.2177  -43.5947 C.3       3 UNK         0.0876 
     19 N          20.1757  -25.1831  -43.4328 N.am      3 UNK        -0.4424 
     20 C          19.4053  -24.0888  -43.4594 C.2       2 UNK         0.4918 
     21 O          19.8368  -22.9452  -43.6158 O.2       2 UNK        -0.4875 
     22 CA         17.8934  -24.3446  -43.3498 C.3       2 UNK         0.0481 
     23 CB         17.0366  -23.1113  -43.6917 C.3       2 UNK        -0.1831 
     24 N          17.5491  -25.4503  -44.2393 N.am      2 UNK        -0.4498 
     25 C          16.6737  -26.4307  -44.0031 C.2       1 UNK         0.5027 
     26 O          15.9443  -26.4745  -43.0107 O.2       1 UNK        -0.4969 
     27 C          22.3570  -24.5762  -42.3948 C.2       3 UNK         0.5005 
     28 O          21.8261  -24.5582  -41.2806 O.2       3 UNK        -0.5279 
     29 N          23.5890  -24.1079  -42.6386 N.am      4 UNK        -0.4463 
     30 CA         24.4821  -23.5350  -41.6247 C.3       4 UNK         0.0283 
     31 CB         25.6001  -22.7483  -42.3290 C.3       4 UNK        -0.1875 
     32 C          25.0863  -24.5784  -40.6636 C.2       4 UNK         0.4949 
     33 O          25.5809  -24.1963  -39.6026 O.2       4 UNK        -0.5039 
     34 N          25.0472  -25.8612  -41.0415 N.am      5 UNK        -0.4663 
     35 CA         25.5031  -26.9980  -40.2480 C.3       5 UNK         0.0242 
     36 CB         26.9479  -27.3519  -40.6408 C.3       5 UNK        -0.1982 
     37 C          24.5621  -28.1803  -40.5007 C.2       5 UNK         0.5017 
     38 O          23.9369  -28.2503  -41.5630 O.2       5 UNK        -0.5012 
     39 N          24.4958  -29.1045  -39.5357 N.am      6 UNK        -0.4439 
     40 CA         23.6690  -30.3123  -39.5795 C.3       6 UNK         0.0297 
     41 CB         23.4387  -30.8116  -38.1405 C.3       6 UNK        -0.2006 
     42 C          24.2840  -31.3947  -40.4864 C.2       6 UNK         0.4892 
     43 O          24.7599  -32.4179  -39.9921 O.2       6 UNK        -0.5089 
     44 N          24.3079  -31.1235  -41.7972 N.am      7 UNK        -0.4243 
     45 CA         24.8769  -32.0105  -42.8124 C.3       7 UNK         0.0196 
     46 CB         25.1408  -31.2210  -44.1051 C.3       7 UNK        -0.2007 
     47 C          23.9959  -33.2392  -43.0897 C.2       7 UNK         0.5020 
     48 O          24.5245  -34.3480  -43.1767 O.2       7 UNK        -0.5147 
     49 N          22.6814  -33.0222  -43.2390 N.am      8 UNK        -0.4734 
     50 CA         21.7120  -34.0775  -43.5529 C.3       8 UNK         0.0238 
     51 CB         20.7245  -33.5735  -44.6166 C.3       8 UNK        -0.1912 
     52 C          20.9548  -34.5562  -42.3069 C.2       8 UNK         0.5038 
     53 O          20.7655  -35.7632  -42.1490 O.2       8 UNK        -0.5046 
     54 N          20.5204  -33.6134  -41.4602 N.am      9 UNK        -0.4200 
     55 CA         19.8117  -33.8845  -40.2018 C.3       9 UNK         0.0839 
     56 C          20.7163  -34.5109  -39.1025 C.2       9 UNK         0.5513 
     57 N          20.1203  -35.1676  -38.1160 N.am      9 UNK        -0.7519 
     58 O          21.9394  -34.3942  -39.1182 O.2       9 UNK        -0.4960 
     59 C59        19.0387  -32.6367  -39.6958 C.3       10 UNK        -0.0876 
     60 S60        20.0812  -31.1525  -39.4764 S.3       10 UNK        -0.2414 
     61 C61        19.1345  -29.8631  -40.3430 C.3       10 UNK         0.0169 
     62 H62        15.3724  -26.1957  -48.6524 H         1 UNK         0.0903 
     63 H63        16.4463  -24.7950  -48.6319 H         1 UNK         0.0903 
     64 H64        16.9760  -26.3036  -49.3810 H         1 UNK         0.0903 
     65 H65        15.2681  -27.1907  -46.6544 H         1 UNK         0.3096 
     66 H66        17.6426  -27.9136  -45.1559 H         1 UNK         0.1121 
     67 H67        14.6691  -28.4721  -44.7182 H         1 UNK         0.0849 
     68 H68        15.9052  -29.0327  -43.6286 H         1 UNK         0.0849 
     69 H69        16.2020  -31.7336  -43.9321 H         1 UNK         0.0865 
     70 H70        17.2704  -32.1743  -45.2364 H         1 UNK         0.0865 
     71 H71        17.2172  -30.8949  -41.9796 H         1 UNK         0.1346 
     72 H72        21.1447  -29.1896  -42.0482 H         1 UNK         0.1412 
     73 H73        19.2346  -30.3368  -45.7204 H         1 UNK         0.1426 
     74 H74        21.6487  -29.8482  -45.6586 H         1 UNK         0.0716 
     75 H75        22.4450  -29.3842  -44.1772 H         1 UNK         0.0716 
     76 H76        21.9167  -27.2556  -42.9096 H         1 UNK         0.0695 
     77 H77        23.2169  -26.6896  -43.9258 H         1 UNK         0.0695 
     78 H78        21.8712  -24.6339  -44.4857 H         1 UNK         0.0983 
     79 H79        19.7312  -26.0786  -43.2995 H         1 UNK         0.3095 
     80 H80        17.6965  -24.6301  -42.3145 H         1 UNK         0.0454 
     81 H81        17.2652  -22.2787  -43.0254 H         1 UNK         0.0851 
     82 H82        17.2109  -22.7721  -44.7135 H         1 UNK         0.0851 
     83 H83        15.9733  -23.3266  -43.5869 H         1 UNK         0.0851 
     84 H84        18.0678  -25.4980  -45.1148 H         1 UNK         0.2976 
     85 H85        23.9569  -24.1661  -43.5782 H         1 UNK         0.3116 
     86 H86        23.9040  -22.8336  -41.0191 H         1 UNK         0.0646 
     87 H87        26.2625  -22.2760  -41.6020 H         1 UNK         0.0847 
     88 H88        25.1947  -21.9541  -42.9561 H         1 UNK         0.0847 
     89 H89        26.2157  -23.3938  -42.9568 H         1 UNK         0.0847 
     90 H90        24.5660  -26.1123  -41.8949 H         1 UNK         0.3040 
     91 H91        25.4616  -26.7474  -39.1853 H         1 UNK         0.1015 
     92 H92        27.0239  -27.6194  -41.6957 H         1 UNK         0.0786 
     93 H93        27.3179  -28.1986  -40.0611 H         1 UNK         0.0786 
     94 H94        27.6233  -26.5157  -40.4585 H         1 UNK         0.0786 
     95 H95        25.0777  -28.9929  -38.7175 H         1 UNK         0.3172 
     96 H96        22.6982  -30.0485  -40.0019 H         1 UNK         0.0595 
     97 H97        22.9075  -30.0702  -37.5436 H         1 UNK         0.0839 
     98 H98        24.3765  -31.0448  -37.6350 H         1 UNK         0.0839 
     99 H99        22.8341  -31.7200  -38.1366 H         1 UNK         0.0839 
    100 H100       23.9806  -30.2100  -42.0941 H         1 UNK         0.2998 
    101 H101       25.8395  -32.3709  -42.4420 H         1 UNK         0.0822 
    102 H102       25.7846  -30.3604  -43.9212 H         1 UNK         0.0787 
    103 H103       25.6417  -31.8473  -44.8446 H         1 UNK         0.0787 
    104 H104       24.2191  -30.8604  -44.5606 H         1 UNK         0.0787 
    105 H105       22.3328  -32.0797  -43.1501 H         1 UNK         0.3055 
    106 H106       22.2287  -34.9436  -43.9736 H         1 UNK         0.1106 
    107 H107       20.1001  -32.7691  -44.2333 H         1 UNK         0.0828 
    108 H108       21.2419  -33.2081  -45.5037 H         1 UNK         0.0828 
    109 H109       20.0566  -34.3743  -44.9364 H         1 UNK         0.0828 
    110 H110       20.7316  -32.6446  -41.6408 H         1 UNK         0.2931 
    111 H111       19.0580  -34.6399  -40.4345 H         1 UNK         0.0412 
    112 H112       20.6867  -35.5745  -37.3877 H         1 UNK         0.3472 
    113 H113       19.1179  -35.2737  -38.0877 H         1 UNK         0.3472 
    114 H114       18.5397  -32.8481  -38.7484 H         1 UNK         0.0970 
    115 H115       18.2334  -32.4137  -40.3947 H         1 UNK         0.0970 
    116 H116       18.1054  -29.8637  -39.9804 H         1 UNK         0.0612 
    117 H117       19.5490  -28.8901  -40.0752 H         1 UNK         0.0612 
@<TRIPOS>BOND
     1    1    2 1    
     2    1   62 1    
     3    1   63 1    
     4    1   64 1    
     5    2    3 2    
     6    2    4 am   BACKBONE|DICT|INTERRES
     7    4    5 1    
     8    4   65 1    
     9    5    6 1    
    10    5   25 1    
    11    5   66 1    
    12    6    7 1    
    13    6   67 1    
    14    6   68 1    
    15    7    8 1    
    16    8    9 1    
    17    8   69 1    
    18    8   70 1    
    19    9   10 ar   
    20    9   14 ar   
    21   10   11 ar   
    22   10   71 1    
    23   11   12 ar   
    24   11   61 1    
    25   12   13 ar   
    26   12   72 1    
    27   13   14 ar   
    28   13   15 1    
    29   14   73 1    
    30   15   16 1    
    31   15   74 1    
    32   15   75 1    
    33   16   17 1    
    34   17   18 1    
    35   17   76 1    
    36   17   77 1    
    37   18   19 1    
    38   18   27 1    
    39   18   78 1    
    40   19   20 am   BACKBONE|DICT|INTERRES
    41   19   79 1    
    42   20   21 2    
    43   20   22 1    
    44   22   23 1    
    45   22   24 1    
    46   22   80 1    
    47   23   81 1    
    48   23   82 1    
    49   23   83 1    
    50   24   25 am   BACKBONE|DICT|INTERRES
    51   24   84 1    
    52   25   26 2    
    53   27   28 2    
    54   27   29 am   BACKBONE|DICT|INTERRES
    55   29   30 1    
    56   29   85 1    
    57   30   31 1    
    58   30   32 1    
    59   30   86 1    
    60   31   87 1    
    61   31   88 1    
    62   31   89 1    
    63   32   33 2    
    64   32   34 am   BACKBONE|DICT|INTERRES
    65   34   35 1    
    66   34   90 1    
    67   35   36 1    
    68   35   37 1    
    69   35   91 1    
    70   36   92 1    
    71   36   93 1    
    72   36   94 1    
    73   37   38 2    
    74   37   39 am   BACKBONE|DICT|INTERRES
    75   39   40 1    
    76   39   95 1    
    77   40   41 1    
    78   40   42 1    
    79   40   96 1    
    80   41   97 1    
    81   41   98 1    
    82   41   99 1    
    83   42   43 2    
    84   42   44 am   BACKBONE|DICT|INTERRES
    85   44   45 1    
    86   44  100 1    
    87   45   46 1    
    88   45   47 1    
    89   45  101 1    
    90   46  102 1    
    91   46  103 1    
    92   46  104 1    
    93   47   48 2    
    94   47   49 am   BACKBONE|DICT|INTERRES
    95   49   50 1    
    96   49  105 1    
    97   50   51 1    
    98   50   52 1    
    99   50  106 1    
   100   51  107 1    
   101   51  108 1    
   102   51  109 1    
   103   52   53 2    
   104   52   54 am   BACKBONE|DICT|INTERRES
   105   54   55 1    
   106   54  110 1    
   107   55   56 1    
   108   55   59 1    
   109   55  111 1    
   110   56   57 am   BACKBONE|DICT|INTERRES
   111   56   58 2    
   112   57  112 1    
   113   57  113 1    
   114   59   60 1    
   115   59  114 1    
   116   59  115 1    
   117   60   61 1    
   118   61  116 1    
   119   61  117 1    
@<TRIPOS>SUBSTRUCTURE
     1 UNK         1 GROUP             0       ****    0 ROOT    
