@<TRIPOS>MOLECULE
3R8
117   119    1
SMALL
USER_CHARGES


@<TRIPOS>ATOM
      1 CA         11.3012  -25.6837  -45.2923 C.3       0 UNK        -0.2013 
      2 C          12.7788  -26.0318  -45.3960 C.2       0 UNK         0.4866 
      3 O          13.4368  -25.6281  -46.3557 O.2       0 UNK        -0.5176 
      4 N          13.3037  -26.7845  -44.4208 N.am      1 UNK        -0.4884 
      5 CA         14.7197  -27.1533  -44.3236 C.3       1 UNK         0.0853 
      6 C6         14.9129  -28.3615  -43.3706 C.3       10 UNK        -0.0849 
      7 S7         16.4607  -29.2686  -43.7005 S.3       10 UNK        -0.2776 
      8 C8         17.4651  -28.8113  -42.2419 C.3       10 UNK         0.0316 
      9 C9         18.9520  -29.1724  -42.3155 C.ar      10 UNK        -0.0863 
     10 C10        19.5158  -29.8870  -43.3804 C.ar      10 UNK        -0.1009 
     11 C11        20.8811  -30.1859  -43.4069 C.ar      10 UNK        -0.0712 
     12 C12        21.7007  -29.7382  -42.3676 C.ar      10 UNK        -0.0894 
     13 C13        21.1605  -29.0026  -41.3075 C.ar      10 UNK        -0.0745 
     14 C14        19.7868  -28.7439  -41.2794 C.ar      10 UNK        -0.0972 
     15 C15        22.0595  -28.4463  -40.2115 C.3       10 UNK         0.0209 
     16 S16        23.0238  -27.0112  -40.7859 S.3       10 UNK        -0.2568 
     17 C17        21.7252  -25.8105  -41.2366 C.3       10 UNK        -0.0983 
     18 CA         21.3369  -25.8692  -42.7385 C.3       3 UNK         0.0876 
     19 N          20.0086  -25.2936  -42.9489 N.am      3 UNK        -0.4424 
     20 C          19.1893  -25.6255  -43.9511 C.2       2 UNK         0.4918 
     21 O          19.4547  -26.4559  -44.8235 O.2       2 UNK        -0.4875 
     22 CA         17.8339  -24.9131  -43.9799 C.3       2 UNK         0.0481 
     23 CB         17.8399  -23.7423  -44.9766 C.3       2 UNK        -0.1831 
     24 N          16.8209  -25.8908  -44.3624 N.am      2 UNK        -0.4498 
     25 C          15.5723  -25.9414  -43.8875 C.2       1 UNK         0.5027 
     26 O          15.0999  -25.1076  -43.1092 O.2       1 UNK        -0.4969 
     27 C          22.3856  -25.1907  -43.6442 C.2       3 UNK         0.5005 
     28 O          22.2106  -24.0346  -44.0409 O.2       3 UNK        -0.5279 
     29 N          23.4688  -25.9212  -43.9245 N.am      4 UNK        -0.4463 
     30 CA         24.6507  -25.4594  -44.6437 C.3       4 UNK         0.0283 
     31 CB         24.5789  -25.8979  -46.1203 C.3       4 UNK        -0.1875 
     32 C          25.8586  -26.0146  -43.8833 C.2       4 UNK         0.4949 
     33 O          26.3523  -25.3520  -42.9705 O.2       4 UNK        -0.5039 
     34 N          26.2651  -27.2464  -44.2149 N.am      5 UNK        -0.4663 
     35 CA         27.1350  -28.0688  -43.3730 C.3       5 UNK         0.0242 
     36 CB         27.7726  -29.1739  -44.2301 C.3       5 UNK        -0.1982 
     37 C          26.2967  -28.6831  -42.2416 C.2       5 UNK         0.5017 
     38 O          25.1415  -29.0435  -42.4823 O.2       5 UNK        -0.5012 
     39 N          26.8848  -28.8224  -41.0464 N.am      6 UNK        -0.4439 
     40 CA         26.2324  -29.2957  -39.8166 C.3       6 UNK         0.0297 
     41 CB         27.0645  -28.8355  -38.6048 C.3       6 UNK        -0.2006 
     42 C          25.9470  -30.8147  -39.7963 C.2       6 UNK         0.4892 
     43 O          26.2639  -31.4919  -38.8171 O.2       6 UNK        -0.5089 
     44 N          25.3559  -31.3239  -40.8819 N.am      7 UNK        -0.4243 
     45 CA         24.9911  -32.7276  -41.0758 C.3       7 UNK         0.0196 
     46 CB         24.9290  -33.0110  -42.5846 C.3       7 UNK        -0.2007 
     47 C          23.6704  -33.1186  -40.3873 C.2       7 UNK         0.5020 
     48 O          23.4621  -34.3074  -40.1455 O.2       7 UNK        -0.5147 
     49 N          22.8178  -32.1249  -40.0839 N.am      8 UNK        -0.4734 
     50 CA         21.5009  -32.2379  -39.4349 C.3       8 UNK         0.0238 
     51 CB         21.6643  -32.6408  -37.9540 C.3       8 UNK        -0.1912 
     52 C          20.5431  -33.1650  -40.2094 C.2       8 UNK         0.5038 
     53 O          20.0568  -34.1560  -39.6605 O.2       8 UNK        -0.5046 
     54 N          20.3330  -32.8399  -41.4908 N.am      9 UNK        -0.4200 
     55 CA         19.6121  -33.6711  -42.4698 C.3       9 UNK         0.0839 
     56 C          18.0816  -33.8118  -42.2267 C.2       9 UNK         0.5513 
     57 N          17.4598  -32.9740  -41.4060 N.am      9 UNK        -0.7519 
     58 O          17.4503  -34.6983  -42.7963 O.2       9 UNK        -0.4960 
     59 C59        19.8911  -33.2453  -43.9404 C.3       10 UNK        -0.0876 
     60 S60        21.6215  -32.7471  -44.2627 S.3       10 UNK        -0.2414 
     61 C61        21.4686  -30.9568  -44.5838 C.3       10 UNK         0.0169 
     62 H62        10.8409  -26.1168  -44.4045 H         1 UNK         0.0903 
     63 H63        11.1733  -24.6025  -45.2472 H         1 UNK         0.0903 
     64 H64        10.7661  -26.0541  -46.1663 H         1 UNK         0.0903 
     65 H65        12.7237  -27.0565  -43.6394 H         1 UNK         0.3096 
     66 H66        15.0401  -27.4495  -45.3257 H         1 UNK         0.1121 
     67 H67        14.1038  -29.0793  -43.5163 H         1 UNK         0.0849 
     68 H68        14.8534  -28.0623  -42.3219 H         1 UNK         0.0849 
     69 H69        17.3829  -27.7348  -42.0855 H         1 UNK         0.0865 
     70 H70        17.0314  -29.2874  -41.3613 H         1 UNK         0.0865 
     71 H71        18.9010  -30.2111  -44.2061 H         1 UNK         0.1346 
     72 H72        22.7624  -29.9362  -42.4023 H         1 UNK         0.1412 
     73 H73        19.3683  -28.1739  -40.4608 H         1 UNK         0.1426 
     74 H74        22.7516  -29.2178  -39.8753 H         1 UNK         0.0716 
     75 H75        21.4752  -28.1591  -39.3359 H         1 UNK         0.0716 
     76 H76        22.0592  -24.8094  -40.9572 H         1 UNK         0.0695 
     77 H77        20.8547  -26.0135  -40.6107 H         1 UNK         0.0695 
     78 H78        21.2816  -26.9159  -43.0435 H         1 UNK         0.0983 
     79 H79        19.7348  -24.5608  -42.3112 H         1 UNK         0.3095 
     80 H80        17.6201  -24.5313  -42.9791 H         1 UNK         0.0454 
     81 H81        18.0491  -24.0797  -45.9926 H         1 UNK         0.0851 
     82 H82        18.6021  -23.0082  -44.7124 H         1 UNK         0.0851 
     83 H83        16.8801  -23.2256  -44.9864 H         1 UNK         0.0851 
     84 H84        17.1682  -26.6457  -44.9419 H         1 UNK         0.2976 
     85 H85        23.5600  -26.8272  -43.4798 H         1 UNK         0.3116 
     86 H86        24.7184  -24.3698  -44.6062 H         1 UNK         0.0646 
     87 H87        24.3942  -26.9669  -46.2297 H         1 UNK         0.0847 
     88 H88        25.5064  -25.6636  -46.6446 H         1 UNK         0.0847 
     89 H89        23.7758  -25.3748  -46.6397 H         1 UNK         0.0847 
     90 H90        25.7724  -27.7313  -44.9507 H         1 UNK         0.3040 
     91 H91        27.9252  -27.4463  -42.9466 H         1 UNK         0.1015 
     92 H92        27.0209  -29.8357  -44.6630 H         1 UNK         0.0786 
     93 H93        28.4450  -29.7919  -43.6334 H         1 UNK         0.0786 
     94 H94        28.3595  -28.7531  -45.0468 H         1 UNK         0.0786 
     95 H95        27.8530  -28.5489  -40.9546 H         1 UNK         0.3172 
     96 H96        25.2621  -28.8015  -39.7450 H         1 UNK         0.0595 
     97 H97        26.5739  -29.1021  -37.6675 H         1 UNK         0.0839 
     98 H98        27.1941  -27.7530  -38.5990 H         1 UNK         0.0839 
     99 H99        28.0540  -29.2942  -38.5969 H         1 UNK         0.0839 
    100 H100       25.1508  -30.6758  -41.6393 H         1 UNK         0.2998 
    101 H101       25.7747  -33.3555  -40.6459 H         1 UNK         0.0822 
    102 H102       24.5822  -34.0259  -42.7846 H         1 UNK         0.0787 
    103 H103       24.2518  -32.3250  -43.0929 H         1 UNK         0.0787 
    104 H104       25.9116  -32.9074  -43.0452 H         1 UNK         0.0787 
    105 H105       23.1044  -31.1921  -40.3384 H         1 UNK         0.3055 
    106 H106       21.0452  -31.2471  -39.4524 H         1 UNK         0.1106 
    107 H107       20.7006  -32.6495  -37.4433 H         1 UNK         0.0828 
    108 H108       22.0962  -33.6366  -37.8487 H         1 UNK         0.0828 
    109 H109       22.3067  -31.9398  -37.4212 H         1 UNK         0.0828 
    110 H110       20.7696  -32.0107  -41.8685 H         1 UNK         0.2931 
    111 H111       20.0222  -34.6767  -42.3559 H         1 UNK         0.0412 
    112 H112       16.4684  -33.0728  -41.2549 H         1 UNK         0.3472 
    113 H113       17.9735  -32.2430  -40.9419 H         1 UNK         0.3472 
    114 H114       19.2198  -32.4461  -44.2513 H         1 UNK         0.0970 
    115 H115       19.6600  -34.0783  -44.6067 H         1 UNK         0.0970 
    116 H116       22.4571  -30.5604  -44.8209 H         1 UNK         0.0612 
    117 H117       20.8611  -30.8058  -45.4776 H         1 UNK         0.0612 
@<TRIPOS>BOND
     1    1    2 1    
     2    1   62 1    
     3    1   63 1    
     4    1   64 1    
     5    2    3 2    
     6    2    4 am   BACKBONE|DICT|INTERRES
     7    4    5 1    
     8    4   65 1    
     9    5    6 1    
    10    5   25 1    
    11    5   66 1    
    12    6    7 1    
    13    6   67 1    
    14    6   68 1    
    15    7    8 1    
    16    8    9 1    
    17    8   69 1    
    18    8   70 1    
    19    9   10 ar   
    20    9   14 ar   
    21   10   11 ar   
    22   10   71 1    
    23   11   12 ar   
    24   11   61 1    
    25   12   13 ar   
    26   12   72 1    
    27   13   14 ar   
    28   13   15 1    
    29   14   73 1    
    30   15   16 1    
    31   15   74 1    
    32   15   75 1    
    33   16   17 1    
    34   17   18 1    
    35   17   76 1    
    36   17   77 1    
    37   18   19 1    
    38   18   27 1    
    39   18   78 1    
    40   19   20 am   BACKBONE|DICT|INTERRES
    41   19   79 1    
    42   20   21 2    
    43   20   22 1    
    44   22   23 1    
    45   22   24 1    
    46   22   80 1    
    47   23   81 1    
    48   23   82 1    
    49   23   83 1    
    50   24   25 am   BACKBONE|DICT|INTERRES
    51   24   84 1    
    52   25   26 2    
    53   27   28 2    
    54   27   29 am   BACKBONE|DICT|INTERRES
    55   29   30 1    
    56   29   85 1    
    57   30   31 1    
    58   30   32 1    
    59   30   86 1    
    60   31   87 1    
    61   31   88 1    
    62   31   89 1    
    63   32   33 2    
    64   32   34 am   BACKBONE|DICT|INTERRES
    65   34   35 1    
    66   34   90 1    
    67   35   36 1    
    68   35   37 1    
    69   35   91 1    
    70   36   92 1    
    71   36   93 1    
    72   36   94 1    
    73   37   38 2    
    74   37   39 am   BACKBONE|DICT|INTERRES
    75   39   40 1    
    76   39   95 1    
    77   40   41 1    
    78   40   42 1    
    79   40   96 1    
    80   41   97 1    
    81   41   98 1    
    82   41   99 1    
    83   42   43 2    
    84   42   44 am   BACKBONE|DICT|INTERRES
    85   44   45 1    
    86   44  100 1    
    87   45   46 1    
    88   45   47 1    
    89   45  101 1    
    90   46  102 1    
    91   46  103 1    
    92   46  104 1    
    93   47   48 2    
    94   47   49 am   BACKBONE|DICT|INTERRES
    95   49   50 1    
    96   49  105 1    
    97   50   51 1    
    98   50   52 1    
    99   50  106 1    
   100   51  107 1    
   101   51  108 1    
   102   51  109 1    
   103   52   53 2    
   104   52   54 am   BACKBONE|DICT|INTERRES
   105   54   55 1    
   106   54  110 1    
   107   55   56 1    
   108   55   59 1    
   109   55  111 1    
   110   56   57 am   BACKBONE|DICT|INTERRES
   111   56   58 2    
   112   57  112 1    
   113   57  113 1    
   114   59   60 1    
   115   59  114 1    
   116   59  115 1    
   117   60   61 1    
   118   61  116 1    
   119   61  117 1    
@<TRIPOS>SUBSTRUCTURE
     1 UNK         1 GROUP             0       ****    0 ROOT    
