@<TRIPOS>MOLECULE
3R8
117   119    1
SMALL
USER_CHARGES


@<TRIPOS>ATOM
      1 CA         17.6077  -24.3152  -38.3352 C.3       0 UNK        -0.2013 
      2 C          17.4032  -24.3473  -39.8421 C.2       0 UNK         0.4866 
      3 O          17.4922  -23.3094  -40.4965 O.2       0 UNK        -0.5176 
      4 N          17.1476  -25.5357  -40.4037 N.am      1 UNK        -0.4884 
      5 CA         16.8931  -25.7700  -41.8320 C.3       1 UNK         0.0853 
      6 C6         15.9512  -26.9918  -42.0292 C.3       10 UNK        -0.0849 
      7 S7         16.7109  -28.6149  -41.6377 S.3       10 UNK        -0.2776 
      8 C8         16.7055  -29.4220  -43.2755 C.3       10 UNK         0.0316 
      9 C9         17.9632  -30.2455  -43.5108 C.ar      10 UNK        -0.0863 
     10 C10        17.9352  -31.6429  -43.4381 C.ar      10 UNK        -0.1009 
     11 C11        19.0866  -32.3979  -43.6962 C.ar      10 UNK        -0.0712 
     12 C12        20.2696  -31.7283  -44.0409 C.ar      10 UNK        -0.0894 
     13 C13        20.3137  -30.3346  -44.0955 C.ar      10 UNK        -0.0745 
     14 C14        19.1581  -29.6002  -43.8365 C.ar      10 UNK        -0.0972 
     15 C15        21.6304  -29.6246  -44.3518 C.3       10 UNK         0.0209 
     16 S16        22.0141  -29.3874  -46.1155 S.3       10 UNK        -0.2568 
     17 C17        21.1923  -27.8092  -46.5668 C.3       10 UNK        -0.0983 
     18 CA         21.8867  -26.4721  -46.1455 C.3       3 UNK         0.0876 
     19 N          21.7570  -26.2583  -44.7091 N.am      3 UNK        -0.4424 
     20 C          20.9130  -25.4067  -44.1240 C.2       2 UNK         0.4918 
     21 O          20.3107  -24.5044  -44.7109 O.2       2 UNK        -0.4875 
     22 CA         20.7129  -25.6222  -42.6131 C.3       2 UNK         0.0481 
     23 CB         21.6454  -24.7011  -41.8114 C.3       2 UNK        -0.1831 
     24 N          19.3342  -25.4618  -42.1239 N.am      2 UNK        -0.4498 
     25 C          18.1807  -25.8614  -42.6908 C.2       1 UNK         0.5027 
     26 O          18.0903  -26.3266  -43.8270 O.2       1 UNK        -0.4969 
     27 C          23.3718  -26.2910  -46.5215 C.2       3 UNK         0.5005 
     28 O          23.9982  -25.3333  -46.0600 O.2       3 UNK        -0.5279 
     29 N          23.9319  -27.2114  -47.3173 N.am      4 UNK        -0.4463 
     30 CA         25.3785  -27.3652  -47.5131 C.3       4 UNK         0.0283 
     31 CB         25.6285  -28.2902  -48.7151 C.3       4 UNK        -0.1875 
     32 C          26.0916  -27.9103  -46.2561 C.2       4 UNK         0.4949 
     33 O          27.3045  -27.7421  -46.1290 O.2       4 UNK        -0.5039 
     34 N          25.3266  -28.5435  -45.3586 N.am      5 UNK        -0.4663 
     35 CA         25.7397  -29.0300  -44.0457 C.3       5 UNK         0.0242 
     36 CB         25.7057  -30.5706  -44.0652 C.3       5 UNK        -0.1982 
     37 C          24.8072  -28.4470  -42.9671 C.2       5 UNK         0.5017 
     38 O          23.9350  -27.6270  -43.2751 O.2       5 UNK        -0.5012 
     39 N          25.0115  -28.8812  -41.7167 N.am      6 UNK        -0.4439 
     40 CA         24.2112  -28.5088  -40.5468 C.3       6 UNK         0.0297 
     41 CB         24.8617  -29.1071  -39.2886 C.3       6 UNK        -0.2006 
     42 C          22.7442  -28.9645  -40.6502 C.2       6 UNK         0.4892 
     43 O          22.4556  -29.9735  -41.2973 O.2       6 UNK        -0.5089 
     44 N          21.8590  -28.2138  -39.9805 N.am      7 UNK        -0.4243 
     45 CA         20.4121  -28.4376  -39.9211 C.3       7 UNK         0.0196 
     46 CB         19.7803  -27.3682  -39.0165 C.3       7 UNK        -0.2007 
     47 C          20.0309  -29.8386  -39.4167 C.2       7 UNK         0.5020 
     48 O          20.6970  -30.3779  -38.5293 O.2       7 UNK        -0.5147 
     49 N          18.9547  -30.3876  -39.9959 N.am      8 UNK        -0.4734 
     50 CA         18.3741  -31.7090  -39.7228 C.3       8 UNK         0.0238 
     51 CB         17.7197  -31.7285  -38.3253 C.3       8 UNK        -0.1912 
     52 C          19.3600  -32.8767  -39.9325 C.2       8 UNK         0.5038 
     53 O          19.2062  -33.9209  -39.2964 O.2       8 UNK        -0.5046 
     54 N          20.3521  -32.6740  -40.8124 N.am      9 UNK        -0.4200 
     55 CA         21.4647  -33.5898  -41.1035 C.3       9 UNK         0.0839 
     56 C          22.4449  -33.7800  -39.9024 C.2       9 UNK         0.5513 
     57 N          22.4587  -32.8974  -38.9086 N.am      9 UNK        -0.7519 
     58 O          23.2335  -34.7218  -39.8809 O.2       9 UNK        -0.4960 
     59 C59        20.9842  -34.9273  -41.7518 C.3       10 UNK        -0.0876 
     60 S60        20.6126  -34.8005  -43.5368 S.3       10 UNK        -0.2414 
     61 C61        19.0056  -33.9257  -43.5984 C.3       10 UNK         0.0169 
     62 H62        18.6147  -23.9717  -38.0999 H         1 UNK         0.0903 
     63 H63        16.8975  -23.6283  -37.8755 H         1 UNK         0.0903 
     64 H64        17.4694  -25.2968  -37.8825 H         1 UNK         0.0903 
     65 H65        17.0852  -26.3596  -39.8225 H         1 UNK         0.3096 
     66 H66        16.3575  -24.8987  -42.2165 H         1 UNK         0.1121 
     67 H67        15.0688  -26.8768  -41.3979 H         1 UNK         0.0849 
     68 H68        15.5613  -26.9962  -43.0482 H         1 UNK         0.0849 
     69 H69        15.8125  -30.0427  -43.3638 H         1 UNK         0.0865 
     70 H70        16.6354  -28.6785  -44.0705 H         1 UNK         0.0865 
     71 H71        17.0117  -32.1467  -43.1864 H         1 UNK         0.1346 
     72 H72        21.1758  -32.2782  -44.2481 H         1 UNK         0.1412 
     73 H73        19.1950  -28.5226  -43.8822 H         1 UNK         0.1426 
     74 H74        22.4361  -30.2147  -43.9155 H         1 UNK         0.0716 
     75 H75        21.6404  -28.6794  -43.8163 H         1 UNK         0.0716 
     76 H76        21.0697  -27.8159  -47.6511 H         1 UNK         0.0695 
     77 H77        20.1746  -27.8325  -46.1730 H         1 UNK         0.0695 
     78 H78        21.3699  -25.6679  -46.6738 H         1 UNK         0.0983 
     79 H79        22.3638  -26.8351  -44.1320 H         1 UNK         0.3095 
     80 H80        20.9911  -26.6531  -42.3887 H         1 UNK         0.0454 
     81 H81        22.6825  -24.8236  -42.1282 H         1 UNK         0.0851 
     82 H82        21.3842  -23.6509  -41.9479 H         1 UNK         0.0851 
     83 H83        21.6090  -24.9220  -40.7449 H         1 UNK         0.0851 
     84 H84        19.2440  -25.0404  -41.2119 H         1 UNK         0.2976 
     85 H85        23.3472  -27.9712  -47.6410 H         1 UNK         0.3116 
     86 H86        25.8051  -26.3854  -47.7383 H         1 UNK         0.0646 
     87 H87        26.6970  -28.4018  -48.9050 H         1 UNK         0.0847 
     88 H88        25.1799  -27.8906  -49.6247 H         1 UNK         0.0847 
     89 H89        25.2219  -29.2886  -48.5488 H         1 UNK         0.0847 
     90 H90        24.3307  -28.5789  -45.5290 H         1 UNK         0.3040 
     91 H91        26.7536  -28.6929  -43.8189 H         1 UNK         0.1015 
     92 H92        26.3325  -30.9660  -44.8649 H         1 UNK         0.0786 
     93 H93        24.6957  -30.9519  -44.2186 H         1 UNK         0.0786 
     94 H94        26.0784  -30.9950  -43.1327 H         1 UNK         0.0786 
     95 H95        25.7283  -29.5744  -41.5616 H         1 UNK         0.3172 
     96 H96        24.2307  -27.4196  -40.4684 H         1 UNK         0.0595 
     97 H97        25.8876  -28.7596  -39.1647 H         1 UNK         0.0839 
     98 H98        24.8758  -30.1976  -39.3236 H         1 UNK         0.0839 
     99 H99        24.3147  -28.8209  -38.3892 H         1 UNK         0.0839 
    100 H100       22.2089  -27.4392  -39.4367 H         1 UNK         0.2998 
    101 H101       20.0225  -28.3186  -40.9343 H         1 UNK         0.0822 
    102 H102       19.9637  -26.3632  -39.3940 H         1 UNK         0.0787 
    103 H103       18.7005  -27.5038  -38.9508 H         1 UNK         0.0787 
    104 H104       20.1730  -27.4209  -38.0001 H         1 UNK         0.0787 
    105 H105       18.4720  -29.8532  -40.7095 H         1 UNK         0.3055 
    106 H106       17.5820  -31.8531  -40.4592 H         1 UNK         0.1106 
    107 H107       18.4626  -31.6523  -37.5307 H         1 UNK         0.0828 
    108 H108       17.0148  -30.9057  -38.2064 H         1 UNK         0.0828 
    109 H109       17.1644  -32.6533  -38.1637 H         1 UNK         0.0828 
    110 H110       20.4087  -31.7726  -41.2663 H         1 UNK         0.2931 
    111 H111       22.0723  -33.0694  -41.8447 H         1 UNK         0.0412 
    112 H112       23.1030  -33.0259  -38.1451 H         1 UNK         0.3472 
    113 H113       21.8315  -32.1007  -38.9118 H         1 UNK         0.3472 
    114 H114       20.1256  -35.3490  -41.2294 H         1 UNK         0.0970 
    115 H115       21.7591  -35.6916  -41.6786 H         1 UNK         0.0970 
    116 H116       18.4142  -34.2113  -42.7272 H         1 UNK         0.0612 
    117 H117       18.4614  -34.2877  -44.4714 H         1 UNK         0.0612 
@<TRIPOS>BOND
     1    1    2 1    
     2    1   62 1    
     3    1   63 1    
     4    1   64 1    
     5    2    3 2    
     6    2    4 am   BACKBONE|DICT|INTERRES
     7    4    5 1    
     8    4   65 1    
     9    5    6 1    
    10    5   25 1    
    11    5   66 1    
    12    6    7 1    
    13    6   67 1    
    14    6   68 1    
    15    7    8 1    
    16    8    9 1    
    17    8   69 1    
    18    8   70 1    
    19    9   10 ar   
    20    9   14 ar   
    21   10   11 ar   
    22   10   71 1    
    23   11   12 ar   
    24   11   61 1    
    25   12   13 ar   
    26   12   72 1    
    27   13   14 ar   
    28   13   15 1    
    29   14   73 1    
    30   15   16 1    
    31   15   74 1    
    32   15   75 1    
    33   16   17 1    
    34   17   18 1    
    35   17   76 1    
    36   17   77 1    
    37   18   19 1    
    38   18   27 1    
    39   18   78 1    
    40   19   20 am   BACKBONE|DICT|INTERRES
    41   19   79 1    
    42   20   21 2    
    43   20   22 1    
    44   22   23 1    
    45   22   24 1    
    46   22   80 1    
    47   23   81 1    
    48   23   82 1    
    49   23   83 1    
    50   24   25 am   BACKBONE|DICT|INTERRES
    51   24   84 1    
    52   25   26 2    
    53   27   28 2    
    54   27   29 am   BACKBONE|DICT|INTERRES
    55   29   30 1    
    56   29   85 1    
    57   30   31 1    
    58   30   32 1    
    59   30   86 1    
    60   31   87 1    
    61   31   88 1    
    62   31   89 1    
    63   32   33 2    
    64   32   34 am   BACKBONE|DICT|INTERRES
    65   34   35 1    
    66   34   90 1    
    67   35   36 1    
    68   35   37 1    
    69   35   91 1    
    70   36   92 1    
    71   36   93 1    
    72   36   94 1    
    73   37   38 2    
    74   37   39 am   BACKBONE|DICT|INTERRES
    75   39   40 1    
    76   39   95 1    
    77   40   41 1    
    78   40   42 1    
    79   40   96 1    
    80   41   97 1    
    81   41   98 1    
    82   41   99 1    
    83   42   43 2    
    84   42   44 am   BACKBONE|DICT|INTERRES
    85   44   45 1    
    86   44  100 1    
    87   45   46 1    
    88   45   47 1    
    89   45  101 1    
    90   46  102 1    
    91   46  103 1    
    92   46  104 1    
    93   47   48 2    
    94   47   49 am   BACKBONE|DICT|INTERRES
    95   49   50 1    
    96   49  105 1    
    97   50   51 1    
    98   50   52 1    
    99   50  106 1    
   100   51  107 1    
   101   51  108 1    
   102   51  109 1    
   103   52   53 2    
   104   52   54 am   BACKBONE|DICT|INTERRES
   105   54   55 1    
   106   54  110 1    
   107   55   56 1    
   108   55   59 1    
   109   55  111 1    
   110   56   57 am   BACKBONE|DICT|INTERRES
   111   56   58 2    
   112   57  112 1    
   113   57  113 1    
   114   59   60 1    
   115   59  114 1    
   116   59  115 1    
   117   60   61 1    
   118   61  116 1    
   119   61  117 1    
@<TRIPOS>SUBSTRUCTURE
     1 UNK         1 GROUP             0       ****    0 ROOT    
