@<TRIPOS>MOLECULE
3R8
117   119    1
SMALL
USER_CHARGES


@<TRIPOS>ATOM
      1 CA         14.8420  -21.8419  -43.6011 C.3       0 UNK        -0.2013 
      2 C          15.5173  -22.5918  -44.7394 C.2       0 UNK         0.4866 
      3 O          15.7857  -22.0036  -45.7871 O.2       0 UNK        -0.5176 
      4 N          15.7956  -23.8871  -44.5432 N.am      1 UNK        -0.4884 
      5 CA         16.4554  -24.7637  -45.5205 C.3       1 UNK         0.0853 
      6 C6         16.1871  -26.2637  -45.2258 C.3       10 UNK        -0.0849 
      7 S7         16.6011  -26.7736  -43.5198 S.3       10 UNK        -0.2776 
      8 C8         16.1240  -28.5334  -43.5381 C.3       10 UNK         0.0316 
      9 C9         17.3431  -29.4415  -43.6171 C.ar      10 UNK        -0.0863 
     10 C10        17.8209  -30.0832  -42.4691 C.ar      10 UNK        -0.1009 
     11 C11        18.9543  -30.8996  -42.5316 C.ar      10 UNK        -0.0712 
     12 C12        19.6073  -31.0766  -43.7534 C.ar      10 UNK        -0.0894 
     13 C13        19.1389  -30.4448  -44.9074 C.ar      10 UNK        -0.0745 
     14 C14        17.9973  -29.6397  -44.8362 C.ar      10 UNK        -0.0972 
     15 C15        19.8768  -30.6274  -46.2261 C.3       10 UNK         0.0209 
     16 S16        21.4238  -29.6633  -46.2857 S.3       10 UNK        -0.2568 
     17 C17        20.7952  -27.9495  -46.2028 C.3       10 UNK        -0.0983 
     18 CA         21.3954  -27.0385  -45.0977 C.3       3 UNK         0.0876 
     19 N          20.7040  -25.7457  -45.1179 N.am      3 UNK        -0.4424 
     20 C          20.9759  -24.6527  -44.3970 C.2       2 UNK         0.4918 
     21 O          21.9142  -24.5754  -43.6049 O.2       2 UNK        -0.4875 
     22 CA         20.0064  -23.4623  -44.5406 C.3       2 UNK         0.0481 
     23 CB         20.4558  -22.5215  -45.6742 C.3       2 UNK        -0.1831 
     24 N          18.5850  -23.8325  -44.6763 N.am      2 UNK        -0.4498 
     25 C          17.9654  -24.4826  -45.6767 C.2       1 UNK         0.5027 
     26 O          18.5444  -24.8927  -46.6838 O.2       1 UNK        -0.4969 
     27 C          21.4448  -27.6715  -43.6827 C.2       3 UNK         0.5005 
     28 O          22.4194  -28.3528  -43.3635 O.2       3 UNK        -0.5279 
     29 N          20.4655  -27.3449  -42.8221 N.am      4 UNK        -0.4463 
     30 CA         20.4184  -27.6842  -41.3932 C.3       4 UNK         0.0283 
     31 CB         19.1191  -27.1319  -40.7844 C.3       4 UNK        -0.1875 
     32 C          21.6246  -27.2100  -40.5569 C.2       4 UNK         0.4949 
     33 O          21.8237  -27.7285  -39.4581 O.2       4 UNK        -0.5039 
     34 N          22.4077  -26.2476  -41.0678 N.am      5 UNK        -0.4663 
     35 CA         23.6735  -25.8139  -40.4719 C.3       5 UNK         0.0242 
     36 CB         24.1219  -24.5020  -41.1353 C.3       5 UNK        -0.1982 
     37 C          24.7899  -26.8729  -40.5664 C.2       5 UNK         0.5017 
     38 O          25.7239  -26.8189  -39.7648 O.2       5 UNK        -0.5012 
     39 N          24.6891  -27.8048  -41.5257 N.am      6 UNK        -0.4439 
     40 CA         25.5985  -28.9397  -41.6714 C.3       6 UNK         0.0297 
     41 CB         25.7186  -29.3039  -43.1606 C.3       6 UNK        -0.2006 
     42 C          25.0667  -30.1381  -40.8748 C.2       6 UNK         0.4892 
     43 O          23.8516  -30.3241  -40.7740 O.2       6 UNK        -0.5089 
     44 N          25.9832  -30.9797  -40.3812 N.am      7 UNK        -0.4243 
     45 CA         25.6932  -32.2089  -39.6313 C.3       7 UNK         0.0196 
     46 CB         26.9190  -32.5653  -38.7690 C.3       7 UNK        -0.2007 
     47 C          25.2441  -33.3792  -40.5352 C.2       7 UNK         0.5020 
     48 O          25.6898  -34.5121  -40.3468 O.2       7 UNK        -0.5147 
     49 N          24.3799  -33.0866  -41.5143 N.am      8 UNK        -0.4734 
     50 CA         23.8027  -34.0573  -42.4460 C.3       8 UNK         0.0238 
     51 CB         23.3124  -33.3180  -43.7013 C.3       8 UNK        -0.1912 
     52 C          22.6643  -34.8710  -41.8090 C.2       8 UNK         0.5038 
     53 O          22.4932  -36.0408  -42.1543 O.2       8 UNK        -0.5046 
     54 N          21.9200  -34.2413  -40.8922 N.am      9 UNK        -0.4200 
     55 CA         20.8774  -34.8755  -40.0772 C.3       9 UNK         0.0839 
     56 C          21.5005  -35.5460  -38.8263 C.2       9 UNK         0.5513 
     57 N          21.0208  -36.7222  -38.4474 N.am      9 UNK        -0.7519 
     58 O          22.3823  -34.9897  -38.1746 O.2       9 UNK        -0.4960 
     59 C59        19.7770  -33.8624  -39.6702 C.3       10 UNK        -0.0876 
     60 S60        18.8369  -33.2574  -41.1121 S.3       10 UNK        -0.2414 
     61 C61        19.4935  -31.5720  -41.2797 C.3       10 UNK         0.0169 
     62 H62        13.8822  -21.4452  -43.9310 H         1 UNK         0.0903 
     63 H63        14.6648  -22.4835  -42.7381 H         1 UNK         0.0903 
     64 H64        15.4641  -21.0066  -43.2807 H         1 UNK         0.0903 
     65 H65        15.5522  -24.3295  -43.6667 H         1 UNK         0.3096 
     66 H66        16.0177  -24.5474  -46.4981 H         1 UNK         0.1121 
     67 H67        15.1282  -26.4715  -45.3884 H         1 UNK         0.0849 
     68 H68        16.7220  -26.9007  -45.9328 H         1 UNK         0.0849 
     69 H69        15.4502  -28.7406  -44.3708 H         1 UNK         0.0865 
     70 H70        15.5541  -28.7474  -42.6327 H         1 UNK         0.0865 
     71 H71        17.3190  -29.9389  -41.5222 H         1 UNK         0.1346 
     72 H72        20.4885  -31.6986  -43.8064 H         1 UNK         0.1412 
     73 H73        17.6275  -29.1505  -45.7265 H         1 UNK         0.1426 
     74 H74        19.2430  -30.3442  -47.0679 H         1 UNK         0.0716 
     75 H75        20.1139  -31.6833  -46.3646 H         1 UNK         0.0716 
     76 H76        19.7101  -27.9674  -46.1094 H         1 UNK         0.0695 
     77 H77        20.9846  -27.4962  -47.1771 H         1 UNK         0.0695 
     78 H78        22.4345  -26.8388  -45.3677 H         1 UNK         0.0983 
     79 H79        19.9257  -25.6657  -45.7675 H         1 UNK         0.3095 
     80 H80        20.0704  -22.8997  -43.6079 H         1 UNK         0.0454 
     81 H81        21.4733  -22.1672  -45.5036 H         1 UNK         0.0851 
     82 H82        19.8137  -21.6431  -45.7378 H         1 UNK         0.0851 
     83 H83        20.4457  -23.0149  -46.6464 H         1 UNK         0.0851 
     84 H84        18.0029  -23.5770  -43.8906 H         1 UNK         0.2976 
     85 H85        19.7003  -26.7880  -43.1736 H         1 UNK         0.3116 
     86 H86        20.4007  -28.7721  -41.3215 H         1 UNK         0.0646 
     87 H87        19.0565  -27.3583  -39.7191 H         1 UNK         0.0847 
     88 H88        18.2403  -27.5721  -41.2506 H         1 UNK         0.0847 
     89 H89        19.0510  -26.0489  -40.8920 H         1 UNK         0.0847 
     90 H90        22.1678  -25.8432  -41.9669 H         1 UNK         0.3040 
     91 H91        23.4998  -25.6189  -39.4112 H         1 UNK         0.1015 
     92 H92        23.3628  -23.7259  -41.0353 H         1 UNK         0.0786 
     93 H93        24.3240  -24.6375  -42.1986 H         1 UNK         0.0786 
     94 H94        25.0357  -24.1235  -40.6750 H         1 UNK         0.0786 
     95 H95        23.8430  -27.8440  -42.0894 H         1 UNK         0.3172 
     96 H96        26.5902  -28.6717  -41.3005 H         1 UNK         0.0595 
     97 H97        24.7647  -29.6321  -43.5761 H         1 UNK         0.0839 
     98 H98        26.4322  -30.1153  -43.3091 H         1 UNK         0.0839 
     99 H99        26.0653  -28.4552  -43.7503 H         1 UNK         0.0839 
    100 H100       26.9593  -30.7830  -40.5523 H         1 UNK         0.2998 
    101 H101       24.8622  -32.0077  -38.9514 H         1 UNK         0.0822 
    102 H102       27.1928  -31.7426  -38.1081 H         1 UNK         0.0787 
    103 H103       26.7155  -33.4297  -38.1352 H         1 UNK         0.0787 
    104 H104       27.7873  -32.8074  -39.3832 H         1 UNK         0.0787 
    105 H105       24.0521  -32.1270  -41.5713 H         1 UNK         0.3055 
    106 H106       24.5810  -34.7632  -42.7459 H         1 UNK         0.1106 
    107 H107       22.5872  -32.5433  -43.4542 H         1 UNK         0.0828 
    108 H108       24.1400  -32.8418  -44.2275 H         1 UNK         0.0828 
    109 H109       22.8357  -34.0049  -44.4021 H         1 UNK         0.0828 
    110 H110       22.1735  -33.2996  -40.6366 H         1 UNK         0.2931 
    111 H111       20.4003  -35.6559  -40.6746 H         1 UNK         0.0412 
    112 H112       21.4024  -37.1665  -37.6264 H         1 UNK         0.3472 
    113 H113       20.2903  -37.1805  -38.9707 H         1 UNK         0.3472 
    114 H114       20.2018  -33.0234  -39.1156 H         1 UNK         0.0970 
    115 H115       19.0598  -34.3343  -38.9956 H         1 UNK         0.0970 
    116 H116       19.2319  -30.9906  -40.3941 H         1 UNK         0.0612 
    117 H117       20.5836  -31.6038  -41.3193 H         1 UNK         0.0612 
@<TRIPOS>BOND
     1    1    2 1    
     2    1   62 1    
     3    1   63 1    
     4    1   64 1    
     5    2    3 2    
     6    2    4 am   BACKBONE|DICT|INTERRES
     7    4    5 1    
     8    4   65 1    
     9    5    6 1    
    10    5   25 1    
    11    5   66 1    
    12    6    7 1    
    13    6   67 1    
    14    6   68 1    
    15    7    8 1    
    16    8    9 1    
    17    8   69 1    
    18    8   70 1    
    19    9   10 ar   
    20    9   14 ar   
    21   10   11 ar   
    22   10   71 1    
    23   11   12 ar   
    24   11   61 1    
    25   12   13 ar   
    26   12   72 1    
    27   13   14 ar   
    28   13   15 1    
    29   14   73 1    
    30   15   16 1    
    31   15   74 1    
    32   15   75 1    
    33   16   17 1    
    34   17   18 1    
    35   17   76 1    
    36   17   77 1    
    37   18   19 1    
    38   18   27 1    
    39   18   78 1    
    40   19   20 am   BACKBONE|DICT|INTERRES
    41   19   79 1    
    42   20   21 2    
    43   20   22 1    
    44   22   23 1    
    45   22   24 1    
    46   22   80 1    
    47   23   81 1    
    48   23   82 1    
    49   23   83 1    
    50   24   25 am   BACKBONE|DICT|INTERRES
    51   24   84 1    
    52   25   26 2    
    53   27   28 2    
    54   27   29 am   BACKBONE|DICT|INTERRES
    55   29   30 1    
    56   29   85 1    
    57   30   31 1    
    58   30   32 1    
    59   30   86 1    
    60   31   87 1    
    61   31   88 1    
    62   31   89 1    
    63   32   33 2    
    64   32   34 am   BACKBONE|DICT|INTERRES
    65   34   35 1    
    66   34   90 1    
    67   35   36 1    
    68   35   37 1    
    69   35   91 1    
    70   36   92 1    
    71   36   93 1    
    72   36   94 1    
    73   37   38 2    
    74   37   39 am   BACKBONE|DICT|INTERRES
    75   39   40 1    
    76   39   95 1    
    77   40   41 1    
    78   40   42 1    
    79   40   96 1    
    80   41   97 1    
    81   41   98 1    
    82   41   99 1    
    83   42   43 2    
    84   42   44 am   BACKBONE|DICT|INTERRES
    85   44   45 1    
    86   44  100 1    
    87   45   46 1    
    88   45   47 1    
    89   45  101 1    
    90   46  102 1    
    91   46  103 1    
    92   46  104 1    
    93   47   48 2    
    94   47   49 am   BACKBONE|DICT|INTERRES
    95   49   50 1    
    96   49  105 1    
    97   50   51 1    
    98   50   52 1    
    99   50  106 1    
   100   51  107 1    
   101   51  108 1    
   102   51  109 1    
   103   52   53 2    
   104   52   54 am   BACKBONE|DICT|INTERRES
   105   54   55 1    
   106   54  110 1    
   107   55   56 1    
   108   55   59 1    
   109   55  111 1    
   110   56   57 am   BACKBONE|DICT|INTERRES
   111   56   58 2    
   112   57  112 1    
   113   57  113 1    
   114   59   60 1    
   115   59  114 1    
   116   59  115 1    
   117   60   61 1    
   118   61  116 1    
   119   61  117 1    
@<TRIPOS>SUBSTRUCTURE
     1 UNK         1 GROUP             0       ****    0 ROOT    
