@<TRIPOS>MOLECULE
3R8
117   119    1
SMALL
USER_CHARGES


@<TRIPOS>ATOM
      1 CA         14.9383  -22.1417  -42.5737 C.3       0 UNK        -0.2013 
      2 C          15.5007  -22.9646  -43.7232 C.2       0 UNK         0.4866 
      3 O          15.4119  -22.5450  -44.8778 O.2       0 UNK        -0.5176 
      4 N          16.0697  -24.1373  -43.4184 N.am      1 UNK        -0.4884 
      5 CA         16.7027  -25.0395  -44.3870 C.3       1 UNK         0.0853 
      6 C6         16.9537  -26.4448  -43.7865 C.3       10 UNK        -0.0849 
      7 S7         15.4158  -27.2580  -43.2283 S.3       10 UNK        -0.2776 
      8 C8         15.2110  -28.5990  -44.4492 C.3       10 UNK         0.0316 
      9 C9         16.3581  -29.6011  -44.4076 C.ar      10 UNK        -0.0863 
     10 C10        16.6130  -30.3339  -43.2437 C.ar      10 UNK        -0.1009 
     11 C11        17.6875  -31.2256  -43.1894 C.ar      10 UNK        -0.0712 
     12 C12        18.5022  -31.3927  -44.3123 C.ar      10 UNK        -0.0894 
     13 C13        18.2567  -30.6698  -45.4824 C.ar      10 UNK        -0.0745 
     14 C14        17.1749  -29.7845  -45.5286 C.ar      10 UNK        -0.0972 
     15 C15        19.1771  -30.8355  -46.6848 C.3       10 UNK         0.0209 
     16 S16        19.9983  -29.2800  -47.1634 S.3       10 UNK        -0.2568 
     17 C17        20.8521  -28.8000  -45.6213 C.3       10 UNK        -0.0983 
     18 CA         21.4912  -27.3930  -45.7275 C.3       3 UNK         0.0876 
     19 N          20.4976  -26.3770  -46.0841 N.am      3 UNK        -0.4424 
     20 C          20.7669  -25.1386  -46.5156 C.2       2 UNK         0.4918 
     21 O          21.9070  -24.7036  -46.6829 O.2       2 UNK        -0.4875 
     22 CA         19.5619  -24.2372  -46.8483 C.3       2 UNK         0.0481 
     23 CB         19.3404  -24.1871  -48.3688 C.3       2 UNK        -0.1831 
     24 N          18.3180  -24.6644  -46.1969 N.am      2 UNK        -0.4498 
     25 C          18.0274  -24.4433  -44.9071 C.2       1 UNK         0.5027 
     26 O          18.7679  -23.8310  -44.1331 O.2       1 UNK        -0.4969 
     27 C          22.2155  -27.0247  -44.4166 C.2       3 UNK         0.5005 
     28 O          21.6298  -26.3709  -43.5479 O.2       3 UNK        -0.5279 
     29 N          23.4692  -27.4776  -44.2809 N.am      4 UNK        -0.4463 
     30 CA         24.3322  -27.2534  -43.1174 C.3       4 UNK         0.0283 
     31 CB         25.7994  -27.4638  -43.5376 C.3       4 UNK        -0.1875 
     32 C          23.9351  -28.1463  -41.9272 C.2       4 UNK         0.4949 
     33 O          24.6857  -29.0548  -41.5668 O.2       4 UNK        -0.5039 
     34 N          22.7454  -27.8924  -41.3672 N.am      5 UNK        -0.4663 
     35 CA         22.1475  -28.5835  -40.2212 C.3       5 UNK         0.0242 
     36 CB         20.7565  -27.9843  -39.9498 C.3       5 UNK        -0.1982 
     37 C          23.0515  -28.5124  -38.9764 C.2       5 UNK         0.5017 
     38 O          23.0767  -27.4782  -38.3069 O.2       5 UNK        -0.5012 
     39 N          23.7976  -29.5991  -38.7462 N.am      6 UNK        -0.4439 
     40 CA         24.8792  -29.8283  -37.7802 C.3       6 UNK         0.0297 
     41 CB         25.6972  -28.5650  -37.4280 C.3       6 UNK        -0.2006 
     42 C          25.8204  -30.8771  -38.3873 C.2       6 UNK         0.4892 
     43 O          26.1467  -31.8597  -37.7212 O.2       6 UNK        -0.5089 
     44 N          26.2096  -30.6575  -39.6520 N.am      7 UNK        -0.4243 
     45 CA         26.9048  -31.6319  -40.4935 C.3       7 UNK         0.0196 
     46 CB         27.8029  -30.8975  -41.5032 C.3       7 UNK        -0.2007 
     47 C          25.8717  -32.5129  -41.2093 C.2       7 UNK         0.5020 
     48 O          25.9877  -33.7385  -41.1872 O.2       7 UNK        -0.5147 
     49 N          24.8494  -31.8654  -41.7829 N.am      8 UNK        -0.4734 
     50 CA         23.6030  -32.4916  -42.2163 C.3       8 UNK         0.0238 
     51 CB         22.9518  -31.6064  -43.2954 C.3       8 UNK        -0.1912 
     52 C          22.6569  -32.6572  -41.0148 C.2       8 UNK         0.5038 
     53 O          22.8756  -32.0403  -39.9676 O.2       8 UNK        -0.5046 
     54 N          21.5988  -33.4509  -41.2129 N.am      9 UNK        -0.4200 
     55 CA         20.5129  -33.7104  -40.2481 C.3       9 UNK         0.0839 
     56 C          20.8997  -34.6524  -39.0684 C.2       9 UNK         0.5513 
     57 N          22.0484  -35.3172  -39.0978 N.am      9 UNK        -0.7519 
     58 O          20.1310  -34.8106  -38.1233 O.2       9 UNK        -0.4960 
     59 C59        19.7695  -32.4296  -39.7530 C.3       10 UNK        -0.0876 
     60 S60        19.3988  -31.2080  -41.0568 S.3       10 UNK        -0.2414 
     61 C61        17.9994  -31.9856  -41.9119 C.3       10 UNK         0.0169 
     62 H62        15.0706  -22.6389  -41.6129 H         1 UNK         0.0903 
     63 H63        15.4371  -21.1740  -42.5263 H         1 UNK         0.0903 
     64 H64        13.8726  -21.9691  -42.7218 H         1 UNK         0.0903 
     65 H65        16.1212  -24.4320  -42.4537 H         1 UNK         0.3096 
     66 H66        16.0203  -25.1450  -45.2337 H         1 UNK         0.1121 
     67 H67        17.4584  -27.0847  -44.5117 H         1 UNK         0.0849 
     68 H68        17.6291  -26.3807  -42.9307 H         1 UNK         0.0849 
     69 H69        14.2759  -29.1226  -44.2457 H         1 UNK         0.0865 
     70 H70        15.1064  -28.1622  -45.4437 H         1 UNK         0.0865 
     71 H71        15.9891  -30.1886  -42.3722 H         1 UNK         0.1346 
     72 H72        19.3424  -32.0716  -44.2622 H         1 UNK         0.1412 
     73 H73        16.9887  -29.2211  -46.4330 H         1 UNK         0.1426 
     74 H74        18.5942  -31.2020  -47.5308 H         1 UNK         0.0716 
     75 H75        19.9426  -31.5882  -46.4896 H         1 UNK         0.0716 
     76 H76        20.1401  -28.8270  -44.7939 H         1 UNK         0.0695 
     77 H77        21.6088  -29.5560  -45.4030 H         1 UNK         0.0695 
     78 H78        22.2357  -27.4133  -46.5268 H         1 UNK         0.0983 
     79 H79        19.5340  -26.6491  -45.9769 H         1 UNK         0.3095 
     80 H80        19.8035  -23.2272  -46.5101 H         1 UNK         0.0454 
     81 H81        20.2377  -23.8390  -48.8824 H         1 UNK         0.0851 
     82 H82        19.0941  -25.1688  -48.7755 H         1 UNK         0.0851 
     83 H83        18.5345  -23.5015  -48.6311 H         1 UNK         0.0851 
     84 H84        17.6546  -25.1616  -46.7746 H         1 UNK         0.2976 
     85 H85        23.8648  -28.0373  -45.0230 H         1 UNK         0.3116 
     86 H86        24.2256  -26.2150  -42.7959 H         1 UNK         0.0646 
     87 H87        26.4739  -27.2916  -42.6976 H         1 UNK         0.0847 
     88 H88        26.0896  -26.7732  -44.3295 H         1 UNK         0.0847 
     89 H89        25.9785  -28.4791  -43.8940 H         1 UNK         0.0847 
     90 H90        22.1895  -27.1583  -41.7959 H         1 UNK         0.3040 
     91 H91        22.0091  -29.6285  -40.5009 H         1 UNK         0.1015 
     92 H92        20.1011  -28.0993  -40.8136 H         1 UNK         0.0786 
     93 H93        20.8109  -26.9217  -39.7101 H         1 UNK         0.0786 
     94 H94        20.2746  -28.4869  -39.1101 H         1 UNK         0.0786 
     95 H95        23.6099  -30.4120  -39.3334 H         1 UNK         0.3172 
     96 H96        24.4398  -30.2401  -36.8703 H         1 UNK         0.0595 
     97 H97        25.1246  -27.8763  -36.8075 H         1 UNK         0.0839 
     98 H98        26.0224  -28.0271  -38.3194 H         1 UNK         0.0839 
     99 H99        26.5914  -28.8230  -36.8585 H         1 UNK         0.0839 
    100 H100       25.8358  -29.8427  -40.1292 H         1 UNK         0.2998 
    101 H101       27.5354  -32.2733  -39.8738 H         1 UNK         0.0822 
    102 H102       28.5606  -30.3010  -40.9950 H         1 UNK         0.0787 
    103 H103       28.3253  -31.6065  -42.1468 H         1 UNK         0.0787 
    104 H104       27.2308  -30.2296  -42.1487 H         1 UNK         0.0787 
    105 H105       24.8342  -30.8491  -41.7239 H         1 UNK         0.3055 
    106 H106       23.8193  -33.4758  -42.6382 H         1 UNK         0.1106 
    107 H107       22.6245  -30.6482  -42.8908 H         1 UNK         0.0828 
    108 H108       23.6411  -31.4058  -44.1156 H         1 UNK         0.0828 
    109 H109       22.0730  -32.0892  -43.7242 H         1 UNK         0.0828 
    110 H110       21.5040  -33.9213  -42.1009 H         1 UNK         0.2931 
    111 H111       19.7857  -34.2893  -40.8175 H         1 UNK         0.0412 
    112 H112       22.2827  -35.9322  -38.3342 H         1 UNK         0.3472 
    113 H113       22.6885  -35.1998  -39.8666 H         1 UNK         0.3472 
    114 H114       20.3677  -31.9206  -38.9952 H         1 UNK         0.0970 
    115 H115       18.8350  -32.7002  -39.2584 H         1 UNK         0.0970 
    116 H116       17.1336  -32.0093  -41.2484 H         1 UNK         0.0612 
    117 H117       18.2404  -33.0211  -42.1549 H         1 UNK         0.0612 
@<TRIPOS>BOND
     1    1    2 1    
     2    1   62 1    
     3    1   63 1    
     4    1   64 1    
     5    2    3 2    
     6    2    4 am   BACKBONE|DICT|INTERRES
     7    4    5 1    
     8    4   65 1    
     9    5    6 1    
    10    5   25 1    
    11    5   66 1    
    12    6    7 1    
    13    6   67 1    
    14    6   68 1    
    15    7    8 1    
    16    8    9 1    
    17    8   69 1    
    18    8   70 1    
    19    9   10 ar   
    20    9   14 ar   
    21   10   11 ar   
    22   10   71 1    
    23   11   12 ar   
    24   11   61 1    
    25   12   13 ar   
    26   12   72 1    
    27   13   14 ar   
    28   13   15 1    
    29   14   73 1    
    30   15   16 1    
    31   15   74 1    
    32   15   75 1    
    33   16   17 1    
    34   17   18 1    
    35   17   76 1    
    36   17   77 1    
    37   18   19 1    
    38   18   27 1    
    39   18   78 1    
    40   19   20 am   BACKBONE|DICT|INTERRES
    41   19   79 1    
    42   20   21 2    
    43   20   22 1    
    44   22   23 1    
    45   22   24 1    
    46   22   80 1    
    47   23   81 1    
    48   23   82 1    
    49   23   83 1    
    50   24   25 am   BACKBONE|DICT|INTERRES
    51   24   84 1    
    52   25   26 2    
    53   27   28 2    
    54   27   29 am   BACKBONE|DICT|INTERRES
    55   29   30 1    
    56   29   85 1    
    57   30   31 1    
    58   30   32 1    
    59   30   86 1    
    60   31   87 1    
    61   31   88 1    
    62   31   89 1    
    63   32   33 2    
    64   32   34 am   BACKBONE|DICT|INTERRES
    65   34   35 1    
    66   34   90 1    
    67   35   36 1    
    68   35   37 1    
    69   35   91 1    
    70   36   92 1    
    71   36   93 1    
    72   36   94 1    
    73   37   38 2    
    74   37   39 am   BACKBONE|DICT|INTERRES
    75   39   40 1    
    76   39   95 1    
    77   40   41 1    
    78   40   42 1    
    79   40   96 1    
    80   41   97 1    
    81   41   98 1    
    82   41   99 1    
    83   42   43 2    
    84   42   44 am   BACKBONE|DICT|INTERRES
    85   44   45 1    
    86   44  100 1    
    87   45   46 1    
    88   45   47 1    
    89   45  101 1    
    90   46  102 1    
    91   46  103 1    
    92   46  104 1    
    93   47   48 2    
    94   47   49 am   BACKBONE|DICT|INTERRES
    95   49   50 1    
    96   49  105 1    
    97   50   51 1    
    98   50   52 1    
    99   50  106 1    
   100   51  107 1    
   101   51  108 1    
   102   51  109 1    
   103   52   53 2    
   104   52   54 am   BACKBONE|DICT|INTERRES
   105   54   55 1    
   106   54  110 1    
   107   55   56 1    
   108   55   59 1    
   109   55  111 1    
   110   56   57 am   BACKBONE|DICT|INTERRES
   111   56   58 2    
   112   57  112 1    
   113   57  113 1    
   114   59   60 1    
   115   59  114 1    
   116   59  115 1    
   117   60   61 1    
   118   61  116 1    
   119   61  117 1    
@<TRIPOS>SUBSTRUCTURE
     1 UNK         1 GROUP             0       ****    0 ROOT    
