@<TRIPOS>MOLECULE
3R8
117   119    1
SMALL
USER_CHARGES


@<TRIPOS>ATOM
      1 CA         23.6093  -25.0271  -44.0465 C.3       0 UNK        -0.2013 
      2 C          22.6718  -25.3245  -45.2078 C.2       0 UNK         0.4866 
      3 O          22.9575  -24.9283  -46.3371 O.2       0 UNK        -0.5176 
      4 N          21.5595  -26.0158  -44.9240 N.am      1 UNK        -0.4884 
      5 CA         20.4773  -26.3829  -45.8413 C.3       1 UNK         0.0853 
      6 C6         20.9886  -27.2583  -47.0229 C.3       10 UNK        -0.0849 
      7 S7         19.6682  -28.1335  -47.9326 S.3       10 UNK        -0.2776 
      8 C8         19.8451  -29.8586  -47.3646 C.3       10 UNK         0.0316 
      9 C9         19.0617  -30.1539  -46.0904 C.ar      10 UNK        -0.0863 
     10 C10        19.6728  -30.8204  -45.0234 C.ar      10 UNK        -0.1009 
     11 C11        18.9373  -31.1588  -43.8824 C.ar      10 UNK        -0.0712 
     12 C12        17.5845  -30.8150  -43.8044 C.ar      10 UNK        -0.0894 
     13 C13        16.9662  -30.1360  -44.8581 C.ar      10 UNK        -0.0745 
     14 C14        17.7060  -29.8201  -46.0004 C.ar      10 UNK        -0.0972 
     15 C15        15.4986  -29.7452  -44.7737 C.3       10 UNK         0.0209 
     16 S16        15.2993  -27.9695  -44.4222 S.3       10 UNK        -0.2568 
     17 C17        15.8078  -27.8760  -42.6726 C.3       10 UNK        -0.0983 
     18 CA         17.2907  -27.4679  -42.4925 C.3       3 UNK         0.0876 
     19 N          17.6037  -26.1913  -43.1411 N.am      3 UNK        -0.4424 
     20 C          18.8180  -25.6325  -43.1742 C.2       2 UNK         0.4918 
     21 O          19.8273  -26.1524  -42.6884 O.2       2 UNK        -0.4875 
     22 CA         18.9245  -24.2864  -43.9078 C.3       2 UNK         0.0481 
     23 CB         20.0289  -23.3802  -43.3338 C.3       2 UNK        -0.1831 
     24 N          19.0147  -24.3458  -45.3776 N.am      2 UNK        -0.4498 
     25 C          19.6525  -25.1365  -46.2662 C.2       1 UNK         0.5027 
     26 O          19.5891  -24.8521  -47.4620 O.2       1 UNK        -0.4969 
     27 C          17.6641  -27.4490  -40.9955 C.2       3 UNK         0.5005 
     28 O          17.3608  -26.4726  -40.3063 O.2       3 UNK        -0.5279 
     29 N          18.3309  -28.5198  -40.5435 N.am      4 UNK        -0.4463 
     30 CA         18.8884  -28.7485  -39.2026 C.3       4 UNK         0.0283 
     31 CB         17.8236  -28.5909  -38.0966 C.3       4 UNK        -0.1875 
     32 C          20.1689  -27.9480  -38.8862 C.2       4 UNK         0.4949 
     33 O          20.7591  -28.1906  -37.8330 O.2       4 UNK        -0.5039 
     34 N          20.5988  -27.0362  -39.7721 N.am      5 UNK        -0.4663 
     35 CA         21.7963  -26.2109  -39.5764 C.3       5 UNK         0.0242 
     36 CB         21.5213  -24.7892  -40.0914 C.3       5 UNK        -0.1982 
     37 C          23.0444  -26.7874  -40.2647 C.2       5 UNK         0.5017 
     38 O          24.1538  -26.3986  -39.8964 O.2       5 UNK        -0.5012 
     39 N          22.8626  -27.6709  -41.2568 N.am      6 UNK        -0.4439 
     40 CA         23.9577  -28.3202  -41.9815 C.3       6 UNK         0.0297 
     41 CB         23.4416  -28.8599  -43.3271 C.3       6 UNK        -0.2006 
     42 C          24.5652  -29.4662  -41.1608 C.2       6 UNK         0.4892 
     43 O          23.8484  -30.1306  -40.4104 O.2       6 UNK        -0.5089 
     44 N          25.8584  -29.7379  -41.3860 N.am      7 UNK        -0.4243 
     45 CA         26.5720  -30.8922  -40.8219 C.3       7 UNK         0.0196 
     46 CB         28.0680  -30.7840  -41.1573 C.3       7 UNK        -0.2007 
     47 C          26.0062  -32.2423  -41.3020 C.2       7 UNK         0.5020 
     48 O          26.0598  -33.2249  -40.5623 O.2       7 UNK        -0.5147 
     49 N          25.4245  -32.2492  -42.5106 N.am      8 UNK        -0.4734 
     50 CA         24.6959  -33.3737  -43.1042 C.3       8 UNK         0.0238 
     51 CB         24.3303  -33.0187  -44.5553 C.3       8 UNK        -0.1912 
     52 C          23.4322  -33.7853  -42.3249 C.2       8 UNK         0.5038 
     53 O          22.9834  -34.9214  -42.4829 O.2       8 UNK        -0.5046 
     54 N          22.8860  -32.8756  -41.5057 N.am      9 UNK        -0.4200 
     55 CA         21.7462  -33.1362  -40.6162 C.3       9 UNK         0.0839 
     56 C          22.1181  -33.9290  -39.3287 C.2       9 UNK         0.5513 
     57 N          23.3905  -34.1687  -39.0289 N.am      9 UNK        -0.7519 
     58 O          21.2291  -34.3430  -38.5893 O.2       9 UNK        -0.4960 
     59 C59        20.9681  -31.8391  -40.2631 C.3       10 UNK        -0.0876 
     60 S60        20.5434  -30.7740  -41.6859 S.3       10 UNK        -0.2414 
     61 C61        19.6006  -31.9099  -42.7405 C.3       10 UNK         0.0169 
     62 H62        24.5612  -25.5366  -44.1933 H         1 UNK         0.0903 
     63 H63        23.8013  -23.9564  -43.9826 H         1 UNK         0.0903 
     64 H64        23.1944  -25.3523  -43.0929 H         1 UNK         0.0903 
     65 H65        21.3500  -26.2330  -43.9546 H         1 UNK         0.3096 
     66 H66        19.8000  -27.0260  -45.2797 H         1 UNK         0.1121 
     67 H67        21.7001  -27.9956  -46.6488 H         1 UNK         0.0849 
     68 H68        21.5475  -26.6543  -47.7395 H         1 UNK         0.0849 
     69 H69        19.4693  -30.5161  -48.1497 H         1 UNK         0.0865 
     70 H70        20.9015  -30.1054  -47.2485 H         1 UNK         0.0865 
     71 H71        20.7175  -31.0941  -45.0828 H         1 UNK         0.1346 
     72 H72        17.0134  -31.0740  -42.9232 H         1 UNK         0.1412 
     73 H73        17.2224  -29.3101  -46.8228 H         1 UNK         0.1426 
     74 H74        14.9777  -30.3335  -44.0166 H         1 UNK         0.0716 
     75 H75        15.0103  -29.9719  -45.7226 H         1 UNK         0.0716 
     76 H76        15.6117  -28.8377  -42.1947 H         1 UNK         0.0695 
     77 H77        15.1542  -27.1559  -42.1761 H         1 UNK         0.0695 
     78 H78        17.9172  -28.2129  -42.9851 H         1 UNK         0.0983 
     79 H79        16.8257  -25.7126  -43.5708 H         1 UNK         0.3095 
     80 H80        17.9853  -23.7676  -43.7089 H         1 UNK         0.0454 
     81 H81        21.0253  -23.7900  -43.4720 H         1 UNK         0.0851 
     82 H82        19.8868  -23.2316  -42.2628 H         1 UNK         0.0851 
     83 H83        20.0110  -22.3935  -43.7962 H         1 UNK         0.0851 
     84 H84        18.4923  -23.5990  -45.8127 H         1 UNK         0.2976 
     85 H85        18.5620  -29.2461  -41.2097 H         1 UNK         0.3116 
     86 H86        19.1897  -29.7955  -39.1923 H         1 UNK         0.0646 
     87 H87        17.5310  -27.5506  -37.9540 H         1 UNK         0.0847 
     88 H88        18.2042  -28.9479  -37.1388 H         1 UNK         0.0847 
     89 H89        16.9261  -29.1670  -38.3214 H         1 UNK         0.0847 
     90 H90        20.0664  -26.8728  -40.6186 H         1 UNK         0.3040 
     91 H91        22.0218  -26.1353  -38.5101 H         1 UNK         0.1015 
     92 H92        21.4259  -24.7672  -41.1755 H         1 UNK         0.0786 
     93 H93        22.3387  -24.1167  -39.8280 H         1 UNK         0.0786 
     94 H94        20.6087  -24.3759  -39.6615 H         1 UNK         0.0786 
     95 H95        21.9260  -27.9957  -41.4472 H         1 UNK         0.3172 
     96 H96        24.7327  -27.5772  -42.1830 H         1 UNK         0.0595 
     97 H97        24.2584  -29.2645  -43.9256 H         1 UNK         0.0839 
     98 H98        22.9721  -28.0795  -43.9204 H         1 UNK         0.0839 
     99 H99        22.7134  -29.6594  -43.1964 H         1 UNK         0.0839 
    100 H100       26.3800  -29.1455  -42.0167 H         1 UNK         0.2998 
    101 H101       26.4582  -30.8579  -39.7362 H         1 UNK         0.0822 
    102 H102       28.6243  -31.6189  -40.7287 H         1 UNK         0.0787 
    103 H103       28.2438  -30.7939  -42.2338 H         1 UNK         0.0787 
    104 H104       28.5004  -29.8683  -40.7536 H         1 UNK         0.0787 
    105 H105       25.4433  -31.3931  -43.0443 H         1 UNK         0.3055 
    106 H106       25.3643  -34.2376  -43.1134 H         1 UNK         0.1106 
    107 H107       23.8136  -33.8475  -45.0416 H         1 UNK         0.0828 
    108 H108       23.6709  -32.1511  -44.6054 H         1 UNK         0.0828 
    109 H109       25.2188  -32.8026  -45.1489 H         1 UNK         0.0828 
    110 H110       23.3216  -31.9675  -41.4007 H         1 UNK         0.2931 
    111 H111       21.0539  -33.7828  -41.1579 H         1 UNK         0.0412 
    112 H112       24.1377  -33.8354  -39.6239 H         1 UNK         0.3472 
    113 H113       23.6093  -34.6873  -38.1929 H         1 UNK         0.3472 
    114 H114       21.5480  -31.2319  -39.5654 H         1 UNK         0.0970 
    115 H115       20.0425  -32.0894  -39.7417 H         1 UNK         0.0970 
    116 H116       20.2683  -32.6727  -43.1435 H         1 UNK         0.0612 
    117 H117       18.8540  -32.4313  -42.1394 H         1 UNK         0.0612 
@<TRIPOS>BOND
     1    1    2 1    
     2    1   62 1    
     3    1   63 1    
     4    1   64 1    
     5    2    3 2    
     6    2    4 am   BACKBONE|DICT|INTERRES
     7    4    5 1    
     8    4   65 1    
     9    5    6 1    
    10    5   25 1    
    11    5   66 1    
    12    6    7 1    
    13    6   67 1    
    14    6   68 1    
    15    7    8 1    
    16    8    9 1    
    17    8   69 1    
    18    8   70 1    
    19    9   10 ar   
    20    9   14 ar   
    21   10   11 ar   
    22   10   71 1    
    23   11   12 ar   
    24   11   61 1    
    25   12   13 ar   
    26   12   72 1    
    27   13   14 ar   
    28   13   15 1    
    29   14   73 1    
    30   15   16 1    
    31   15   74 1    
    32   15   75 1    
    33   16   17 1    
    34   17   18 1    
    35   17   76 1    
    36   17   77 1    
    37   18   19 1    
    38   18   27 1    
    39   18   78 1    
    40   19   20 am   BACKBONE|DICT|INTERRES
    41   19   79 1    
    42   20   21 2    
    43   20   22 1    
    44   22   23 1    
    45   22   24 1    
    46   22   80 1    
    47   23   81 1    
    48   23   82 1    
    49   23   83 1    
    50   24   25 am   BACKBONE|DICT|INTERRES
    51   24   84 1    
    52   25   26 2    
    53   27   28 2    
    54   27   29 am   BACKBONE|DICT|INTERRES
    55   29   30 1    
    56   29   85 1    
    57   30   31 1    
    58   30   32 1    
    59   30   86 1    
    60   31   87 1    
    61   31   88 1    
    62   31   89 1    
    63   32   33 2    
    64   32   34 am   BACKBONE|DICT|INTERRES
    65   34   35 1    
    66   34   90 1    
    67   35   36 1    
    68   35   37 1    
    69   35   91 1    
    70   36   92 1    
    71   36   93 1    
    72   36   94 1    
    73   37   38 2    
    74   37   39 am   BACKBONE|DICT|INTERRES
    75   39   40 1    
    76   39   95 1    
    77   40   41 1    
    78   40   42 1    
    79   40   96 1    
    80   41   97 1    
    81   41   98 1    
    82   41   99 1    
    83   42   43 2    
    84   42   44 am   BACKBONE|DICT|INTERRES
    85   44   45 1    
    86   44  100 1    
    87   45   46 1    
    88   45   47 1    
    89   45  101 1    
    90   46  102 1    
    91   46  103 1    
    92   46  104 1    
    93   47   48 2    
    94   47   49 am   BACKBONE|DICT|INTERRES
    95   49   50 1    
    96   49  105 1    
    97   50   51 1    
    98   50   52 1    
    99   50  106 1    
   100   51  107 1    
   101   51  108 1    
   102   51  109 1    
   103   52   53 2    
   104   52   54 am   BACKBONE|DICT|INTERRES
   105   54   55 1    
   106   54  110 1    
   107   55   56 1    
   108   55   59 1    
   109   55  111 1    
   110   56   57 am   BACKBONE|DICT|INTERRES
   111   56   58 2    
   112   57  112 1    
   113   57  113 1    
   114   59   60 1    
   115   59  114 1    
   116   59  115 1    
   117   60   61 1    
   118   61  116 1    
   119   61  117 1    
@<TRIPOS>SUBSTRUCTURE
     1 UNK         1 GROUP             0       ****    0 ROOT    
