@<TRIPOS>MOLECULE
3R8
117   119    1
SMALL
USER_CHARGES


@<TRIPOS>ATOM
      1 CA         19.7460  -22.5846  -40.1510 C.3       0 UNK        -0.2013 
      2 C          18.9751  -23.1761  -41.3215 C.2       0 UNK         0.4866 
      3 O          18.4260  -22.4297  -42.1316 O.2       0 UNK        -0.5176 
      4 N          18.9289  -24.5115  -41.4181 N.am      1 UNK        -0.4884 
      5 CA         18.1861  -25.2484  -42.4532 C.3       1 UNK         0.0853 
      6 C6         17.8339  -26.6835  -41.9727 C.3       10 UNK        -0.0849 
      7 S7         16.1886  -27.2041  -42.5626 S.3       10 UNK        -0.2776 
      8 C8         16.2401  -29.0021  -42.2695 C.3       10 UNK         0.0316 
      9 C9         17.1881  -29.7528  -43.2004 C.ar      10 UNK        -0.0863 
     10 C10        18.0560  -30.7129  -42.6719 C.ar      10 UNK        -0.1009 
     11 C11        18.8953  -31.4551  -43.5064 C.ar      10 UNK        -0.0712 
     12 C12        18.8649  -31.2314  -44.8850 C.ar      10 UNK        -0.0894 
     13 C13        18.0082  -30.2692  -45.4296 C.ar      10 UNK        -0.0745 
     14 C14        17.1685  -29.5377  -44.5837 C.ar      10 UNK        -0.0972 
     15 C15        17.9803  -30.0322  -46.9338 C.3       10 UNK         0.0209 
     16 S16        18.9617  -28.5772  -47.4209 S.3       10 UNK        -0.2568 
     17 C17        20.6283  -29.0843  -46.8839 C.3       10 UNK        -0.0983 
     18 CA         21.7263  -28.0362  -47.2265 C.3       3 UNK         0.0876 
     19 N          21.4435  -26.6996  -46.6905 N.am      3 UNK        -0.4424 
     20 C          21.3829  -26.3792  -45.3922 C.2       2 UNK         0.4918 
     21 O          21.5866  -27.1917  -44.4875 O.2       2 UNK        -0.4875 
     22 CA         21.0776  -24.9099  -45.0266 C.3       2 UNK         0.0481 
     23 CB         20.5947  -24.0385  -46.2089 C.3       2 UNK        -0.1831 
     24 N          20.1529  -24.8231  -43.8904 N.am      2 UNK        -0.4498 
     25 C          18.8851  -25.2629  -43.8359 C.2       1 UNK         0.5027 
     26 O          18.2660  -25.6753  -44.8171 O.2       1 UNK        -0.4969 
     27 C          23.1562  -28.4786  -46.8334 C.2       3 UNK         0.5005 
     28 O          24.1085  -27.7596  -47.1461 O.2       3 UNK        -0.5279 
     29 N          23.2927  -29.6423  -46.1815 N.am      4 UNK        -0.4463 
     30 CA         24.5750  -30.2381  -45.8094 C.3       4 UNK         0.0283 
     31 CB         24.3923  -31.7501  -45.5967 C.3       4 UNK        -0.1875 
     32 C          25.2235  -29.6016  -44.5690 C.2       4 UNK         0.4949 
     33 O          26.4483  -29.4728  -44.5498 O.2       4 UNK        -0.5039 
     34 N          24.4234  -29.2608  -43.5465 N.am      5 UNK        -0.4663 
     35 CA         24.9449  -28.8891  -42.2219 C.3       5 UNK         0.0242 
     36 CB         25.1035  -30.1647  -41.3748 C.3       5 UNK        -0.1982 
     37 C          24.1091  -27.8530  -41.4545 C.2       5 UNK         0.5017 
     38 O          24.5381  -27.4492  -40.3735 O.2       5 UNK        -0.5012 
     39 N          22.9380  -27.4575  -41.9750 N.am      6 UNK        -0.4439 
     40 CA         21.9886  -26.4975  -41.3906 C.3       6 UNK         0.0297 
     41 CB         22.6189  -25.0910  -41.2943 C.3       6 UNK        -0.2006 
     42 C          21.3071  -26.9244  -40.0756 C.2       6 UNK         0.4892 
     43 O          20.5680  -26.1161  -39.5099 O.2       6 UNK        -0.5089 
     44 N          21.5193  -28.1708  -39.6416 N.am      7 UNK        -0.4243 
     45 CA         20.9656  -28.7629  -38.4266 C.3       7 UNK         0.0196 
     46 CB         22.0587  -28.7995  -37.3376 C.3       7 UNK        -0.2007 
     47 C          20.3686  -30.1357  -38.7749 C.2       7 UNK         0.5020 
     48 O          19.6632  -30.2431  -39.7761 O.2       7 UNK        -0.5147 
     49 N          20.6425  -31.1612  -37.9572 N.am      8 UNK        -0.4734 
     50 CA         20.1433  -32.5303  -38.1436 C.3       8 UNK         0.0238 
     51 CB         20.2443  -33.2836  -36.8063 C.3       8 UNK        -0.1912 
     52 C          20.8601  -33.3178  -39.2581 C.2       8 UNK         0.5038 
     53 O          20.3328  -34.3411  -39.6953 O.2       8 UNK        -0.5046 
     54 N          22.0419  -32.8445  -39.6780 N.am      9 UNK        -0.4200 
     55 CA         22.9158  -33.4461  -40.7033 C.3       9 UNK         0.0839 
     56 C          23.5813  -34.7921  -40.2813 C.2       9 UNK         0.5513 
     57 N          23.6098  -35.1433  -39.0011 N.am      9 UNK        -0.7519 
     58 O          24.1097  -35.5174  -41.1203 O.2       9 UNK        -0.4960 
     59 C59        22.2716  -33.5226  -42.1199 C.3       10 UNK        -0.0876 
     60 S60        21.5082  -31.9620  -42.6952 S.3       10 UNK        -0.2414 
     61 C61        19.7954  -32.5337  -42.9250 C.3       10 UNK         0.0169 
     62 H62        20.0956  -23.3535  -39.4620 H         1 UNK         0.0903 
     63 H63        20.6115  -22.0297  -40.5119 H         1 UNK         0.0903 
     64 H64        19.1102  -21.8980  -39.5926 H         1 UNK         0.0903 
     65 H65        19.3963  -25.0754  -40.7120 H         1 UNK         0.3096 
     66 H66        17.2514  -24.7026  -42.6043 H         1 UNK         0.1121 
     67 H67        17.8028  -26.7293  -40.8826 H         1 UNK         0.0849 
     68 H68        18.5914  -27.4099  -42.2766 H         1 UNK         0.0849 
     69 H69        16.5019  -29.1771  -41.2245 H         1 UNK         0.0865 
     70 H70        15.2357  -29.4052  -42.4047 H         1 UNK         0.0865 
     71 H71        18.0656  -30.9004  -41.6075 H         1 UNK         0.1346 
     72 H72        19.5095  -31.8088  -45.5336 H         1 UNK         0.1412 
     73 H73        16.4998  -28.7988  -45.0042 H         1 UNK         0.1426 
     74 H74        18.3479  -30.9097  -47.4682 H         1 UNK         0.0716 
     75 H75        16.9498  -29.8873  -47.2612 H         1 UNK         0.0716 
     76 H76        20.8489  -30.0414  -47.3602 H         1 UNK         0.0695 
     77 H77        20.5954  -29.2625  -45.8083 H         1 UNK         0.0695 
     78 H78        21.7440  -27.9287  -48.3123 H         1 UNK         0.0983 
     79 H79        21.2915  -25.9751  -47.3759 H         1 UNK         0.3095 
     80 H80        22.0202  -24.4882  -44.6758 H         1 UNK         0.0454 
     81 H81        20.3569  -23.0278  -45.8772 H         1 UNK         0.0851 
     82 H82        19.7019  -24.4461  -46.6844 H         1 UNK         0.0851 
     83 H83        21.3662  -23.9444  -46.9739 H         1 UNK         0.0851 
     84 H84        20.5545  -24.4918  -43.0263 H         1 UNK         0.2976 
     85 H85        22.4612  -30.1624  -45.9422 H         1 UNK         0.3116 
     86 H86        25.2667  -30.1050  -46.6444 H         1 UNK         0.0646 
     87 H87        24.0183  -32.2367  -46.4976 H         1 UNK         0.0847 
     88 H88        25.3415  -32.2255  -45.3451 H         1 UNK         0.0847 
     89 H89        23.6977  -31.9661  -44.7849 H         1 UNK         0.0847 
     90 H90        23.4282  -29.4079  -43.6368 H         1 UNK         0.3040 
     91 H91        25.9296  -28.4298  -42.3364 H         1 UNK         0.1015 
     92 H92        25.7209  -30.9103  -41.8760 H         1 UNK         0.0786 
     93 H93        24.1317  -30.6102  -41.1680 H         1 UNK         0.0786 
     94 H94        25.5753  -29.9484  -40.4152 H         1 UNK         0.0786 
     95 H95        22.6709  -27.7776  -42.9003 H         1 UNK         0.3172 
     96 H96        21.1665  -26.4456  -42.0983 H         1 UNK         0.0595 
     97 H97        23.4196  -25.0563  -40.5553 H         1 UNK         0.0839 
     98 H98        21.8857  -24.3424  -40.9994 H         1 UNK         0.0839 
     99 H99        23.0346  -24.7763  -42.2513 H         1 UNK         0.0839 
    100 H100       22.0746  -28.7837  -40.2202 H         1 UNK         0.2998 
    101 H101       20.1353  -28.1555  -38.0602 H         1 UNK         0.0822 
    102 H102       21.6660  -29.1611  -36.3864 H         1 UNK         0.0787 
    103 H103       22.8984  -29.4348  -37.6231 H         1 UNK         0.0787 
    104 H104       22.4549  -27.8005  -37.1531 H         1 UNK         0.0787 
    105 H105       21.2218  -30.9915  -37.1470 H         1 UNK         0.3055 
    106 H106       19.0888  -32.4759  -38.4249 H         1 UNK         0.1106 
    107 H107       19.8549  -34.2987  -36.8985 H         1 UNK         0.0828 
    108 H108       21.2758  -33.3612  -36.4608 H         1 UNK         0.0828 
    109 H109       19.6646  -32.7884  -36.0271 H         1 UNK         0.0828 
    110 H110       22.3909  -32.0049  -39.2425 H         1 UNK         0.2931 
    111 H111       23.7594  -32.7638  -40.7829 H         1 UNK         0.0412 
    112 H112       24.0518  -36.0101  -38.7371 H         1 UNK         0.3472 
    113 H113       23.1925  -34.5548  -38.2986 H         1 UNK         0.3472 
    114 H114       21.5337  -34.3261  -42.1463 H         1 UNK         0.0970 
    115 H115       23.0277  -33.7985  -42.8571 H         1 UNK         0.0970 
    116 H116       19.4020  -32.8749  -41.9663 H         1 UNK         0.0612 
    117 H117       19.7910  -33.4017  -43.5862 H         1 UNK         0.0612 
@<TRIPOS>BOND
     1    1    2 1    
     2    1   62 1    
     3    1   63 1    
     4    1   64 1    
     5    2    3 2    
     6    2    4 am   BACKBONE|DICT|INTERRES
     7    4    5 1    
     8    4   65 1    
     9    5    6 1    
    10    5   25 1    
    11    5   66 1    
    12    6    7 1    
    13    6   67 1    
    14    6   68 1    
    15    7    8 1    
    16    8    9 1    
    17    8   69 1    
    18    8   70 1    
    19    9   10 ar   
    20    9   14 ar   
    21   10   11 ar   
    22   10   71 1    
    23   11   12 ar   
    24   11   61 1    
    25   12   13 ar   
    26   12   72 1    
    27   13   14 ar   
    28   13   15 1    
    29   14   73 1    
    30   15   16 1    
    31   15   74 1    
    32   15   75 1    
    33   16   17 1    
    34   17   18 1    
    35   17   76 1    
    36   17   77 1    
    37   18   19 1    
    38   18   27 1    
    39   18   78 1    
    40   19   20 am   BACKBONE|DICT|INTERRES
    41   19   79 1    
    42   20   21 2    
    43   20   22 1    
    44   22   23 1    
    45   22   24 1    
    46   22   80 1    
    47   23   81 1    
    48   23   82 1    
    49   23   83 1    
    50   24   25 am   BACKBONE|DICT|INTERRES
    51   24   84 1    
    52   25   26 2    
    53   27   28 2    
    54   27   29 am   BACKBONE|DICT|INTERRES
    55   29   30 1    
    56   29   85 1    
    57   30   31 1    
    58   30   32 1    
    59   30   86 1    
    60   31   87 1    
    61   31   88 1    
    62   31   89 1    
    63   32   33 2    
    64   32   34 am   BACKBONE|DICT|INTERRES
    65   34   35 1    
    66   34   90 1    
    67   35   36 1    
    68   35   37 1    
    69   35   91 1    
    70   36   92 1    
    71   36   93 1    
    72   36   94 1    
    73   37   38 2    
    74   37   39 am   BACKBONE|DICT|INTERRES
    75   39   40 1    
    76   39   95 1    
    77   40   41 1    
    78   40   42 1    
    79   40   96 1    
    80   41   97 1    
    81   41   98 1    
    82   41   99 1    
    83   42   43 2    
    84   42   44 am   BACKBONE|DICT|INTERRES
    85   44   45 1    
    86   44  100 1    
    87   45   46 1    
    88   45   47 1    
    89   45  101 1    
    90   46  102 1    
    91   46  103 1    
    92   46  104 1    
    93   47   48 2    
    94   47   49 am   BACKBONE|DICT|INTERRES
    95   49   50 1    
    96   49  105 1    
    97   50   51 1    
    98   50   52 1    
    99   50  106 1    
   100   51  107 1    
   101   51  108 1    
   102   51  109 1    
   103   52   53 2    
   104   52   54 am   BACKBONE|DICT|INTERRES
   105   54   55 1    
   106   54  110 1    
   107   55   56 1    
   108   55   59 1    
   109   55  111 1    
   110   56   57 am   BACKBONE|DICT|INTERRES
   111   56   58 2    
   112   57  112 1    
   113   57  113 1    
   114   59   60 1    
   115   59  114 1    
   116   59  115 1    
   117   60   61 1    
   118   61  116 1    
   119   61  117 1    
@<TRIPOS>SUBSTRUCTURE
     1 UNK         1 GROUP             0       ****    0 ROOT    
