@<TRIPOS>MOLECULE
3R8
117   119    1
SMALL
USER_CHARGES


@<TRIPOS>ATOM
      1 CA         16.9742  -22.6496  -45.5417 C.3       0 UNK        -0.2013 
      2 C          17.1877  -24.0604  -45.0149 C.2       0 UNK         0.4866 
      3 O          18.2312  -24.6584  -45.2843 O.2       0 UNK        -0.5176 
      4 N          16.2065  -24.5920  -44.2685 N.am      1 UNK        -0.4884 
      5 CA         16.2297  -25.9185  -43.6411 C.3       1 UNK         0.0853 
      6 C6         14.8439  -26.2893  -43.0532 C.3       10 UNK        -0.0849 
      7 S7         14.7609  -27.8904  -42.1731 S.3       10 UNK        -0.2776 
      8 C8         14.8259  -29.1050  -43.5304 C.3       10 UNK         0.0316 
      9 C9         16.2550  -29.4545  -43.9308 C.ar      10 UNK        -0.0863 
     10 C10        17.1092  -30.0774  -43.0145 C.ar      10 UNK        -0.1009 
     11 C11        18.4049  -30.4491  -43.3859 C.ar      10 UNK        -0.0712 
     12 C12        18.8522  -30.1835  -44.6833 C.ar      10 UNK        -0.0894 
     13 C13        18.0063  -29.5680  -45.6109 C.ar      10 UNK        -0.0745 
     14 C14        16.7102  -29.2065  -45.2295 C.ar      10 UNK        -0.0972 
     15 C15        18.4655  -29.3394  -47.0427 C.3       10 UNK         0.0209 
     16 S16        19.0801  -27.6484  -47.2993 S.3       10 UNK        -0.2568 
     17 C17        20.8345  -27.8067  -46.8222 C.3       10 UNK        -0.0983 
     18 CA         21.3272  -26.5742  -46.0186 C.3       3 UNK         0.0876 
     19 N          20.6017  -26.4100  -44.7488 N.am      3 UNK        -0.4424 
     20 C          20.7601  -27.1201  -43.6171 C.2       2 UNK         0.4918 
     21 O          21.6210  -27.9825  -43.4486 O.2       2 UNK        -0.4875 
     22 CA         19.7936  -26.8005  -42.4727 C.3       2 UNK         0.0481 
     23 CB         20.2854  -25.5235  -41.7547 C.3       2 UNK        -0.1831 
     24 N          18.4618  -26.6665  -43.0598 N.am      2 UNK        -0.4498 
     25 C          17.3852  -26.0065  -42.6219 C.2       1 UNK         0.5027 
     26 O          17.2884  -25.4398  -41.5313 O.2       1 UNK        -0.4969 
     27 C          22.8667  -26.5384  -45.8564 C.2       3 UNK         0.5005 
     28 O          23.5783  -27.2798  -46.5358 O.2       3 UNK        -0.5279 
     29 N          23.3461  -25.7043  -44.9187 N.am      4 UNK        -0.4463 
     30 CA         24.7351  -25.5402  -44.4586 C.3       4 UNK         0.0283 
     31 CB         25.6605  -25.0955  -45.6101 C.3       4 UNK        -0.1875 
     32 C          25.3242  -26.7472  -43.6942 C.2       4 UNK         0.4949 
     33 O          26.4216  -26.6223  -43.1498 O.2       4 UNK        -0.5039 
     34 N          24.6018  -27.8731  -43.6313 N.am      5 UNK        -0.4663 
     35 CA         24.9569  -29.0595  -42.8515 C.3       5 UNK         0.0242 
     36 CB         24.3037  -30.2920  -43.4960 C.3       5 UNK        -0.1982 
     37 C          24.5394  -28.8966  -41.3796 C.2       5 UNK         0.5017 
     38 O          25.2974  -29.2893  -40.4912 O.2       5 UNK        -0.5012 
     39 N          23.3733  -28.2667  -41.1627 N.am      6 UNK        -0.4439 
     40 CA         22.8028  -27.8109  -39.8907 C.3       6 UNK         0.0297 
     41 CB         23.6044  -26.6115  -39.3399 C.3       6 UNK        -0.2006 
     42 C          22.6147  -28.9384  -38.8611 C.2       6 UNK         0.4892 
     43 O          21.5452  -29.5475  -38.8246 O.2       6 UNK        -0.5089 
     44 N          23.6417  -29.1777  -38.0334 N.am      7 UNK        -0.4243 
     45 CA         23.6874  -30.2564  -37.0443 C.3       7 UNK         0.0196 
     46 CB         24.8652  -30.0174  -36.0861 C.3       7 UNK        -0.2007 
     47 C          23.7880  -31.6492  -37.6897 C.2       7 UNK         0.5020 
     48 O          23.2884  -32.6161  -37.1134 O.2       7 UNK        -0.5147 
     49 N          24.4128  -31.7281  -38.8716 N.am      8 UNK        -0.4734 
     50 CA         24.4018  -32.9136  -39.7254 C.3       8 UNK         0.0238 
     51 CB         25.6977  -32.9509  -40.5513 C.3       8 UNK        -0.1912 
     52 C          23.1688  -32.8641  -40.6393 C.2       8 UNK         0.5038 
     53 O          22.7893  -31.7825  -41.0899 O.2       8 UNK        -0.5046 
     54 N          22.5764  -34.0274  -40.9151 N.am      9 UNK        -0.4200 
     55 CA         21.4126  -34.1934  -41.7920 C.3       9 UNK         0.0839 
     56 C          21.2639  -35.6780  -42.2235 C.2       9 UNK         0.5513 
     57 N          20.3232  -35.9790  -43.1066 N.am      9 UNK        -0.7519 
     58 O          21.9908  -36.5603  -41.7678 O.2       9 UNK        -0.4960 
     59 C59        20.1129  -33.5933  -41.1744 C.3       10 UNK        -0.0876 
     60 S60        18.9616  -32.9651  -42.4417 S.3       10 UNK        -0.2414 
     61 C61        19.3024  -31.1774  -42.3978 C.3       10 UNK         0.0169 
     62 H62        16.0101  -22.2410  -45.2396 H         1 UNK         0.0903 
     63 H63        17.7556  -21.9886  -45.1679 H         1 UNK         0.0903 
     64 H64        17.0178  -22.6468  -46.6305 H         1 UNK         0.0903 
     65 H65        15.3899  -24.0319  -44.0684 H         1 UNK         0.3096 
     66 H66        16.4329  -26.6253  -44.4457 H         1 UNK         0.1121 
     67 H67        14.0931  -26.2916  -43.8450 H         1 UNK         0.0849 
     68 H68        14.5264  -25.5193  -42.3475 H         1 UNK         0.0849 
     69 H69        14.3269  -30.0180  -43.2023 H         1 UNK         0.0865 
     70 H70        14.2518  -28.7381  -44.3827 H         1 UNK         0.0865 
     71 H71        16.7567  -30.2924  -42.0148 H         1 UNK         0.1346 
     72 H72        19.8499  -30.4807  -44.9759 H         1 UNK         0.1412 
     73 H73        16.0520  -28.7450  -45.9536 H         1 UNK         0.1426 
     74 H74        17.6288  -29.5101  -47.7219 H         1 UNK         0.0716 
     75 H75        19.2320  -30.0625  -47.3262 H         1 UNK         0.0716 
     76 H76        21.4011  -27.9245  -47.7476 H         1 UNK         0.0695 
     77 H77        20.9915  -28.7204  -46.2473 H         1 UNK         0.0695 
     78 H78        21.0914  -25.6877  -46.6100 H         1 UNK         0.0983 
     79 H79        19.8510  -25.7240  -44.7832 H         1 UNK         0.3095 
     80 H80        19.7846  -27.6402  -41.7757 H         1 UNK         0.0454 
     81 H81        19.7814  -25.3847  -40.7987 H         1 UNK         0.0851 
     82 H82        20.1180  -24.6290  -42.3557 H         1 UNK         0.0851 
     83 H83        21.3535  -25.5714  -41.5398 H         1 UNK         0.0851 
     84 H84        18.3863  -27.1019  -43.9709 H         1 UNK         0.2976 
     85 H85        22.6647  -25.1535  -44.4144 H         1 UNK         0.3116 
     86 H86        24.7044  -24.7235  -43.7357 H         1 UNK         0.0646 
     87 H87        25.8014  -25.8844  -46.3492 H         1 UNK         0.0847 
     88 H88        25.2647  -24.2195  -46.1237 H         1 UNK         0.0847 
     89 H89        26.6492  -24.8293  -45.2343 H         1 UNK         0.0847 
     90 H90        23.6960  -27.8877  -44.0837 H         1 UNK         0.3040 
     91 H91        26.0407  -29.1938  -42.8805 H         1 UNK         0.1015 
     92 H92        24.6236  -31.2075  -43.0001 H         1 UNK         0.0786 
     93 H93        24.5788  -30.3832  -44.5469 H         1 UNK         0.0786 
     94 H94        23.2150  -30.2531  -43.4371 H         1 UNK         0.0786 
     95 H95        22.7978  -28.0949  -41.9832 H         1 UNK         0.3172 
     96 H96        21.8001  -27.4507  -40.1210 H         1 UNK         0.0595 
     97 H97        24.6574  -26.8485  -39.1856 H         1 UNK         0.0839 
     98 H98        23.1987  -26.2726  -38.3856 H         1 UNK         0.0839 
     99 H99        23.5592  -25.7651  -40.0252 H         1 UNK         0.0839 
    100 H100       24.4923  -28.6513  -38.1744 H         1 UNK         0.2998 
    101 H101       22.7613  -30.2262  -36.4661 H         1 UNK         0.0822 
    102 H102       24.9094  -30.7949  -35.3220 H         1 UNK         0.0787 
    103 H103       24.7696  -29.0622  -35.5694 H         1 UNK         0.0787 
    104 H104       25.8211  -30.0222  -36.6118 H         1 UNK         0.0787 
    105 H105       24.7257  -30.8669  -39.3100 H         1 UNK         0.3055 
    106 H106       24.3551  -33.8149  -39.1096 H         1 UNK         0.1106 
    107 H107       26.5717  -33.0474  -39.9070 H         1 UNK         0.0828 
    108 H108       25.7040  -33.8004  -41.2355 H         1 UNK         0.0828 
    109 H109       25.8250  -32.0475  -41.1477 H         1 UNK         0.0828 
    110 H110       22.9531  -34.8962  -40.5580 H         1 UNK         0.2931 
    111 H111       21.6558  -33.6459  -42.7053 H         1 UNK         0.0412 
    112 H112       19.7105  -35.2601  -43.4625 H         1 UNK         0.3472 
    113 H113       20.2075  -36.9359  -43.4024 H         1 UNK         0.3472 
    114 H114       20.3418  -32.7698  -40.4966 H         1 UNK         0.0970 
    115 H115       19.5958  -34.3307  -40.5578 H         1 UNK         0.0970 
    116 H116       19.1363  -30.7942  -41.3897 H         1 UNK         0.0612 
    117 H117       20.3541  -30.9987  -42.6300 H         1 UNK         0.0612 
@<TRIPOS>BOND
     1    1    2 1    
     2    1   62 1    
     3    1   63 1    
     4    1   64 1    
     5    2    3 2    
     6    2    4 am   BACKBONE|DICT|INTERRES
     7    4    5 1    
     8    4   65 1    
     9    5    6 1    
    10    5   25 1    
    11    5   66 1    
    12    6    7 1    
    13    6   67 1    
    14    6   68 1    
    15    7    8 1    
    16    8    9 1    
    17    8   69 1    
    18    8   70 1    
    19    9   10 ar   
    20    9   14 ar   
    21   10   11 ar   
    22   10   71 1    
    23   11   12 ar   
    24   11   61 1    
    25   12   13 ar   
    26   12   72 1    
    27   13   14 ar   
    28   13   15 1    
    29   14   73 1    
    30   15   16 1    
    31   15   74 1    
    32   15   75 1    
    33   16   17 1    
    34   17   18 1    
    35   17   76 1    
    36   17   77 1    
    37   18   19 1    
    38   18   27 1    
    39   18   78 1    
    40   19   20 am   BACKBONE|DICT|INTERRES
    41   19   79 1    
    42   20   21 2    
    43   20   22 1    
    44   22   23 1    
    45   22   24 1    
    46   22   80 1    
    47   23   81 1    
    48   23   82 1    
    49   23   83 1    
    50   24   25 am   BACKBONE|DICT|INTERRES
    51   24   84 1    
    52   25   26 2    
    53   27   28 2    
    54   27   29 am   BACKBONE|DICT|INTERRES
    55   29   30 1    
    56   29   85 1    
    57   30   31 1    
    58   30   32 1    
    59   30   86 1    
    60   31   87 1    
    61   31   88 1    
    62   31   89 1    
    63   32   33 2    
    64   32   34 am   BACKBONE|DICT|INTERRES
    65   34   35 1    
    66   34   90 1    
    67   35   36 1    
    68   35   37 1    
    69   35   91 1    
    70   36   92 1    
    71   36   93 1    
    72   36   94 1    
    73   37   38 2    
    74   37   39 am   BACKBONE|DICT|INTERRES
    75   39   40 1    
    76   39   95 1    
    77   40   41 1    
    78   40   42 1    
    79   40   96 1    
    80   41   97 1    
    81   41   98 1    
    82   41   99 1    
    83   42   43 2    
    84   42   44 am   BACKBONE|DICT|INTERRES
    85   44   45 1    
    86   44  100 1    
    87   45   46 1    
    88   45   47 1    
    89   45  101 1    
    90   46  102 1    
    91   46  103 1    
    92   46  104 1    
    93   47   48 2    
    94   47   49 am   BACKBONE|DICT|INTERRES
    95   49   50 1    
    96   49  105 1    
    97   50   51 1    
    98   50   52 1    
    99   50  106 1    
   100   51  107 1    
   101   51  108 1    
   102   51  109 1    
   103   52   53 2    
   104   52   54 am   BACKBONE|DICT|INTERRES
   105   54   55 1    
   106   54  110 1    
   107   55   56 1    
   108   55   59 1    
   109   55  111 1    
   110   56   57 am   BACKBONE|DICT|INTERRES
   111   56   58 2    
   112   57  112 1    
   113   57  113 1    
   114   59   60 1    
   115   59  114 1    
   116   59  115 1    
   117   60   61 1    
   118   61  116 1    
   119   61  117 1    
@<TRIPOS>SUBSTRUCTURE
     1 UNK         1 GROUP             0       ****    0 ROOT    
