@<TRIPOS>MOLECULE
3R8
117   119    1
SMALL
USER_CHARGES


@<TRIPOS>ATOM
      1 CA         15.5530  -22.7666  -46.7702 C.3       0 UNK        -0.2013 
      2 C          15.9218  -23.8045  -45.7209 C.2       0 UNK         0.4866 
      3 O          15.5021  -23.6824  -44.5702 O.2       0 UNK        -0.5176 
      4 N          16.7129  -24.8151  -46.1106 N.am      1 UNK        -0.4884 
      5 CA         17.1638  -25.9483  -45.2823 C.3       1 UNK         0.0853 
      6 C6         16.0043  -26.8742  -44.8166 C.3       10 UNK        -0.0849 
      7 S7         15.2299  -27.6942  -46.2576 S.3       10 UNK        -0.2776 
      8 C8         15.3904  -29.4782  -45.8884 C.3       10 UNK         0.0316 
      9 C9         16.7786  -29.9018  -45.4151 C.ar      10 UNK        -0.0863 
     10 C10        16.9093  -30.6315  -44.2311 C.ar      10 UNK        -0.1009 
     11 C11        18.1638  -31.0220  -43.7549 C.ar      10 UNK        -0.0712 
     12 C12        19.3062  -30.6575  -44.4820 C.ar      10 UNK        -0.0894 
     13 C13        19.1953  -29.9171  -45.6648 C.ar      10 UNK        -0.0745 
     14 C14        17.9260  -29.5677  -46.1395 C.ar      10 UNK        -0.0972 
     15 C15        20.4454  -29.4927  -46.4275 C.3       10 UNK         0.0209 
     16 S16        20.5041  -27.6840  -46.6695 S.3       10 UNK        -0.2568 
     17 C17        22.1891  -27.2427  -46.1112 C.3       10 UNK        -0.0983 
     18 CA         22.2427  -26.6483  -44.6790 C.3       3 UNK         0.0876 
     19 N          21.2651  -25.5733  -44.5037 N.am      3 UNK        -0.4424 
     20 C          21.1223  -24.7705  -43.4408 C.2       2 UNK         0.4918 
     21 O          21.8957  -24.7550  -42.4828 O.2       2 UNK        -0.4875 
     22 CA         19.8637  -23.8794  -43.4256 C.3       2 UNK         0.0481 
     23 CB         20.2204  -22.4387  -43.8226 C.3       2 UNK        -0.1831 
     24 N          18.7899  -24.3732  -44.3008 N.am      2 UNK        -0.4498 
     25 C          18.1311  -25.5348  -44.1476 C.2       1 UNK         0.5027 
     26 O          18.3332  -26.2951  -43.2001 O.2       1 UNK        -0.4969 
     27 C          22.1585  -27.7592  -43.6105 C.2       3 UNK         0.5005 
     28 O          23.1307  -28.4984  -43.4663 O.2       3 UNK        -0.5279 
     29 N          21.0503  -27.8529  -42.8569 N.am      4 UNK        -0.4463 
     30 CA         20.8433  -28.8158  -41.7692 C.3       4 UNK         0.0283 
     31 CB         19.4515  -28.6026  -41.1568 C.3       4 UNK        -0.1875 
     32 C          21.9183  -28.7942  -40.6694 C.2       4 UNK         0.4949 
     33 O          22.2091  -29.8432  -40.0930 O.2       4 UNK        -0.5039 
     34 N          22.5074  -27.6163  -40.4214 N.am      5 UNK        -0.4663 
     35 CA         23.6212  -27.4301  -39.4896 C.3       5 UNK         0.0242 
     36 CB         23.7409  -25.9375  -39.1433 C.3       5 UNK        -0.1982 
     37 C          24.9592  -27.9648  -40.0322 C.2       5 UNK         0.5017 
     38 O          25.7955  -28.3969  -39.2392 O.2       5 UNK        -0.5012 
     39 N          25.1396  -27.9278  -41.3600 N.am      6 UNK        -0.4439 
     40 CA         26.3291  -28.4265  -42.0551 C.3       6 UNK         0.0297 
     41 CB         26.5278  -27.6461  -43.3652 C.3       6 UNK        -0.2006 
     42 C          26.2242  -29.9339  -42.3290 C.2       6 UNK         0.4892 
     43 O          27.2081  -30.6530  -42.1547 O.2       6 UNK        -0.5089 
     44 N          25.0259  -30.3835  -42.7273 N.am      7 UNK        -0.4243 
     45 CA         24.6688  -31.7888  -42.9312 C.3       7 UNK         0.0196 
     46 CB         23.3228  -31.8540  -43.6713 C.3       7 UNK        -0.2007 
     47 C          24.5956  -32.5912  -41.6197 C.2       7 UNK         0.5020 
     48 O          24.7277  -33.8144  -41.6621 O.2       7 UNK        -0.5147 
     49 N          24.3896  -31.8890  -40.4947 N.am      8 UNK        -0.4734 
     50 CA         24.2387  -32.3976  -39.1287 C.3       8 UNK         0.0238 
     51 CB         25.5416  -33.0633  -38.6356 C.3       8 UNK        -0.1912 
     52 C          23.0002  -33.3000  -38.9963 C.2       8 UNK         0.5038 
     53 O          23.1131  -34.4507  -38.5678 O.2       8 UNK        -0.5046 
     54 N          21.8401  -32.7546  -39.3868 N.am      9 UNK        -0.4200 
     55 CA         20.5368  -33.4397  -39.3357 C.3       9 UNK         0.0839 
     56 C          20.0249  -33.7671  -37.9011 C.2       9 UNK         0.5513 
     57 N          20.5251  -33.1251  -36.8517 N.am      9 UNK        -0.7519 
     58 O          19.1551  -34.6196  -37.7413 O.2       9 UNK        -0.4960 
     59 C59        19.4438  -32.6715  -40.1201 C.3       10 UNK        -0.0876 
     60 S60        19.8312  -32.4115  -41.8829 S.3       10 UNK        -0.2414 
     61 C61        18.2034  -31.7939  -42.4338 C.3       10 UNK         0.0169 
     62 H62        15.9959  -22.9901  -47.7406 H         1 UNK         0.0903 
     63 H63        14.4710  -22.7276  -46.8934 H         1 UNK         0.0903 
     64 H64        15.8961  -21.7801  -46.4597 H         1 UNK         0.0903 
     65 H65        17.0128  -24.8511  -47.0759 H         1 UNK         0.3096 
     66 H66        17.7939  -26.5496  -45.9390 H         1 UNK         0.1121 
     67 H67        15.2437  -26.3106  -44.2751 H         1 UNK         0.0849 
     68 H68        16.3585  -27.6322  -44.1171 H         1 UNK         0.0849 
     69 H69        14.6364  -29.7366  -45.1431 H         1 UNK         0.0865 
     70 H70        15.1368  -30.0461  -46.7844 H         1 UNK         0.0865 
     71 H71        16.0250  -30.8940  -43.6660 H         1 UNK         0.1346 
     72 H72        20.2883  -30.9358  -44.1306 H         1 UNK         0.1412 
     73 H73        17.8332  -29.0038  -47.0578 H         1 UNK         0.1426 
     74 H74        21.3416  -29.8295  -45.9045 H         1 UNK         0.0716 
     75 H75        20.4550  -29.9822  -47.4021 H         1 UNK         0.0716 
     76 H76        22.5678  -26.4982  -46.8130 H         1 UNK         0.0695 
     77 H77        22.8614  -28.0966  -46.2171 H         1 UNK         0.0695 
     78 H78        23.2276  -26.1945  -44.5495 H         1 UNK         0.0983 
     79 H79        20.5756  -25.5070  -45.2376 H         1 UNK         0.3095 
     80 H80        19.4823  -23.8695  -42.4026 H         1 UNK         0.0454 
     81 H81        19.3566  -21.7787  -43.7413 H         1 UNK         0.0851 
     82 H82        20.5941  -22.3806  -44.8456 H         1 UNK         0.0851 
     83 H83        20.9956  -22.0351  -43.1696 H         1 UNK         0.0851 
     84 H84        18.5568  -23.8050  -45.1028 H         1 UNK         0.2976 
     85 H85        20.2775  -27.2251  -43.0484 H         1 UNK         0.3116 
     86 H86        20.8782  -29.8063  -42.2162 H         1 UNK         0.0646 
     87 H87        18.6672  -28.7337  -41.9024 H         1 UNK         0.0847 
     88 H88        19.2602  -29.3175  -40.3562 H         1 UNK         0.0847 
     89 H89        19.3456  -27.6023  -40.7353 H         1 UNK         0.0847 
     90 H90        22.1995  -26.8042  -40.9404 H         1 UNK         0.3040 
     91 H91        23.3979  -27.9783  -38.5712 H         1 UNK         0.1015 
     92 H92        23.9391  -25.3314  -40.0286 H         1 UNK         0.0786 
     93 H93        24.5555  -25.7636  -38.4386 H         1 UNK         0.0786 
     94 H94        22.8278  -25.5640  -38.6794 H         1 UNK         0.0786 
     95 H95        24.3643  -27.6381  -41.9424 H         1 UNK         0.3172 
     96 H96        27.2072  -28.2570  -41.4280 H         1 UNK         0.0595 
     97 H97        25.6906  -27.7774  -44.0517 H         1 UNK         0.0839 
     98 H98        27.4273  -27.9814  -43.8834 H         1 UNK         0.0839 
     99 H99        26.6426  -26.5786  -43.1770 H         1 UNK         0.0839 
    100 H100       24.2912  -29.7005  -42.9122 H         1 UNK         0.2998 
    101 H101       25.4352  -32.2478  -43.5592 H         1 UNK         0.0822 
    102 H102       23.0304  -32.8867  -43.8664 H         1 UNK         0.0787 
    103 H103       22.5259  -31.3944  -43.0864 H         1 UNK         0.0787 
    104 H104       23.3709  -31.3408  -44.6319 H         1 UNK         0.0787 
    105 H105       24.2250  -30.8964  -40.6004 H         1 UNK         0.3055 
    106 H106       24.0548  -31.5286  -38.4942 H         1 UNK         0.1106 
    107 H107       26.3898  -32.3843  -38.7230 H         1 UNK         0.0828 
    108 H108       25.4595  -33.3468  -37.5857 H         1 UNK         0.0828 
    109 H109       25.7770  -33.9678  -39.1970 H         1 UNK         0.0828 
    110 H110       21.8417  -31.7996  -39.7312 H         1 UNK         0.2931 
    111 H111       20.6735  -34.4026  -39.8320 H         1 UNK         0.0412 
    112 H112       21.2338  -32.4198  -36.9731 H         1 UNK         0.3472 
    113 H113       20.1868  -33.3480  -35.9286 H         1 UNK         0.3472 
    114 H114       18.4959  -33.2116  -40.0678 H         1 UNK         0.0970 
    115 H115       19.2654  -31.6989  -39.6582 H         1 UNK         0.0970 
    116 H116       17.5268  -32.6471  -42.5012 H         1 UNK         0.0612 
    117 H117       17.7996  -31.1414  -41.6585 H         1 UNK         0.0612 
@<TRIPOS>BOND
     1    1    2 1    
     2    1   62 1    
     3    1   63 1    
     4    1   64 1    
     5    2    3 2    
     6    2    4 am   BACKBONE|DICT|INTERRES
     7    4    5 1    
     8    4   65 1    
     9    5    6 1    
    10    5   25 1    
    11    5   66 1    
    12    6    7 1    
    13    6   67 1    
    14    6   68 1    
    15    7    8 1    
    16    8    9 1    
    17    8   69 1    
    18    8   70 1    
    19    9   10 ar   
    20    9   14 ar   
    21   10   11 ar   
    22   10   71 1    
    23   11   12 ar   
    24   11   61 1    
    25   12   13 ar   
    26   12   72 1    
    27   13   14 ar   
    28   13   15 1    
    29   14   73 1    
    30   15   16 1    
    31   15   74 1    
    32   15   75 1    
    33   16   17 1    
    34   17   18 1    
    35   17   76 1    
    36   17   77 1    
    37   18   19 1    
    38   18   27 1    
    39   18   78 1    
    40   19   20 am   BACKBONE|DICT|INTERRES
    41   19   79 1    
    42   20   21 2    
    43   20   22 1    
    44   22   23 1    
    45   22   24 1    
    46   22   80 1    
    47   23   81 1    
    48   23   82 1    
    49   23   83 1    
    50   24   25 am   BACKBONE|DICT|INTERRES
    51   24   84 1    
    52   25   26 2    
    53   27   28 2    
    54   27   29 am   BACKBONE|DICT|INTERRES
    55   29   30 1    
    56   29   85 1    
    57   30   31 1    
    58   30   32 1    
    59   30   86 1    
    60   31   87 1    
    61   31   88 1    
    62   31   89 1    
    63   32   33 2    
    64   32   34 am   BACKBONE|DICT|INTERRES
    65   34   35 1    
    66   34   90 1    
    67   35   36 1    
    68   35   37 1    
    69   35   91 1    
    70   36   92 1    
    71   36   93 1    
    72   36   94 1    
    73   37   38 2    
    74   37   39 am   BACKBONE|DICT|INTERRES
    75   39   40 1    
    76   39   95 1    
    77   40   41 1    
    78   40   42 1    
    79   40   96 1    
    80   41   97 1    
    81   41   98 1    
    82   41   99 1    
    83   42   43 2    
    84   42   44 am   BACKBONE|DICT|INTERRES
    85   44   45 1    
    86   44  100 1    
    87   45   46 1    
    88   45   47 1    
    89   45  101 1    
    90   46  102 1    
    91   46  103 1    
    92   46  104 1    
    93   47   48 2    
    94   47   49 am   BACKBONE|DICT|INTERRES
    95   49   50 1    
    96   49  105 1    
    97   50   51 1    
    98   50   52 1    
    99   50  106 1    
   100   51  107 1    
   101   51  108 1    
   102   51  109 1    
   103   52   53 2    
   104   52   54 am   BACKBONE|DICT|INTERRES
   105   54   55 1    
   106   54  110 1    
   107   55   56 1    
   108   55   59 1    
   109   55  111 1    
   110   56   57 am   BACKBONE|DICT|INTERRES
   111   56   58 2    
   112   57  112 1    
   113   57  113 1    
   114   59   60 1    
   115   59  114 1    
   116   59  115 1    
   117   60   61 1    
   118   61  116 1    
   119   61  117 1    
@<TRIPOS>SUBSTRUCTURE
     1 UNK         1 GROUP             0       ****    0 ROOT    
