@<TRIPOS>MOLECULE
3R8
117   119    1
SMALL
USER_CHARGES


@<TRIPOS>ATOM
      1 CA         15.1819  -23.9282  -41.4234 C.3       0 UNK        -0.2013 
      2 C          15.3899  -24.4376  -42.8419 C.2       0 UNK         0.4866 
      3 O          14.4307  -24.5281  -43.6083 O.2       0 UNK        -0.5176 
      4 N          16.6346  -24.7687  -43.1968 N.am      1 UNK        -0.4884 
      5 CA         17.0505  -25.2508  -44.5117 C.3       1 UNK         0.0853 
      6 C6         16.6797  -26.7395  -44.7298 C.3       10 UNK        -0.0849 
      7 S7         16.6182  -27.2108  -46.4894 S.3       10 UNK        -0.2776 
      8 C8         16.2735  -28.9953  -46.3523 C.3       10 UNK         0.0316 
      9 C9         17.3858  -29.7320  -45.6188 C.ar      10 UNK        -0.0863 
     10 C10        17.1851  -30.2103  -44.3206 C.ar      10 UNK        -0.1009 
     11 C11        18.2062  -30.8750  -43.6329 C.ar      10 UNK        -0.0712 
     12 C12        19.4481  -31.0400  -44.2637 C.ar      10 UNK        -0.0894 
     13 C13        19.6629  -30.5670  -45.5616 C.ar      10 UNK        -0.0745 
     14 C14        18.6215  -29.9258  -46.2377 C.ar      10 UNK        -0.0972 
     15 C15        21.0033  -30.7874  -46.2514 C.3       10 UNK         0.0209 
     16 S16        21.7092  -29.2446  -46.9155 S.3       10 UNK        -0.2568 
     17 C17        22.8013  -28.6630  -45.5703 C.3       10 UNK        -0.0983 
     18 CA         22.1827  -27.6378  -44.5753 C.3       3 UNK         0.0876 
     19 N          21.2513  -26.6972  -45.2035 N.am      3 UNK        -0.4424 
     20 C          21.5591  -25.4533  -45.5858 C.2       2 UNK         0.4918 
     21 O          22.6693  -24.9427  -45.4330 O.2       2 UNK        -0.4875 
     22 CA         20.4444  -24.6223  -46.2498 C.3       2 UNK         0.0481 
     23 CB         20.5800  -24.6913  -47.7794 C.3       2 UNK        -0.1831 
     24 N          19.0697  -24.9809  -45.8767 N.am      2 UNK        -0.4498 
     25 C          18.5641  -24.9967  -44.6359 C.2       1 UNK         0.5027 
     26 O          19.2405  -24.8356  -43.6148 O.2       1 UNK        -0.4969 
     27 C          21.6059  -28.2556  -43.2863 C.2       3 UNK         0.5005 
     28 O          22.1382  -29.2618  -42.8059 O.2       3 UNK        -0.5279 
     29 N          20.6012  -27.6012  -42.6763 N.am      4 UNK        -0.4463 
     30 CA         19.9930  -27.9670  -41.3866 C.3       4 UNK         0.0283 
     31 CB         18.5974  -27.3291  -41.2676 C.3       4 UNK        -0.1875 
     32 C          20.8920  -27.6531  -40.1696 C.2       4 UNK         0.4949 
     33 O          20.4282  -27.0781  -39.1846 O.2       4 UNK        -0.5039 
     34 N          22.1639  -28.0455  -40.2745 N.am      5 UNK        -0.4663 
     35 CA         23.2401  -27.9233  -39.2940 C.3       5 UNK         0.0242 
     36 CB         23.4994  -26.4578  -38.8842 C.3       5 UNK        -0.1982 
     37 C          24.5041  -28.5415  -39.8972 C.2       5 UNK         0.5017 
     38 O          25.0899  -29.4393  -39.2937 O.2       5 UNK        -0.5012 
     39 N          24.8709  -28.0744  -41.1012 N.am      6 UNK        -0.4439 
     40 CA         26.0765  -28.4624  -41.8432 C.3       6 UNK         0.0297 
     41 CB         26.1741  -27.6282  -43.1309 C.3       6 UNK        -0.2006 
     42 C          26.1723  -29.9618  -42.1739 C.2       6 UNK         0.4892 
     43 O          27.2738  -30.5110  -42.1521 O.2       6 UNK        -0.5089 
     44 N          25.0257  -30.5989  -42.4470 N.am      7 UNK        -0.4243 
     45 CA         24.9200  -32.0365  -42.7149 C.3       7 UNK         0.0196 
     46 CB         23.7934  -32.2582  -43.7404 C.3       7 UNK        -0.2007 
     47 C          24.6967  -32.8762  -41.4395 C.2       7 UNK         0.5020 
     48 O          24.3381  -34.0479  -41.5584 O.2       7 UNK        -0.5147 
     49 N          24.8595  -32.2702  -40.2496 N.am      8 UNK        -0.4734 
     50 CA         24.5019  -32.8029  -38.9222 C.3       8 UNK         0.0238 
     51 CB         25.3418  -34.0477  -38.5640 C.3       8 UNK        -0.1912 
     52 C          22.9826  -33.0349  -38.7780 C.2       8 UNK         0.5038 
     53 O          22.5511  -33.9301  -38.0499 O.2       8 UNK        -0.5046 
     54 N          22.2128  -32.2157  -39.5016 N.am      9 UNK        -0.4200 
     55 CA         20.7575  -32.2850  -39.6717 C.3       9 UNK         0.0839 
     56 C          19.9897  -31.2555  -38.7877 C.2       9 UNK         0.5513 
     57 N          20.6523  -30.5180  -37.9043 N.am      9 UNK        -0.7519 
     58 O          18.7735  -31.1283  -38.8858 O.2       9 UNK        -0.4960 
     59 C59        20.4387  -32.1646  -41.1862 C.3       10 UNK        -0.0876 
     60 S60        18.8367  -32.8687  -41.7004 S.3       10 UNK        -0.2414 
     61 C61        17.9230  -31.3711  -42.2113 C.3       10 UNK         0.0169 
     62 H62        14.4720  -24.5654  -40.8967 H         1 UNK         0.0903 
     63 H63        16.1115  -23.9150  -40.8545 H         1 UNK         0.0903 
     64 H64        14.7814  -22.9150  -41.4432 H         1 UNK         0.0903 
     65 H65        17.4121  -24.6274  -42.5619 H         1 UNK         0.3096 
     66 H66        16.5473  -24.6352  -45.2614 H         1 UNK         0.1121 
     67 H67        15.6963  -26.9535  -44.3086 H         1 UNK         0.0849 
     68 H68        17.3789  -27.3896  -44.2055 H         1 UNK         0.0849 
     69 H69        15.3144  -29.1401  -45.8524 H         1 UNK         0.0865 
     70 H70        16.1611  -29.4140  -47.3535 H         1 UNK         0.0865 
     71 H71        16.2277  -30.0601  -43.8401 H         1 UNK         0.1346 
     72 H72        20.2568  -31.5445  -43.7595 H         1 UNK         0.1412 
     73 H73        18.7774  -29.5622  -47.2445 H         1 UNK         0.1426 
     74 H74        20.8510  -31.4807  -47.0795 H         1 UNK         0.0716 
     75 H75        21.7197  -31.2649  -45.5832 H         1 UNK         0.0716 
     76 H76        23.6397  -28.1759  -46.0704 H         1 UNK         0.0695 
     77 H77        23.2502  -29.5162  -45.0614 H         1 UNK         0.0695 
     78 H78        23.0244  -27.0631  -44.1840 H         1 UNK         0.0983 
     79 H79        20.3281  -27.0542  -45.4051 H         1 UNK         0.3095 
     80 H80        20.5958  -23.5853  -45.9437 H         1 UNK         0.0454 
     81 H81        20.4011  -25.7001  -48.1543 H         1 UNK         0.0851 
     82 H82        21.5821  -24.3997  -48.0976 H         1 UNK         0.0851 
     83 H83        19.8790  -24.0184  -48.2735 H         1 UNK         0.0851 
     84 H84        18.4407  -25.1794  -46.6430 H         1 UNK         0.2976 
     85 H85        20.2873  -26.7262  -43.0798 H         1 UNK         0.3116 
     86 H86        19.8464  -29.0448  -41.3817 H         1 UNK         0.0646 
     87 H87        17.9373  -27.6705  -42.0618 H         1 UNK         0.0847 
     88 H88        18.6465  -26.2408  -41.3018 H         1 UNK         0.0847 
     89 H89        18.1188  -27.6048  -40.3268 H         1 UNK         0.0847 
     90 H90        22.3966  -28.5527  -41.1263 H         1 UNK         0.3040 
     91 H91        22.9674  -28.4983  -38.4069 H         1 UNK         0.1015 
     92 H92        24.3929  -26.3778  -38.2633 H         1 UNK         0.0786 
     93 H93        22.6743  -26.0524  -38.2991 H         1 UNK         0.0786 
     94 H94        23.6426  -25.8098  -39.7494 H         1 UNK         0.0786 
     95 H95        24.3270  -27.3210  -41.4949 H         1 UNK         0.3172 
     96 H96        26.9332  -28.2141  -41.2132 H         1 UNK         0.0595 
     97 H97        25.3435  -27.8284  -43.8079 H         1 UNK         0.0839 
     98 H98        27.0934  -27.8565  -43.6725 H         1 UNK         0.0839 
     99 H99        26.1865  -26.5594  -42.9163 H         1 UNK         0.0839 
    100 H100       24.1602  -30.0720  -42.4586 H         1 UNK         0.2998 
    101 H101       25.8495  -32.3938  -43.1634 H         1 UNK         0.0822 
    102 H102       24.0148  -31.7503  -44.6786 H         1 UNK         0.0787 
    103 H103       23.6683  -33.3157  -43.9768 H         1 UNK         0.0787 
    104 H104       22.8359  -31.8880  -43.3742 H         1 UNK         0.0787 
    105 H105       25.1710  -31.3042  -40.2457 H         1 UNK         0.3055 
    106 H106       24.7538  -32.0220  -38.2024 H         1 UNK         0.1106 
    107 H107       25.0807  -34.9083  -39.1803 H         1 UNK         0.0828 
    108 H108       25.1843  -34.3374  -37.5244 H         1 UNK         0.0828 
    109 H109       26.4076  -33.8563  -38.6876 H         1 UNK         0.0828 
    110 H110       22.6790  -31.5009  -40.0383 H         1 UNK         0.2931 
    111 H111       20.4227  -33.2695  -39.3398 H         1 UNK         0.0412 
    112 H112       21.6425  -30.6403  -37.7738 H         1 UNK         0.3472 
    113 H113       20.1445  -29.8561  -37.3386 H         1 UNK         0.3472 
    114 H114       21.1858  -32.7198  -41.7562 H         1 UNK         0.0970 
    115 H115       20.5367  -31.1327  -41.5183 H         1 UNK         0.0970 
    116 H116       16.8616  -31.6071  -42.1217 H         1 UNK         0.0612 
    117 H117       18.1084  -30.5651  -41.5021 H         1 UNK         0.0612 
@<TRIPOS>BOND
     1    1    2 1    
     2    1   62 1    
     3    1   63 1    
     4    1   64 1    
     5    2    3 2    
     6    2    4 am   BACKBONE|DICT|INTERRES
     7    4    5 1    
     8    4   65 1    
     9    5    6 1    
    10    5   25 1    
    11    5   66 1    
    12    6    7 1    
    13    6   67 1    
    14    6   68 1    
    15    7    8 1    
    16    8    9 1    
    17    8   69 1    
    18    8   70 1    
    19    9   10 ar   
    20    9   14 ar   
    21   10   11 ar   
    22   10   71 1    
    23   11   12 ar   
    24   11   61 1    
    25   12   13 ar   
    26   12   72 1    
    27   13   14 ar   
    28   13   15 1    
    29   14   73 1    
    30   15   16 1    
    31   15   74 1    
    32   15   75 1    
    33   16   17 1    
    34   17   18 1    
    35   17   76 1    
    36   17   77 1    
    37   18   19 1    
    38   18   27 1    
    39   18   78 1    
    40   19   20 am   BACKBONE|DICT|INTERRES
    41   19   79 1    
    42   20   21 2    
    43   20   22 1    
    44   22   23 1    
    45   22   24 1    
    46   22   80 1    
    47   23   81 1    
    48   23   82 1    
    49   23   83 1    
    50   24   25 am   BACKBONE|DICT|INTERRES
    51   24   84 1    
    52   25   26 2    
    53   27   28 2    
    54   27   29 am   BACKBONE|DICT|INTERRES
    55   29   30 1    
    56   29   85 1    
    57   30   31 1    
    58   30   32 1    
    59   30   86 1    
    60   31   87 1    
    61   31   88 1    
    62   31   89 1    
    63   32   33 2    
    64   32   34 am   BACKBONE|DICT|INTERRES
    65   34   35 1    
    66   34   90 1    
    67   35   36 1    
    68   35   37 1    
    69   35   91 1    
    70   36   92 1    
    71   36   93 1    
    72   36   94 1    
    73   37   38 2    
    74   37   39 am   BACKBONE|DICT|INTERRES
    75   39   40 1    
    76   39   95 1    
    77   40   41 1    
    78   40   42 1    
    79   40   96 1    
    80   41   97 1    
    81   41   98 1    
    82   41   99 1    
    83   42   43 2    
    84   42   44 am   BACKBONE|DICT|INTERRES
    85   44   45 1    
    86   44  100 1    
    87   45   46 1    
    88   45   47 1    
    89   45  101 1    
    90   46  102 1    
    91   46  103 1    
    92   46  104 1    
    93   47   48 2    
    94   47   49 am   BACKBONE|DICT|INTERRES
    95   49   50 1    
    96   49  105 1    
    97   50   51 1    
    98   50   52 1    
    99   50  106 1    
   100   51  107 1    
   101   51  108 1    
   102   51  109 1    
   103   52   53 2    
   104   52   54 am   BACKBONE|DICT|INTERRES
   105   54   55 1    
   106   54  110 1    
   107   55   56 1    
   108   55   59 1    
   109   55  111 1    
   110   56   57 am   BACKBONE|DICT|INTERRES
   111   56   58 2    
   112   57  112 1    
   113   57  113 1    
   114   59   60 1    
   115   59  114 1    
   116   59  115 1    
   117   60   61 1    
   118   61  116 1    
   119   61  117 1    
@<TRIPOS>SUBSTRUCTURE
     1 UNK         1 GROUP             0       ****    0 ROOT    
