@<TRIPOS>MOLECULE
3R8
117   119    1
SMALL
USER_CHARGES


@<TRIPOS>ATOM
      1 CA         19.1755  -23.0741  -40.9346 C.3       0 UNK        -0.2013 
      2 C          18.9166  -23.4371  -42.3893 C.2       0 UNK         0.4866 
      3 O          19.0266  -22.5771  -43.2640 O.2       0 UNK        -0.5176 
      4 N          18.5593  -24.7008  -42.6505 N.am      1 UNK        -0.4884 
      5 CA         18.2911  -25.2475  -43.9856 C.3       1 UNK         0.0853 
      6 C6         17.6971  -26.6776  -43.9186 C.3       10 UNK        -0.0849 
      7 S7         16.2047  -26.8025  -42.8737 S.3       10 UNK        -0.2776 
      8 C8         15.2018  -28.0253  -43.7857 C.3       10 UNK         0.0316 
      9 C9         15.9705  -29.3121  -44.0597 C.ar      10 UNK        -0.0863 
     10 C10        16.3612  -30.1407  -43.0031 C.ar      10 UNK        -0.1009 
     11 C11        17.1145  -31.2933  -43.2459 C.ar      10 UNK        -0.0712 
     12 C12        17.4547  -31.6293  -44.5586 C.ar      10 UNK        -0.0894 
     13 C13        17.0727  -30.8077  -45.6223 C.ar      10 UNK        -0.0745 
     14 C14        16.3194  -29.6578  -45.3693 C.ar      10 UNK        -0.0972 
     15 C15        17.5222  -31.1384  -47.0382 C.3       10 UNK         0.0209 
     16 S16        18.7551  -29.9479  -47.6619 S.3       10 UNK        -0.2568 
     17 C17        20.0270  -29.9859  -46.3491 C.3       10 UNK        -0.0983 
     18 CA         21.1413  -28.9286  -46.5558 C.3       3 UNK         0.0876 
     19 N          20.5753  -27.5864  -46.7324 N.am      3 UNK        -0.4424 
     20 C          21.1872  -26.5278  -47.2778 C.2       2 UNK         0.4918 
     21 O          22.3063  -26.5722  -47.7874 O.2       2 UNK        -0.4875 
     22 CA         20.4424  -25.1791  -47.1997 C.3       2 UNK         0.0481 
     23 CB         19.8388  -24.8252  -48.5682 C.3       2 UNK        -0.1831 
     24 N          19.3861  -25.1211  -46.1772 N.am      2 UNK        -0.4498 
     25 C          19.5653  -25.2709  -44.8552 C.2       1 UNK         0.5027 
     26 O          20.6597  -25.5075  -44.3332 O.2       1 UNK        -0.4969 
     27 C          22.1796  -29.0017  -45.4060 C.2       3 UNK         0.5005 
     28 O          22.6943  -30.0898  -45.1457 O.2       3 UNK        -0.5279 
     29 N          22.4592  -27.8661  -44.7426 N.am      4 UNK        -0.4463 
     30 CA         23.3648  -27.6648  -43.6091 C.3       4 UNK         0.0283 
     31 CB         24.8020  -28.1392  -43.9150 C.3       4 UNK        -0.1875 
     32 C          22.7831  -28.2772  -42.3297 C.2       4 UNK         0.4949 
     33 O          23.3087  -29.2611  -41.8120 O.2       4 UNK        -0.5039 
     34 N          21.7026  -27.6640  -41.8267 N.am      5 UNK        -0.4663 
     35 CA         20.9788  -28.0842  -40.6173 C.3       5 UNK         0.0242 
     36 CB         19.7788  -27.1534  -40.3891 C.3       5 UNK        -0.1982 
     37 C          21.8332  -28.1870  -39.3389 C.2       5 UNK         0.5017 
     38 O          21.4939  -28.9719  -38.4541 O.2       5 UNK        -0.5012 
     39 N          22.9285  -27.4193  -39.2770 N.am      6 UNK        -0.4439 
     40 CA         23.8996  -27.4205  -38.1820 C.3       6 UNK         0.0297 
     41 CB         24.5949  -26.0486  -38.1448 C.3       6 UNK        -0.2006 
     42 C          24.9481  -28.5496  -38.2651 C.2       6 UNK         0.4892 
     43 O          25.6873  -28.7264  -37.2959 O.2       6 UNK        -0.5089 
     44 N          25.0325  -29.2700  -39.3965 N.am      7 UNK        -0.4243 
     45 CA         26.0348  -30.3145  -39.6351 C.3       7 UNK         0.0196 
     46 CB         26.0784  -30.7058  -41.1218 C.3       7 UNK        -0.2007 
     47 C          25.9967  -31.5540  -38.7067 C.2       7 UNK         0.5020 
     48 O          27.0787  -32.0107  -38.3413 O.2       7 UNK        -0.5147 
     49 N          24.8565  -32.1179  -38.2709 N.am      8 UNK        -0.4734 
     50 CA         23.4636  -31.9061  -38.6776 C.3       8 UNK         0.0238 
     51 CB         22.5520  -32.5480  -37.6175 C.3       8 UNK        -0.1912 
     52 C          23.1550  -32.4972  -40.0624 C.2       8 UNK         0.5038 
     53 O          23.8969  -33.3545  -40.5491 O.2       8 UNK        -0.5046 
     54 N          22.0465  -32.0369  -40.6515 N.am      9 UNK        -0.4200 
     55 CA         21.5060  -32.5008  -41.9365 C.3       9 UNK         0.0839 
     56 C          21.0915  -34.0000  -41.9429 C.2       9 UNK         0.5513 
     57 N          21.0942  -34.6332  -43.1084 N.am      9 UNK        -0.7519 
     58 O          20.7361  -34.5819  -40.9196 O.2       9 UNK        -0.4960 
     59 C59        20.3546  -31.5823  -42.4254 C.3       10 UNK        -0.0876 
     60 S60        18.9897  -31.3932  -41.2173 S.3       10 UNK        -0.2414 
     61 C61        17.5859  -32.1581  -42.0871 C.3       10 UNK         0.0169 
     62 H62        18.6122  -22.1813  -40.6643 H         1 UNK         0.0903 
     63 H63        20.2346  -22.8678  -40.7829 H         1 UNK         0.0903 
     64 H64        18.8821  -23.8740  -40.2554 H         1 UNK         0.0903 
     65 H65        18.4524  -25.3551  -41.8901 H         1 UNK         0.3096 
     66 H66        17.5620  -24.5892  -44.4635 H         1 UNK         0.1121 
     67 H67        17.4425  -27.0146  -44.9250 H         1 UNK         0.0849 
     68 H68        18.4310  -27.3923  -43.5395 H         1 UNK         0.0849 
     69 H69        14.3081  -28.2569  -43.2045 H         1 UNK         0.0865 
     70 H70        14.8521  -27.5750  -44.7161 H         1 UNK         0.0865 
     71 H71        16.1083  -29.8696  -41.9869 H         1 UNK         0.1346 
     72 H72        18.0441  -32.5154  -44.7500 H         1 UNK         0.1412 
     73 H73        16.0363  -29.0168  -46.1933 H         1 UNK         0.1426 
     74 H74        17.9449  -32.1431  -47.0875 H         1 UNK         0.0716 
     75 H75        16.6571  -31.1361  -47.7027 H         1 UNK         0.0716 
     76 H76        20.4479  -30.9927  -46.3181 H         1 UNK         0.0695 
     77 H77        19.5465  -29.8218  -45.3831 H         1 UNK         0.0695 
     78 H78        21.6798  -29.1840  -47.4710 H         1 UNK         0.0983 
     79 H79        19.6391  -27.4606  -46.3805 H         1 UNK         0.3095 
     80 H80        21.1829  -24.4177  -46.9466 H         1 UNK         0.0454 
     81 H81        19.3915  -23.8311  -48.5616 H         1 UNK         0.0851 
     82 H82        19.0709  -25.5393  -48.8684 H         1 UNK         0.0851 
     83 H83        20.6046  -24.8262  -49.3453 H         1 UNK         0.0851 
     84 H84        18.4521  -24.9441  -46.5201 H         1 UNK         0.2976 
     85 H85        21.9223  -27.0432  -44.9939 H         1 UNK         0.3116 
     86 H86        23.4125  -26.5863  -43.4494 H         1 UNK         0.0646 
     87 H87        25.1819  -27.6904  -44.8325 H         1 UNK         0.0847 
     88 H88        25.4796  -27.8550  -43.1093 H         1 UNK         0.0847 
     89 H89        24.8671  -29.2226  -44.0186 H         1 UNK         0.0847 
     90 H90        21.3325  -26.8658  -42.3267 H         1 UNK         0.3040 
     91 H91        20.5946  -29.0849  -40.8051 H         1 UNK         0.1015 
     92 H92        20.0904  -26.1136  -40.2874 H         1 UNK         0.0786 
     93 H93        19.2400  -27.4242  -39.4797 H         1 UNK         0.0786 
     94 H94        19.0666  -27.2245  -41.2098 H         1 UNK         0.0786 
     95 H95        23.1216  -26.8094  -40.0580 H         1 UNK         0.3172 
     96 H96        23.3621  -27.5501  -37.2401 H         1 UNK         0.0595 
     97 H97        25.1605  -25.8565  -39.0575 H         1 UNK         0.0839 
     98 H98        25.2947  -25.9863  -37.3102 H         1 UNK         0.0839 
     99 H99        23.8741  -25.2405  -38.0183 H         1 UNK         0.0839 
    100 H100       24.3787  -29.0946  -40.1538 H         1 UNK         0.2998 
    101 H101       26.9964  -29.8383  -39.4299 H         1 UNK         0.0822 
    102 H102       26.3440  -29.8521  -41.7448 H         1 UNK         0.0787 
    103 H103       26.8257  -31.4798  -41.3010 H         1 UNK         0.0787 
    104 H104       25.1254  -31.0895  -41.4800 H         1 UNK         0.0787 
    105 H105       24.9777  -32.9141  -37.6631 H         1 UNK         0.3055 
    106 H106       23.2374  -30.8450  -38.6952 H         1 UNK         0.1106 
    107 H107       21.4992  -32.3762  -37.8466 H         1 UNK         0.0828 
    108 H108       22.7347  -32.1258  -36.6290 H         1 UNK         0.0828 
    109 H109       22.6987  -33.6272  -37.5560 H         1 UNK         0.0828 
    110 H110       21.4697  -31.3720  -40.1587 H         1 UNK         0.2931 
    111 H111       22.3220  -32.3986  -42.6554 H         1 UNK         0.0412 
    112 H112       20.8178  -35.6024  -43.1389 H         1 UNK         0.3472 
    113 H113       21.3871  -34.1703  -43.9548 H         1 UNK         0.3472 
    114 H114       20.7533  -30.5905  -42.6405 H         1 UNK         0.0970 
    115 H115       19.9697  -31.9375  -43.3811 H         1 UNK         0.0970 
    116 H116       17.8679  -33.1556  -42.4283 H         1 UNK         0.0612 
    117 H117       16.7660  -32.2948  -41.3807 H         1 UNK         0.0612 
@<TRIPOS>BOND
     1    1    2 1    
     2    1   62 1    
     3    1   63 1    
     4    1   64 1    
     5    2    3 2    
     6    2    4 am   BACKBONE|DICT|INTERRES
     7    4    5 1    
     8    4   65 1    
     9    5    6 1    
    10    5   25 1    
    11    5   66 1    
    12    6    7 1    
    13    6   67 1    
    14    6   68 1    
    15    7    8 1    
    16    8    9 1    
    17    8   69 1    
    18    8   70 1    
    19    9   10 ar   
    20    9   14 ar   
    21   10   11 ar   
    22   10   71 1    
    23   11   12 ar   
    24   11   61 1    
    25   12   13 ar   
    26   12   72 1    
    27   13   14 ar   
    28   13   15 1    
    29   14   73 1    
    30   15   16 1    
    31   15   74 1    
    32   15   75 1    
    33   16   17 1    
    34   17   18 1    
    35   17   76 1    
    36   17   77 1    
    37   18   19 1    
    38   18   27 1    
    39   18   78 1    
    40   19   20 am   BACKBONE|DICT|INTERRES
    41   19   79 1    
    42   20   21 2    
    43   20   22 1    
    44   22   23 1    
    45   22   24 1    
    46   22   80 1    
    47   23   81 1    
    48   23   82 1    
    49   23   83 1    
    50   24   25 am   BACKBONE|DICT|INTERRES
    51   24   84 1    
    52   25   26 2    
    53   27   28 2    
    54   27   29 am   BACKBONE|DICT|INTERRES
    55   29   30 1    
    56   29   85 1    
    57   30   31 1    
    58   30   32 1    
    59   30   86 1    
    60   31   87 1    
    61   31   88 1    
    62   31   89 1    
    63   32   33 2    
    64   32   34 am   BACKBONE|DICT|INTERRES
    65   34   35 1    
    66   34   90 1    
    67   35   36 1    
    68   35   37 1    
    69   35   91 1    
    70   36   92 1    
    71   36   93 1    
    72   36   94 1    
    73   37   38 2    
    74   37   39 am   BACKBONE|DICT|INTERRES
    75   39   40 1    
    76   39   95 1    
    77   40   41 1    
    78   40   42 1    
    79   40   96 1    
    80   41   97 1    
    81   41   98 1    
    82   41   99 1    
    83   42   43 2    
    84   42   44 am   BACKBONE|DICT|INTERRES
    85   44   45 1    
    86   44  100 1    
    87   45   46 1    
    88   45   47 1    
    89   45  101 1    
    90   46  102 1    
    91   46  103 1    
    92   46  104 1    
    93   47   48 2    
    94   47   49 am   BACKBONE|DICT|INTERRES
    95   49   50 1    
    96   49  105 1    
    97   50   51 1    
    98   50   52 1    
    99   50  106 1    
   100   51  107 1    
   101   51  108 1    
   102   51  109 1    
   103   52   53 2    
   104   52   54 am   BACKBONE|DICT|INTERRES
   105   54   55 1    
   106   54  110 1    
   107   55   56 1    
   108   55   59 1    
   109   55  111 1    
   110   56   57 am   BACKBONE|DICT|INTERRES
   111   56   58 2    
   112   57  112 1    
   113   57  113 1    
   114   59   60 1    
   115   59  114 1    
   116   59  115 1    
   117   60   61 1    
   118   61  116 1    
   119   61  117 1    
@<TRIPOS>SUBSTRUCTURE
     1 UNK         1 GROUP             0       ****    0 ROOT    
