@<TRIPOS>MOLECULE
3R8
117   119    1
SMALL
USER_CHARGES


@<TRIPOS>ATOM
      1 CA         12.4032  -24.4809  -46.9822 C.3       0 UNK        -0.2013 
      2 C          13.7969  -24.4138  -47.5881 C.2       0 UNK         0.4866 
      3 O          14.1637  -23.3934  -48.1710 O.2       0 UNK        -0.5176 
      4 N          14.5791  -25.4926  -47.4533 N.am      1 UNK        -0.4884 
      5 CA         15.9514  -25.6072  -47.9674 C.3       1 UNK         0.0853 
      6 C6         16.3604  -27.0887  -48.1821 C.3       10 UNK        -0.0849 
      7 S7         16.1873  -28.1437  -46.6988 S.3       10 UNK        -0.2776 
      8 C8         17.9233  -28.2541  -46.1560 C.3       10 UNK         0.0316 
      9 C9         18.0747  -28.9956  -44.8341 C.ar      10 UNK        -0.0863 
     10 C10        18.9499  -30.0803  -44.7314 C.ar      10 UNK        -0.1009 
     11 C11        19.1237  -30.7410  -43.5118 C.ar      10 UNK        -0.0712 
     12 C12        18.4232  -30.3015  -42.3844 C.ar      10 UNK        -0.0894 
     13 C13        17.5516  -29.2108  -42.4666 C.ar      10 UNK        -0.0745 
     14 C14        17.3710  -28.5755  -43.7015 C.ar      10 UNK        -0.0972 
     15 C15        16.7944  -28.7583  -41.2194 C.3       10 UNK         0.0209 
     16 S16        16.5786  -26.9499  -41.0871 S.3       10 UNK        -0.2568 
     17 C17        18.2909  -26.3654  -40.8343 C.3       10 UNK        -0.0983 
     18 CA         19.0061  -25.9321  -42.1424 C.3       3 UNK         0.0876 
     19 N          18.1850  -25.0232  -42.9488 N.am      3 UNK        -0.4424 
     20 C          18.4294  -24.6868  -44.2202 C.2       2 UNK         0.4918 
     21 O          19.3954  -25.0969  -44.8655 O.2       2 UNK        -0.4875 
     22 CA         17.4032  -23.7421  -44.8698 C.3       2 UNK         0.0481 
     23 CB         18.0577  -22.4433  -45.3823 C.3       2 UNK        -0.1831 
     24 N          16.6151  -24.4195  -45.9076 N.am      2 UNK        -0.4498 
     25 C          16.9961  -24.8339  -47.1281 C.2       1 UNK         0.5027 
     26 O          18.1086  -24.6334  -47.6166 O.2       1 UNK        -0.4969 
     27 C          20.3851  -25.3203  -41.8234 C.2       3 UNK         0.5005 
     28 O          20.5063  -24.0974  -41.7025 O.2       3 UNK        -0.5279 
     29 N          21.3886  -26.1862  -41.6546 N.am      4 UNK        -0.4463 
     30 CA         22.7544  -25.8392  -41.2776 C.3       4 UNK         0.0283 
     31 CB         23.6032  -25.6246  -42.5430 C.3       4 UNK        -0.1875 
     32 C          23.3195  -26.9774  -40.4244 C.2       4 UNK         0.4949 
     33 O          22.8508  -28.1139  -40.5312 O.2       4 UNK        -0.5039 
     34 N          24.3404  -26.6677  -39.6173 N.am      5 UNK        -0.4663 
     35 CA         25.0183  -27.5970  -38.7055 C.3       5 UNK         0.0242 
     36 CB         25.6809  -26.7860  -37.5753 C.3       5 UNK        -0.1982 
     37 C          26.0114  -28.5375  -39.4226 C.2       5 UNK         0.5017 
     38 O          27.1479  -28.6958  -38.9718 O.2       5 UNK        -0.5012 
     39 N          25.5692  -29.1435  -40.5301 N.am      6 UNK        -0.4439 
     40 CA         26.2866  -30.1879  -41.2587 C.3       6 UNK         0.0297 
     41 CB         25.7019  -30.3004  -42.6756 C.3       6 UNK        -0.2006 
     42 C          26.1577  -31.5270  -40.5196 C.2       6 UNK         0.4892 
     43 O          25.1135  -31.7876  -39.9186 O.2       6 UNK        -0.5089 
     44 N          27.1930  -32.3723  -40.6156 N.am      7 UNK        -0.4243 
     45 CA         27.2604  -33.6891  -39.9660 C.3       7 UNK         0.0196 
     46 CB         28.6439  -34.3115  -40.2142 C.3       7 UNK        -0.2007 
     47 C          26.1472  -34.6604  -40.3998 C.2       7 UNK         0.5020 
     48 O          25.6911  -35.4639  -39.5867 O.2       7 UNK        -0.5147 
     49 N          25.7039  -34.5430  -41.6585 N.am      8 UNK        -0.4734 
     50 CA         24.5784  -35.2947  -42.2206 C.3       8 UNK         0.0238 
     51 CB         24.6352  -35.1992  -43.7545 C.3       8 UNK        -0.1912 
     52 C          23.2019  -34.8264  -41.7093 C.2       8 UNK         0.5038 
     53 O          22.2335  -35.5740  -41.8530 O.2       8 UNK        -0.5046 
     54 N          23.1327  -33.6129  -41.1467 N.am      9 UNK        -0.4200 
     55 CA         21.9078  -32.9738  -40.6425 C.3       9 UNK         0.0839 
     56 C          21.7878  -33.0139  -39.0924 C.2       9 UNK         0.5513 
     57 N          22.7053  -33.6414  -38.3654 N.am      9 UNK        -0.7519 
     58 O          20.8271  -32.4873  -38.5370 O.2       9 UNK        -0.4960 
     59 C59        21.7453  -31.5310  -41.1981 C.3       10 UNK        -0.0876 
     60 S60        21.7597  -31.4697  -43.0243 S.3       10 UNK        -0.2414 
     61 C61        20.0497  -31.9451  -43.4280 C.3       10 UNK         0.0169 
     62 H62        11.6504  -24.3400  -47.7574 H         1 UNK         0.0903 
     63 H63        12.2146  -25.4385  -46.4970 H         1 UNK         0.0903 
     64 H64        12.2784  -23.6937  -46.2391 H         1 UNK         0.0903 
     65 H65        14.2325  -26.3109  -46.9702 H         1 UNK         0.3096 
     66 H66        15.9686  -25.1325  -48.9516 H         1 UNK         0.1121 
     67 H67        17.3775  -27.1582  -48.5735 H         1 UNK         0.0849 
     68 H68        15.7286  -27.5204  -48.9599 H         1 UNK         0.0849 
     69 H69        18.5060  -28.7404  -46.9400 H         1 UNK         0.0865 
     70 H70        18.3371  -27.2527  -46.0422 H         1 UNK         0.0865 
     71 H71        19.5004  -30.4139  -45.6007 H         1 UNK         0.1346 
     72 H72        18.5510  -30.8158  -41.4420 H         1 UNK         0.1412 
     73 H73        16.6925  -27.7376  -43.7831 H         1 UNK         0.1426 
     74 H74        17.2925  -29.1150  -40.3163 H         1 UNK         0.0716 
     75 H75        15.8080  -29.2234  -41.2310 H         1 UNK         0.0716 
     76 H76        18.8606  -27.1470  -40.3277 H         1 UNK         0.0695 
     77 H77        18.2425  -25.5282  -40.1350 H         1 UNK         0.0695 
     78 H78        19.1868  -26.8217  -42.7476 H         1 UNK         0.0983 
     79 H79        17.3795  -24.6343  -42.4815 H         1 UNK         0.3095 
     80 H80        16.6814  -23.4497  -44.1053 H         1 UNK         0.0454 
     81 H81        18.8438  -22.6379  -46.1123 H         1 UNK         0.0851 
     82 H82        18.5166  -21.8937  -44.5598 H         1 UNK         0.0851 
     83 H83        17.3241  -21.7838  -45.8455 H         1 UNK         0.0851 
     84 H84        15.6727  -24.6625  -45.6363 H         1 UNK         0.2976 
     85 H85        21.2145  -27.1840  -41.6891 H         1 UNK         0.3116 
     86 H86        22.7532  -24.9276  -40.6757 H         1 UNK         0.0646 
     87 H87        23.6384  -26.5228  -43.1611 H         1 UNK         0.0847 
     88 H88        24.6308  -25.3622  -42.2890 H         1 UNK         0.0847 
     89 H89        23.2047  -24.8145  -43.1542 H         1 UNK         0.0847 
     90 H90        24.6916  -25.7202  -39.6272 H         1 UNK         0.3040 
     91 H91        24.2636  -28.2410  -38.2476 H         1 UNK         0.1015 
     92 H92        24.9521  -26.1695  -37.0486 H         1 UNK         0.0786 
     93 H93        26.4649  -26.1299  -37.9556 H         1 UNK         0.0786 
     94 H94        26.1366  -27.4445  -36.8343 H         1 UNK         0.0786 
     95 H95        24.5964  -28.9913  -40.7782 H         1 UNK         0.3172 
     96 H96        27.3413  -29.9137  -41.3310 H         1 UNK         0.0595 
     97 H97        24.6486  -30.5826  -42.6565 H         1 UNK         0.0839 
     98 H98        26.2306  -31.0537  -43.2611 H         1 UNK         0.0839 
     99 H99        25.7841  -29.3564  -43.2147 H         1 UNK         0.0839 
    100 H100       28.0074  -32.0849  -41.1401 H         1 UNK         0.2998 
    101 H101       27.1460  -33.5282  -38.8918 H         1 UNK         0.0822 
    102 H102       29.4405  -33.6805  -39.8194 H         1 UNK         0.0787 
    103 H103       28.7290  -35.2818  -39.7224 H         1 UNK         0.0787 
    104 H104       28.8326  -34.4675  -41.2771 H         1 UNK         0.0787 
    105 H105       26.1411  -33.8572  -42.2569 H         1 UNK         0.3055 
    106 H106       24.6882  -36.3438  -41.9360 H         1 UNK         0.1106 
    107 H107       23.8329  -35.7801  -44.2119 H         1 UNK         0.0828 
    108 H108       24.5275  -34.1698  -44.0993 H         1 UNK         0.0828 
    109 H109       25.5759  -35.5894  -44.1435 H         1 UNK         0.0828 
    110 H110       23.9838  -33.0839  -40.9953 H         1 UNK         0.2931 
    111 H111       21.0468  -33.5441  -40.9935 H         1 UNK         0.0412 
    112 H112       23.5024  -34.0718  -38.8090 H         1 UNK         0.3472 
    113 H113       22.6103  -33.6652  -37.3624 H         1 UNK         0.3472 
    114 H114       20.8246  -31.0718  -40.8369 H         1 UNK         0.0970 
    115 H115       22.5554  -30.8967  -40.8332 H         1 UNK         0.0970 
    116 H116       19.6738  -32.6643  -42.6996 H         1 UNK         0.0612 
    117 H117       20.0565  -32.4679  -44.3856 H         1 UNK         0.0612 
@<TRIPOS>BOND
     1    1    2 1    
     2    1   62 1    
     3    1   63 1    
     4    1   64 1    
     5    2    3 2    
     6    2    4 am   BACKBONE|DICT|INTERRES
     7    4    5 1    
     8    4   65 1    
     9    5    6 1    
    10    5   25 1    
    11    5   66 1    
    12    6    7 1    
    13    6   67 1    
    14    6   68 1    
    15    7    8 1    
    16    8    9 1    
    17    8   69 1    
    18    8   70 1    
    19    9   10 ar   
    20    9   14 ar   
    21   10   11 ar   
    22   10   71 1    
    23   11   12 ar   
    24   11   61 1    
    25   12   13 ar   
    26   12   72 1    
    27   13   14 ar   
    28   13   15 1    
    29   14   73 1    
    30   15   16 1    
    31   15   74 1    
    32   15   75 1    
    33   16   17 1    
    34   17   18 1    
    35   17   76 1    
    36   17   77 1    
    37   18   19 1    
    38   18   27 1    
    39   18   78 1    
    40   19   20 am   BACKBONE|DICT|INTERRES
    41   19   79 1    
    42   20   21 2    
    43   20   22 1    
    44   22   23 1    
    45   22   24 1    
    46   22   80 1    
    47   23   81 1    
    48   23   82 1    
    49   23   83 1    
    50   24   25 am   BACKBONE|DICT|INTERRES
    51   24   84 1    
    52   25   26 2    
    53   27   28 2    
    54   27   29 am   BACKBONE|DICT|INTERRES
    55   29   30 1    
    56   29   85 1    
    57   30   31 1    
    58   30   32 1    
    59   30   86 1    
    60   31   87 1    
    61   31   88 1    
    62   31   89 1    
    63   32   33 2    
    64   32   34 am   BACKBONE|DICT|INTERRES
    65   34   35 1    
    66   34   90 1    
    67   35   36 1    
    68   35   37 1    
    69   35   91 1    
    70   36   92 1    
    71   36   93 1    
    72   36   94 1    
    73   37   38 2    
    74   37   39 am   BACKBONE|DICT|INTERRES
    75   39   40 1    
    76   39   95 1    
    77   40   41 1    
    78   40   42 1    
    79   40   96 1    
    80   41   97 1    
    81   41   98 1    
    82   41   99 1    
    83   42   43 2    
    84   42   44 am   BACKBONE|DICT|INTERRES
    85   44   45 1    
    86   44  100 1    
    87   45   46 1    
    88   45   47 1    
    89   45  101 1    
    90   46  102 1    
    91   46  103 1    
    92   46  104 1    
    93   47   48 2    
    94   47   49 am   BACKBONE|DICT|INTERRES
    95   49   50 1    
    96   49  105 1    
    97   50   51 1    
    98   50   52 1    
    99   50  106 1    
   100   51  107 1    
   101   51  108 1    
   102   51  109 1    
   103   52   53 2    
   104   52   54 am   BACKBONE|DICT|INTERRES
   105   54   55 1    
   106   54  110 1    
   107   55   56 1    
   108   55   59 1    
   109   55  111 1    
   110   56   57 am   BACKBONE|DICT|INTERRES
   111   56   58 2    
   112   57  112 1    
   113   57  113 1    
   114   59   60 1    
   115   59  114 1    
   116   59  115 1    
   117   60   61 1    
   118   61  116 1    
   119   61  117 1    
@<TRIPOS>SUBSTRUCTURE
     1 UNK         1 GROUP             0       ****    0 ROOT    
