@<TRIPOS>MOLECULE
3R8
117   119    1
SMALL
USER_CHARGES


@<TRIPOS>ATOM
      1 CA         15.5182  -23.0745  -45.8493 C.3       0 UNK        -0.2013 
      2 C          15.4952  -24.5780  -45.6187 C.2       0 UNK         0.4866 
      3 O          15.1310  -25.3318  -46.5216 O.2       0 UNK        -0.5176 
      4 N          15.8824  -25.0211  -44.4187 N.am      1 UNK        -0.4884 
      5 CA         15.9838  -26.4252  -44.0265 C.3       1 UNK         0.0853 
      6 C6         14.5979  -27.0293  -43.6720 C.3       10 UNK        -0.0849 
      7 S7         14.4961  -28.8544  -43.5982 S.3       10 UNK        -0.2776 
      8 C8         15.1067  -29.4189  -45.2275 C.3       10 UNK         0.0316 
      9 C9         16.6057  -29.6944  -45.1998 C.ar      10 UNK        -0.0863 
     10 C10        17.1254  -30.6300  -44.3005 C.ar      10 UNK        -0.1009 
     11 C11        18.5042  -30.8240  -44.1946 C.ar      10 UNK        -0.0712 
     12 C12        19.3695  -30.0981  -45.0168 C.ar      10 UNK        -0.0894 
     13 C13        18.8614  -29.1819  -45.9408 C.ar      10 UNK        -0.0745 
     14 C14        17.4788  -28.9977  -46.0417 C.ar      10 UNK        -0.0972 
     15 C15        19.8012  -28.3699  -46.8166 C.3       10 UNK         0.0209 
     16 S16        20.0808  -26.7076  -46.1288 S.3       10 UNK        -0.2568 
     17 C17        21.4518  -26.9904  -44.9557 C.3       10 UNK        -0.0983 
     18 CA         21.2525  -26.1938  -43.6357 C.3       3 UNK         0.0876 
     19 N          20.1038  -26.6629  -42.8531 N.am      3 UNK        -0.4424 
     20 C          19.9642  -27.8297  -42.2109 C.2       2 UNK         0.4918 
     21 O          20.8718  -28.6449  -42.0466 O.2       2 UNK        -0.4875 
     22 CA         18.5550  -28.1663  -41.6846 C.3       2 UNK         0.0481 
     23 CB         18.3508  -27.6403  -40.2516 C.3       2 UNK        -0.1831 
     24 N          17.4640  -27.7637  -42.5905 N.am      2 UNK        -0.4498 
     25 C          17.0359  -26.5329  -42.9053 C.2       1 UNK         0.5027 
     26 O          17.4883  -25.5039  -42.3933 O.2       1 UNK        -0.4969 
     27 C          22.5463  -26.0212  -42.8069 C.2       3 UNK         0.5005 
     28 O          23.6413  -26.2055  -43.3417 O.2       3 UNK        -0.5279 
     29 N          22.3928  -25.6166  -41.5339 N.am      4 UNK        -0.4463 
     30 CA         23.4210  -25.1456  -40.5925 C.3       4 UNK         0.0283 
     31 CB         23.7633  -23.6703  -40.8954 C.3       4 UNK        -0.1875 
     32 C          24.6691  -26.0467  -40.5174 C.2       4 UNK         0.4949 
     33 O          24.6560  -27.0400  -39.7901 O.2       4 UNK        -0.5039 
     34 N          25.7072  -25.7031  -41.2950 N.am      5 UNK        -0.4663 
     35 CA         26.9690  -26.4365  -41.4484 C.3       5 UNK         0.0242 
     36 CB         27.9034  -25.6321  -42.3666 C.3       5 UNK        -0.1982 
     37 C          26.8168  -27.8802  -41.9661 C.2       5 UNK         0.5017 
     38 O          27.7340  -28.6791  -41.7746 O.2       5 UNK        -0.5012 
     39 N          25.6613  -28.2077  -42.5658 N.am      6 UNK        -0.4439 
     40 CA         25.2459  -29.5747  -42.8975 C.3       6 UNK         0.0297 
     41 CB         23.9970  -29.5240  -43.7912 C.3       6 UNK        -0.2006 
     42 C          24.9836  -30.4662  -41.6645 C.2       6 UNK         0.4892 
     43 O          24.8554  -31.6784  -41.8360 O.2       6 UNK        -0.5089 
     44 N          24.8962  -29.8712  -40.4616 N.am      7 UNK        -0.4243 
     45 CA         24.7651  -30.5204  -39.1504 C.3       7 UNK         0.0196 
     46 CB         26.0593  -31.2831  -38.7955 C.3       7 UNK        -0.2007 
     47 C          23.5024  -31.3926  -39.0364 C.2       7 UNK         0.5020 
     48 O          23.5627  -32.5101  -38.5213 O.2       7 UNK        -0.5147 
     49 N          22.3852  -30.8656  -39.5579 N.am      8 UNK        -0.4734 
     50 CA         21.0715  -31.5121  -39.6686 C.3       8 UNK         0.0238 
     51 CB         20.4710  -31.8097  -38.2776 C.3       8 UNK        -0.1912 
     52 C          21.0541  -32.7384  -40.6061 C.2       8 UNK         0.5038 
     53 O          20.1441  -33.5598  -40.4940 O.2       8 UNK        -0.5046 
     54 N          22.0206  -32.7990  -41.5372 N.am      9 UNK        -0.4200 
     55 CA         22.1388  -33.7183  -42.6845 C.3       9 UNK         0.0839 
     56 C          22.0861  -35.2474  -42.3828 C.2       9 UNK         0.5513 
     57 N          22.3271  -35.6825  -41.1523 N.am      9 UNK        -0.7519 
     58 O          21.8772  -36.0574  -43.2827 O.2       9 UNK        -0.4960 
     59 C59        21.3093  -33.2570  -43.9235 C.3       10 UNK        -0.0876 
     60 S60        19.4931  -33.3950  -43.7725 S.3       10 UNK        -0.2414 
     61 C61        19.0556  -31.7505  -43.1277 C.3       10 UNK         0.0169 
     62 H62        15.8531  -22.5315  -44.9656 H         1 UNK         0.0903 
     63 H63        16.1904  -22.8316  -46.6718 H         1 UNK         0.0903 
     64 H64        14.5210  -22.7194  -46.1076 H         1 UNK         0.0903 
     65 H65        16.2346  -24.3805  -43.7162 H         1 UNK         0.3096 
     66 H66        16.3961  -26.9453  -44.8861 H         1 UNK         0.1121 
     67 H67        13.8597  -26.7134  -44.4109 H         1 UNK         0.0849 
     68 H68        14.2437  -26.6262  -42.7215 H         1 UNK         0.0849 
     69 H69        14.5889  -30.3409  -45.4960 H         1 UNK         0.0865 
     70 H70        14.8465  -28.6874  -45.9947 H         1 UNK         0.0865 
     71 H71        16.4554  -31.1752  -43.6489 H         1 UNK         0.1346 
     72 H72        20.4380  -30.2288  -44.9199 H         1 UNK         0.1412 
     73 H73        17.0892  -28.2790  -46.7506 H         1 UNK         0.1426 
     74 H74        20.7542  -28.8839  -46.9517 H         1 UNK         0.0716 
     75 H75        19.3687  -28.2676  -47.8130 H         1 UNK         0.0716 
     76 H76        22.3647  -26.6869  -45.4708 H         1 UNK         0.0695 
     77 H77        21.5579  -28.0550  -44.7487 H         1 UNK         0.0695 
     78 H78        21.0003  -25.1718  -43.9237 H         1 UNK         0.0983 
     79 H79        19.2871  -26.0601  -42.8703 H         1 UNK         0.3095 
     80 H80        18.4964  -29.2540  -41.6344 H         1 UNK         0.0454 
     81 H81        17.3721  -27.9209  -39.8629 H         1 UNK         0.0851 
     82 H82        18.4367  -26.5553  -40.1926 H         1 UNK         0.0851 
     83 H83        19.0989  -28.0585  -39.5767 H         1 UNK         0.0851 
     84 H84        17.0422  -28.5318  -43.0991 H         1 UNK         0.2976 
     85 H85        21.4434  -25.5558  -41.1936 H         1 UNK         0.3116 
     86 H86        22.9678  -25.1770  -39.6003 H         1 UNK         0.0646 
     87 H87        22.8930  -23.0306  -40.7482 H         1 UNK         0.0847 
     88 H88        24.5448  -23.3003  -40.2299 H         1 UNK         0.0847 
     89 H89        24.1034  -23.5251  -41.9213 H         1 UNK         0.0847 
     90 H90        25.5876  -24.8992  -41.8944 H         1 UNK         0.3040 
     91 H91        27.4291  -26.5027  -40.4602 H         1 UNK         0.1015 
     92 H92        27.4803  -25.5110  -43.3647 H         1 UNK         0.0786 
     93 H93        28.8669  -26.1315  -42.4793 H         1 UNK         0.0786 
     94 H94        28.1019  -24.6395  -41.9616 H         1 UNK         0.0786 
     95 H95        24.9794  -27.4692  -42.7286 H         1 UNK         0.3172 
     96 H96        26.0533  -30.0392  -43.4670 H         1 UNK         0.0595 
     97 H97        23.1464  -29.1013  -43.2581 H         1 UNK         0.0839 
     98 H98        23.7097  -30.5227  -44.1225 H         1 UNK         0.0839 
     99 H99        24.1677  -28.9220  -44.6838 H         1 UNK         0.0839 
    100 H100       24.9477  -28.8563  -40.4267 H         1 UNK         0.2998 
    101 H101       24.6461  -29.7165  -38.4222 H         1 UNK         0.0822 
    102 H102       26.0203  -31.6674  -37.7755 H         1 UNK         0.0787 
    103 H103       26.2218  -32.1339  -39.4581 H         1 UNK         0.0787 
    104 H104       26.9324  -30.6339  -38.8638 H         1 UNK         0.0787 
    105 H105       22.4531  -29.9477  -39.9789 H         1 UNK         0.3055 
    106 H106       20.4221  -30.7770  -40.1471 H         1 UNK         0.1106 
    107 H107       19.4317  -32.1298  -38.3606 H         1 UNK         0.0828 
    108 H108       21.0119  -32.6037  -37.7622 H         1 UNK         0.0828 
    109 H109       20.4844  -30.9251  -37.6412 H         1 UNK         0.0828 
    110 H110       22.7731  -32.1249  -41.4719 H         1 UNK         0.2931 
    111 H111       23.1778  -33.5848  -42.9874 H         1 UNK         0.0412 
    112 H112       22.3085  -36.6722  -40.9625 H         1 UNK         0.3472 
    113 H113       22.4949  -35.0248  -40.4068 H         1 UNK         0.3472 
    114 H114       21.6074  -33.8369  -44.7986 H         1 UNK         0.0970 
    115 H115       21.5683  -32.2276  -44.1720 H         1 UNK         0.0970 
    116 H116       18.3279  -31.8782  -42.3248 H         1 UNK         0.0612 
    117 H117       19.9224  -31.2730  -42.6728 H         1 UNK         0.0612 
@<TRIPOS>BOND
     1    1    2 1    
     2    1   62 1    
     3    1   63 1    
     4    1   64 1    
     5    2    3 2    
     6    2    4 am   BACKBONE|DICT|INTERRES
     7    4    5 1    
     8    4   65 1    
     9    5    6 1    
    10    5   25 1    
    11    5   66 1    
    12    6    7 1    
    13    6   67 1    
    14    6   68 1    
    15    7    8 1    
    16    8    9 1    
    17    8   69 1    
    18    8   70 1    
    19    9   10 ar   
    20    9   14 ar   
    21   10   11 ar   
    22   10   71 1    
    23   11   12 ar   
    24   11   61 1    
    25   12   13 ar   
    26   12   72 1    
    27   13   14 ar   
    28   13   15 1    
    29   14   73 1    
    30   15   16 1    
    31   15   74 1    
    32   15   75 1    
    33   16   17 1    
    34   17   18 1    
    35   17   76 1    
    36   17   77 1    
    37   18   19 1    
    38   18   27 1    
    39   18   78 1    
    40   19   20 am   BACKBONE|DICT|INTERRES
    41   19   79 1    
    42   20   21 2    
    43   20   22 1    
    44   22   23 1    
    45   22   24 1    
    46   22   80 1    
    47   23   81 1    
    48   23   82 1    
    49   23   83 1    
    50   24   25 am   BACKBONE|DICT|INTERRES
    51   24   84 1    
    52   25   26 2    
    53   27   28 2    
    54   27   29 am   BACKBONE|DICT|INTERRES
    55   29   30 1    
    56   29   85 1    
    57   30   31 1    
    58   30   32 1    
    59   30   86 1    
    60   31   87 1    
    61   31   88 1    
    62   31   89 1    
    63   32   33 2    
    64   32   34 am   BACKBONE|DICT|INTERRES
    65   34   35 1    
    66   34   90 1    
    67   35   36 1    
    68   35   37 1    
    69   35   91 1    
    70   36   92 1    
    71   36   93 1    
    72   36   94 1    
    73   37   38 2    
    74   37   39 am   BACKBONE|DICT|INTERRES
    75   39   40 1    
    76   39   95 1    
    77   40   41 1    
    78   40   42 1    
    79   40   96 1    
    80   41   97 1    
    81   41   98 1    
    82   41   99 1    
    83   42   43 2    
    84   42   44 am   BACKBONE|DICT|INTERRES
    85   44   45 1    
    86   44  100 1    
    87   45   46 1    
    88   45   47 1    
    89   45  101 1    
    90   46  102 1    
    91   46  103 1    
    92   46  104 1    
    93   47   48 2    
    94   47   49 am   BACKBONE|DICT|INTERRES
    95   49   50 1    
    96   49  105 1    
    97   50   51 1    
    98   50   52 1    
    99   50  106 1    
   100   51  107 1    
   101   51  108 1    
   102   51  109 1    
   103   52   53 2    
   104   52   54 am   BACKBONE|DICT|INTERRES
   105   54   55 1    
   106   54  110 1    
   107   55   56 1    
   108   55   59 1    
   109   55  111 1    
   110   56   57 am   BACKBONE|DICT|INTERRES
   111   56   58 2    
   112   57  112 1    
   113   57  113 1    
   114   59   60 1    
   115   59  114 1    
   116   59  115 1    
   117   60   61 1    
   118   61  116 1    
   119   61  117 1    
@<TRIPOS>SUBSTRUCTURE
     1 UNK         1 GROUP             0       ****    0 ROOT    
