@<TRIPOS>MOLECULE
3R8
117   119    1
SMALL
USER_CHARGES


@<TRIPOS>ATOM
      1 CA         15.2957  -22.7703  -47.6196 C.3       0 UNK        -0.2013 
      2 C          16.2189  -23.7231  -46.8744 C.2       0 UNK         0.4866 
      3 O          15.7364  -24.6113  -46.1711 O.2       0 UNK        -0.5176 
      4 N          17.5385  -23.5455  -47.0329 N.am      1 UNK        -0.4884 
      5 CA         18.6080  -24.3076  -46.3716 C.3       1 UNK         0.0853 
      6 C6         18.5533  -25.8291  -46.7008 C.3       10 UNK        -0.0849 
      7 S7         20.2028  -26.6102  -46.7562 S.3       10 UNK        -0.2776 
      8 C8         19.7971  -28.2607  -47.4128 C.3       10 UNK         0.0316 
      9 C9         19.4457  -29.2456  -46.3057 C.ar      10 UNK        -0.0863 
     10 C10        20.3937  -30.1732  -45.8625 C.ar      10 UNK        -0.1009 
     11 C11        20.0721  -31.1023  -44.8673 C.ar      10 UNK        -0.0712 
     12 C12        18.7952  -31.0837  -44.2981 C.ar      10 UNK        -0.0894 
     13 C13        17.8458  -30.1482  -44.7184 C.ar      10 UNK        -0.0745 
     14 C14        18.1689  -29.2484  -45.7376 C.ar      10 UNK        -0.0972 
     15 C15        16.4717  -30.0980  -44.0696 C.3       10 UNK         0.0209 
     16 S16        16.3030  -28.6445  -42.9850 S.3       10 UNK        -0.2568 
     17 C17        17.3938  -29.0786  -41.5851 C.3       10 UNK        -0.0983 
     18 CA         18.8168  -28.4665  -41.6806 C.3       3 UNK         0.0876 
     19 N          18.7781  -27.0239  -41.9692 N.am      3 UNK        -0.4424 
     20 C          19.8400  -26.2432  -42.1988 C.2       2 UNK         0.4918 
     21 O          21.0054  -26.6230  -42.0864 O.2       2 UNK        -0.4875 
     22 CA         19.5476  -24.8165  -42.6653 C.3       2 UNK         0.0481 
     23 CB         20.6683  -23.8286  -42.2883 C.3       2 UNK        -0.1831 
     24 N          19.3822  -24.8687  -44.1116 N.am      2 UNK        -0.4498 
     25 C          18.6824  -24.0057  -44.8539 C.2       1 UNK         0.5027 
     26 O          18.1363  -23.0002  -44.3900 O.2       1 UNK        -0.4969 
     27 C          19.6408  -28.8534  -40.4294 C.2       3 UNK         0.5005 
     28 O          20.0516  -30.0066  -40.3135 O.2       3 UNK        -0.5279 
     29 N          19.8611  -27.9004  -39.5136 N.am      4 UNK        -0.4463 
     30 CA         20.6769  -28.0715  -38.3104 C.3       4 UNK         0.0283 
     31 CB         20.0751  -27.2092  -37.1873 C.3       4 UNK        -0.1875 
     32 C          22.1621  -27.7120  -38.5162 C.2       4 UNK         0.4949 
     33 O          22.9573  -27.9971  -37.6198 O.2       4 UNK        -0.5039 
     34 N          22.5140  -27.0627  -39.6371 N.am      5 UNK        -0.4663 
     35 CA         23.8467  -26.4922  -39.8735 C.3       5 UNK         0.0242 
     36 CB         23.7392  -24.9580  -39.8583 C.3       5 UNK        -0.1982 
     37 C          24.5047  -26.9619  -41.1802 C.2       5 UNK         0.5017 
     38 O          25.7335  -26.9312  -41.2593 O.2       5 UNK        -0.5012 
     39 N          23.7073  -27.3638  -42.1816 N.am      6 UNK        -0.4439 
     40 CA         24.1627  -27.7811  -43.5143 C.3       6 UNK         0.0297 
     41 CB         22.9371  -28.0485  -44.4031 C.3       6 UNK        -0.2006 
     42 C          25.0996  -29.0033  -43.5116 C.2       6 UNK         0.4892 
     43 O          26.0178  -29.0646  -44.3303 O.2       6 UNK        -0.5089 
     44 N          24.8568  -29.9304  -42.5819 N.am      7 UNK        -0.4243 
     45 CA         25.6225  -31.1393  -42.2957 C.3       7 UNK         0.0196 
     46 CB         25.5188  -32.1519  -43.4605 C.3       7 UNK        -0.2007 
     47 C          25.0805  -31.7012  -40.9711 C.2       7 UNK         0.5020 
     48 O          24.3852  -30.9846  -40.2453 O.2       7 UNK        -0.5147 
     49 N          25.3746  -32.9757  -40.6790 N.am      8 UNK        -0.4734 
     50 CA         24.7415  -33.7201  -39.5829 C.3       8 UNK         0.0238 
     51 CB         25.4958  -35.0386  -39.3450 C.3       8 UNK        -0.1912 
     52 C          23.2475  -33.9831  -39.8530 C.2       8 UNK         0.5038 
     53 O          22.4406  -33.8900  -38.9278 O.2       8 UNK        -0.5046 
     54 N          22.9233  -34.2771  -41.1217 N.am      9 UNK        -0.4200 
     55 CA         21.5661  -34.4161  -41.6802 C.3       9 UNK         0.0839 
     56 C          20.7021  -35.5566  -41.0589 C.2       9 UNK         0.5513 
     57 N          21.2984  -36.5667  -40.4372 N.am      9 UNK        -0.7519 
     58 O          19.4787  -35.5504  -41.1705 O.2       9 UNK        -0.4960 
     59 C59        20.8157  -33.0545  -41.7672 C.3       10 UNK        -0.0876 
     60 S60        21.7276  -31.8150  -42.7549 S.3       10 UNK        -0.2414 
     61 C61        21.0981  -32.1381  -44.4302 C.3       10 UNK         0.0169 
     62 H62        14.6410  -23.3285  -48.2884 H         1 UNK         0.0903 
     63 H63        14.6733  -22.2225  -46.9125 H         1 UNK         0.0903 
     64 H64        15.8500  -22.0454  -48.2155 H         1 UNK         0.0903 
     65 H65        17.8588  -22.7753  -47.6042 H         1 UNK         0.3096 
     66 H66        19.5317  -23.9039  -46.7901 H         1 UNK         0.1121 
     67 H67        18.1009  -25.9757  -47.6831 H         1 UNK         0.0849 
     68 H68        17.9082  -26.3569  -45.9973 H         1 UNK         0.0849 
     69 H69        18.9777  -28.1934  -48.1299 H         1 UNK         0.0865 
     70 H70        20.6561  -28.6267  -47.9773 H         1 UNK         0.0865 
     71 H71        21.3816  -30.1804  -46.3026 H         1 UNK         0.1346 
     72 H72        18.5434  -31.7899  -43.5203 H         1 UNK         0.1412 
     73 H73        17.4237  -28.5429  -46.0762 H         1 UNK         0.1426 
     74 H74        16.2693  -31.0071  -43.5013 H         1 UNK         0.0716 
     75 H75        15.7085  -30.0477  -44.8475 H         1 UNK         0.0716 
     76 H76        17.4512  -30.1660  -41.5051 H         1 UNK         0.0695 
     77 H77        16.8986  -28.7375  -40.6739 H         1 UNK         0.0695 
     78 H78        19.3282  -28.9300  -42.5268 H         1 UNK         0.0983 
     79 H79        17.8545  -26.6409  -42.1142 H         1 UNK         0.3095 
     80 H80        18.6164  -24.4869  -42.1995 H         1 UNK         0.0454 
     81 H81        20.8233  -23.8114  -41.2091 H         1 UNK         0.0851 
     82 H82        20.4214  -22.8121  -42.5941 H         1 UNK         0.0851 
     83 H83        21.6178  -24.0950  -42.7544 H         1 UNK         0.0851 
     84 H84        19.8024  -25.6669  -44.5744 H         1 UNK         0.2976 
     85 H85        19.4711  -26.9834  -39.6759 H         1 UNK         0.3116 
     86 H86        20.6380  -29.1145  -37.9887 H         1 UNK         0.0646 
     87 H87        20.1010  -26.1469  -37.4336 H         1 UNK         0.0847 
     88 H88        19.0393  -27.4836  -36.9870 H         1 UNK         0.0847 
     89 H89        20.6269  -27.3396  -36.2552 H         1 UNK         0.0847 
     90 H90        21.8146  -26.9016  -40.3544 H         1 UNK         0.3040 
     91 H91        24.5303  -26.7848  -39.0733 H         1 UNK         0.1015 
     92 H92        24.7182  -24.4955  -39.9917 H         1 UNK         0.0786 
     93 H93        23.3379  -24.5975  -38.9110 H         1 UNK         0.0786 
     94 H94        23.0950  -24.5929  -40.6579 H         1 UNK         0.0786 
     95 H95        22.7009  -27.2759  -42.0650 H         1 UNK         0.3172 
     96 H96        24.7182  -26.9454  -43.9445 H         1 UNK         0.0595 
     97 H97        22.3013  -28.8315  -43.9873 H         1 UNK         0.0839 
     98 H98        23.2359  -28.3657  -45.4030 H         1 UNK         0.0839 
     99 H99        22.3281  -27.1521  -44.5190 H         1 UNK         0.0839 
    100 H100       24.1055  -29.7716  -41.9195 H         1 UNK         0.2998 
    101 H101       26.6665  -30.8602  -42.1425 H         1 UNK         0.0822 
    102 H102       26.1477  -33.0256  -43.2892 H         1 UNK         0.0787 
    103 H103       24.4963  -32.5026  -43.6006 H         1 UNK         0.0787 
    104 H104       25.8479  -31.7175  -44.4040 H         1 UNK         0.0787 
    105 H105       25.9782  -33.4940  -41.3013 H         1 UNK         0.3055 
    106 H106       24.8098  -33.1173  -38.6740 H         1 UNK         0.1106 
    107 H107       26.5373  -34.8566  -39.0793 H         1 UNK         0.0828 
    108 H108       25.0479  -35.5997  -38.5235 H         1 UNK         0.0828 
    109 H109       25.4811  -35.6823  -40.2252 H         1 UNK         0.0828 
    110 H110       23.6720  -34.3400  -41.7941 H         1 UNK         0.2931 
    111 H111       21.7241  -34.7473  -42.7071 H         1 UNK         0.0412 
    112 H112       20.7374  -37.3078  -40.0469 H         1 UNK         0.3472 
    113 H113       22.3013  -36.5890  -40.3447 H         1 UNK         0.3472 
    114 H114       20.6579  -32.6473  -40.7672 H         1 UNK         0.0970 
    115 H115       19.8216  -33.1819  -42.1960 H         1 UNK         0.0970 
    116 H116       20.6625  -33.1364  -44.4886 H         1 UNK         0.0612 
    117 H117       21.9480  -32.1414  -45.1143 H         1 UNK         0.0612 
@<TRIPOS>BOND
     1    1    2 1    
     2    1   62 1    
     3    1   63 1    
     4    1   64 1    
     5    2    3 2    
     6    2    4 am   BACKBONE|DICT|INTERRES
     7    4    5 1    
     8    4   65 1    
     9    5    6 1    
    10    5   25 1    
    11    5   66 1    
    12    6    7 1    
    13    6   67 1    
    14    6   68 1    
    15    7    8 1    
    16    8    9 1    
    17    8   69 1    
    18    8   70 1    
    19    9   10 ar   
    20    9   14 ar   
    21   10   11 ar   
    22   10   71 1    
    23   11   12 ar   
    24   11   61 1    
    25   12   13 ar   
    26   12   72 1    
    27   13   14 ar   
    28   13   15 1    
    29   14   73 1    
    30   15   16 1    
    31   15   74 1    
    32   15   75 1    
    33   16   17 1    
    34   17   18 1    
    35   17   76 1    
    36   17   77 1    
    37   18   19 1    
    38   18   27 1    
    39   18   78 1    
    40   19   20 am   BACKBONE|DICT|INTERRES
    41   19   79 1    
    42   20   21 2    
    43   20   22 1    
    44   22   23 1    
    45   22   24 1    
    46   22   80 1    
    47   23   81 1    
    48   23   82 1    
    49   23   83 1    
    50   24   25 am   BACKBONE|DICT|INTERRES
    51   24   84 1    
    52   25   26 2    
    53   27   28 2    
    54   27   29 am   BACKBONE|DICT|INTERRES
    55   29   30 1    
    56   29   85 1    
    57   30   31 1    
    58   30   32 1    
    59   30   86 1    
    60   31   87 1    
    61   31   88 1    
    62   31   89 1    
    63   32   33 2    
    64   32   34 am   BACKBONE|DICT|INTERRES
    65   34   35 1    
    66   34   90 1    
    67   35   36 1    
    68   35   37 1    
    69   35   91 1    
    70   36   92 1    
    71   36   93 1    
    72   36   94 1    
    73   37   38 2    
    74   37   39 am   BACKBONE|DICT|INTERRES
    75   39   40 1    
    76   39   95 1    
    77   40   41 1    
    78   40   42 1    
    79   40   96 1    
    80   41   97 1    
    81   41   98 1    
    82   41   99 1    
    83   42   43 2    
    84   42   44 am   BACKBONE|DICT|INTERRES
    85   44   45 1    
    86   44  100 1    
    87   45   46 1    
    88   45   47 1    
    89   45  101 1    
    90   46  102 1    
    91   46  103 1    
    92   46  104 1    
    93   47   48 2    
    94   47   49 am   BACKBONE|DICT|INTERRES
    95   49   50 1    
    96   49  105 1    
    97   50   51 1    
    98   50   52 1    
    99   50  106 1    
   100   51  107 1    
   101   51  108 1    
   102   51  109 1    
   103   52   53 2    
   104   52   54 am   BACKBONE|DICT|INTERRES
   105   54   55 1    
   106   54  110 1    
   107   55   56 1    
   108   55   59 1    
   109   55  111 1    
   110   56   57 am   BACKBONE|DICT|INTERRES
   111   56   58 2    
   112   57  112 1    
   113   57  113 1    
   114   59   60 1    
   115   59  114 1    
   116   59  115 1    
   117   60   61 1    
   118   61  116 1    
   119   61  117 1    
@<TRIPOS>SUBSTRUCTURE
     1 UNK         1 GROUP             0       ****    0 ROOT    
