@<TRIPOS>MOLECULE
3R8
117   119    1
SMALL
USER_CHARGES


@<TRIPOS>ATOM
      1 CA         15.1148  -24.6895  -41.0826 C.3       0 UNK        -0.2013 
      2 C          15.5489  -24.7089  -42.5408 C.2       0 UNK         0.4866 
      3 O          15.5231  -23.6696  -43.2012 O.2       0 UNK        -0.5176 
      4 N          15.9403  -25.8840  -43.0498 N.am      1 UNK        -0.4884 
      5 CA         16.4710  -26.0700  -44.4044 C.3       1 UNK         0.0853 
      6 C6         16.3794  -27.5540  -44.8324 C.3       10 UNK        -0.0849 
      7 S7         16.3346  -27.7536  -46.6461 S.3       10 UNK        -0.2776 
      8 C8         16.3087  -29.5682  -46.8069 C.3       10 UNK         0.0316 
      9 C9         17.5706  -30.1983  -46.2374 C.ar      10 UNK        -0.0863 
     10 C10        17.5387  -30.8428  -44.9961 C.ar      10 UNK        -0.1009 
     11 C11        18.7059  -31.3815  -44.4479 C.ar      10 UNK        -0.0712 
     12 C12        19.9010  -31.3000  -45.1656 C.ar      10 UNK        -0.0894 
     13 C13        19.9529  -30.6273  -46.3893 C.ar      10 UNK        -0.0745 
     14 C14        18.7799  -30.0960  -46.9316 C.ar      10 UNK        -0.0972 
     15 C15        21.2878  -30.4223  -47.0910 C.3       10 UNK         0.0209 
     16 S16        21.8954  -28.7088  -46.9159 S.3       10 UNK        -0.2568 
     17 C17        22.0582  -28.5303  -45.1055 C.3       10 UNK        -0.0983 
     18 CA         22.0876  -27.0612  -44.6088 C.3       3 UNK         0.0876 
     19 N          20.9139  -26.2685  -44.9791 N.am      3 UNK        -0.4424 
     20 C          20.8656  -25.3599  -45.9572 C.2       2 UNK         0.4918 
     21 O          21.7859  -25.1760  -46.7560 O.2       2 UNK        -0.4875 
     22 CA         19.5978  -24.4759  -46.0430 C.3       2 UNK         0.0481 
     23 CB         19.4521  -23.8003  -47.4199 C.3       2 UNK        -0.1831 
     24 N          18.3309  -25.1451  -45.7179 N.am      2 UNK        -0.4498 
     25 C          17.9154  -25.5297  -44.5040 C.2       1 UNK         0.5027 
     26 O          18.6317  -25.4946  -43.4996 O.2       1 UNK        -0.4969 
     27 C          22.2051  -27.0005  -43.0790 C.2       3 UNK         0.5005 
     28 O          23.2005  -26.4881  -42.5642 O.2       3 UNK        -0.5279 
     29 N          21.1669  -27.4964  -42.3834 N.am      4 UNK        -0.4463 
     30 CA         20.9949  -27.4997  -40.9271 C.3       4 UNK         0.0283 
     31 CB         20.6520  -26.0770  -40.4298 C.3       4 UNK        -0.1875 
     32 C          22.1949  -28.1468  -40.2112 C.2       4 UNK         0.4949 
     33 O          22.3968  -29.3543  -40.3453 O.2       4 UNK        -0.5039 
     34 N          22.9897  -27.3372  -39.5003 N.am      5 UNK        -0.4663 
     35 CA         24.2005  -27.7477  -38.7870 C.3       5 UNK         0.0242 
     36 CB         24.6871  -26.5791  -37.9149 C.3       5 UNK        -0.1982 
     37 C          25.3374  -28.2476  -39.6976 C.2       5 UNK         0.5017 
     38 O          26.1916  -28.9893  -39.2125 O.2       5 UNK        -0.5012 
     39 N          25.3362  -27.8602  -40.9842 N.am      6 UNK        -0.4439 
     40 CA         26.3178  -28.3229  -41.9724 C.3       6 UNK         0.0297 
     41 CB         26.2667  -27.4347  -43.2259 C.3       6 UNK        -0.2006 
     42 C          26.1222  -29.8010  -42.3519 C.2       6 UNK         0.4892 
     43 O          27.1100  -30.4969  -42.5889 O.2       6 UNK        -0.5089 
     44 N          24.8602  -30.2498  -42.3896 N.am      7 UNK        -0.4243 
     45 CA         24.4855  -31.6472  -42.6199 C.3       7 UNK         0.0196 
     46 CB         23.1971  -31.6884  -43.4534 C.3       7 UNK        -0.2007 
     47 C          24.2891  -32.4233  -41.3078 C.2       7 UNK         0.5020 
     48 O          24.3633  -33.6518  -41.3286 O.2       7 UNK        -0.5147 
     49 N          24.0252  -31.6996  -40.2095 N.am      8 UNK        -0.4734 
     50 CA         23.6354  -32.1865  -38.8831 C.3       8 UNK         0.0238 
     51 CB         24.7504  -33.0387  -38.2390 C.3       8 UNK        -0.1912 
     52 C          22.2673  -32.8894  -38.9363 C.2       8 UNK         0.5038 
     53 O          22.1506  -34.0462  -38.5259 O.2       8 UNK        -0.5046 
     54 N          21.2699  -32.1729  -39.4770 N.am      9 UNK        -0.4200 
     55 CA         19.8744  -32.6180  -39.6314 C.3       9 UNK         0.0839 
     56 C          19.2254  -33.0893  -38.2996 C.2       9 UNK         0.5513 
     57 N          18.4403  -34.1573  -38.3346 N.am      9 UNK        -0.7519 
     58 O          19.3873  -32.4648  -37.2530 O.2       9 UNK        -0.4960 
     59 C59        18.9864  -31.5219  -40.2765 C.3       10 UNK        -0.0876 
     60 S60        19.5947  -30.9268  -41.8880 S.3       10 UNK        -0.2414 
     61 C61        18.6946  -31.9955  -43.0563 C.3       10 UNK         0.0169 
     62 H62        14.0870  -24.3368  -41.0015 H         1 UNK         0.0903 
     63 H63        15.1710  -25.6777  -40.6265 H         1 UNK         0.0903 
     64 H64        15.7527  -24.0159  -40.5111 H         1 UNK         0.0903 
     65 H65        15.9752  -26.6952  -42.4491 H         1 UNK         0.3096 
     66 H66        15.8453  -25.4760  -45.0755 H         1 UNK         0.1121 
     67 H67        17.2022  -28.1317  -44.4070 H         1 UNK         0.0849 
     68 H68        15.4635  -28.0026  -44.4437 H         1 UNK         0.0849 
     69 H69        15.4189  -29.9637  -46.3143 H         1 UNK         0.0865 
     70 H70        16.2155  -29.8313  -47.8616 H         1 UNK         0.0865 
     71 H71        16.6114  -30.8955  -44.4419 H         1 UNK         0.1346 
     72 H72        20.8038  -31.7076  -44.7371 H         1 UNK         0.1412 
     73 H73        18.8164  -29.5653  -47.8735 H         1 UNK         0.1426 
     74 H74        21.1792  -30.6533  -48.1516 H         1 UNK         0.0716 
     75 H75        22.0403  -31.1104  -46.7029 H         1 UNK         0.0716 
     76 H76        21.2427  -29.0659  -44.6227 H         1 UNK         0.0695 
     77 H77        22.9778  -29.0360  -44.8088 H         1 UNK         0.0695 
     78 H78        22.9858  -26.5872  -45.0117 H         1 UNK         0.0983 
     79 H79        20.1450  -26.2571  -44.3148 H         1 UNK         0.3095 
     80 H80        19.7387  -23.6807  -45.3082 H         1 UNK         0.0454 
     81 H81        19.3341  -24.5357  -48.2167 H         1 UNK         0.0851 
     82 H82        18.5915  -23.1319  -47.4476 H         1 UNK         0.0851 
     83 H83        20.3287  -23.1969  -47.6599 H         1 UNK         0.0851 
     84 H84        17.7035  -25.2942  -46.4961 H         1 UNK         0.2976 
     85 H85        20.4235  -27.9497  -42.8957 H         1 UNK         0.3116 
     86 H86        20.1358  -28.1370  -40.7139 H         1 UNK         0.0646 
     87 H87        20.4932  -26.0611  -39.3507 H         1 UNK         0.0847 
     88 H88        19.7307  -25.7191  -40.8899 H         1 UNK         0.0847 
     89 H89        21.4332  -25.3537  -40.6662 H         1 UNK         0.0847 
     90 H90        22.7644  -26.3530  -39.4788 H         1 UNK         0.3040 
     91 H91        23.9314  -28.5768  -38.1288 H         1 UNK         0.1015 
     92 H92        23.9248  -26.2736  -37.1978 H         1 UNK         0.0786 
     93 H93        24.9520  -25.7090  -38.5171 H         1 UNK         0.0786 
     94 H94        25.5722  -26.8605  -37.3423 H         1 UNK         0.0786 
     95 H95        24.5920  -27.2542  -41.3207 H         1 UNK         0.3172 
     96 H96        27.3118  -28.2205  -41.5314 H         1 UNK         0.0595 
     97 H97        26.3866  -26.3809  -42.9743 H         1 UNK         0.0839 
     98 H98        25.3271  -27.5467  -43.7671 H         1 UNK         0.0839 
     99 H99        27.0686  -27.6963  -43.9175 H         1 UNK         0.0839 
    100 H100       24.1143  -29.6091  -42.1577 H         1 UNK         0.2998 
    101 H101       25.2692  -32.1569  -43.1849 H         1 UNK         0.0822 
    102 H102       23.3684  -31.3047  -44.4583 H         1 UNK         0.0787 
    103 H103       22.8297  -32.7101  -43.5606 H         1 UNK         0.0787 
    104 H104       22.4025  -31.1010  -42.9921 H         1 UNK         0.0787 
    105 H105       23.8937  -30.7033  -40.3400 H         1 UNK         0.3055 
    106 H106       23.4996  -31.3027  -38.2574 H         1 UNK         0.1106 
    107 H107       24.9139  -33.9746  -38.7735 H         1 UNK         0.0828 
    108 H108       25.6959  -32.4971  -38.2126 H         1 UNK         0.0828 
    109 H109       24.4948  -33.2962  -37.2105 H         1 UNK         0.0828 
    110 H110       21.4757  -31.2399  -39.8146 H         1 UNK         0.2931 
    111 H111       19.9015  -33.4705  -40.3130 H         1 UNK         0.0412 
    112 H112       18.2941  -34.6700  -39.1906 H         1 UNK         0.3472 
    113 H113       17.9963  -34.4677  -37.4840 H         1 UNK         0.3472 
    114 H114       17.9615  -31.8781  -40.3960 H         1 UNK         0.0970 
    115 H115       18.9215  -30.6567  -39.6137 H         1 UNK         0.0970 
    116 H116       19.1599  -32.9819  -43.0789 H         1 UNK         0.0612 
    117 H117       17.6687  -32.1376  -42.7140 H         1 UNK         0.0612 
@<TRIPOS>BOND
     1    1    2 1    
     2    1   62 1    
     3    1   63 1    
     4    1   64 1    
     5    2    3 2    
     6    2    4 am   BACKBONE|DICT|INTERRES
     7    4    5 1    
     8    4   65 1    
     9    5    6 1    
    10    5   25 1    
    11    5   66 1    
    12    6    7 1    
    13    6   67 1    
    14    6   68 1    
    15    7    8 1    
    16    8    9 1    
    17    8   69 1    
    18    8   70 1    
    19    9   10 ar   
    20    9   14 ar   
    21   10   11 ar   
    22   10   71 1    
    23   11   12 ar   
    24   11   61 1    
    25   12   13 ar   
    26   12   72 1    
    27   13   14 ar   
    28   13   15 1    
    29   14   73 1    
    30   15   16 1    
    31   15   74 1    
    32   15   75 1    
    33   16   17 1    
    34   17   18 1    
    35   17   76 1    
    36   17   77 1    
    37   18   19 1    
    38   18   27 1    
    39   18   78 1    
    40   19   20 am   BACKBONE|DICT|INTERRES
    41   19   79 1    
    42   20   21 2    
    43   20   22 1    
    44   22   23 1    
    45   22   24 1    
    46   22   80 1    
    47   23   81 1    
    48   23   82 1    
    49   23   83 1    
    50   24   25 am   BACKBONE|DICT|INTERRES
    51   24   84 1    
    52   25   26 2    
    53   27   28 2    
    54   27   29 am   BACKBONE|DICT|INTERRES
    55   29   30 1    
    56   29   85 1    
    57   30   31 1    
    58   30   32 1    
    59   30   86 1    
    60   31   87 1    
    61   31   88 1    
    62   31   89 1    
    63   32   33 2    
    64   32   34 am   BACKBONE|DICT|INTERRES
    65   34   35 1    
    66   34   90 1    
    67   35   36 1    
    68   35   37 1    
    69   35   91 1    
    70   36   92 1    
    71   36   93 1    
    72   36   94 1    
    73   37   38 2    
    74   37   39 am   BACKBONE|DICT|INTERRES
    75   39   40 1    
    76   39   95 1    
    77   40   41 1    
    78   40   42 1    
    79   40   96 1    
    80   41   97 1    
    81   41   98 1    
    82   41   99 1    
    83   42   43 2    
    84   42   44 am   BACKBONE|DICT|INTERRES
    85   44   45 1    
    86   44  100 1    
    87   45   46 1    
    88   45   47 1    
    89   45  101 1    
    90   46  102 1    
    91   46  103 1    
    92   46  104 1    
    93   47   48 2    
    94   47   49 am   BACKBONE|DICT|INTERRES
    95   49   50 1    
    96   49  105 1    
    97   50   51 1    
    98   50   52 1    
    99   50  106 1    
   100   51  107 1    
   101   51  108 1    
   102   51  109 1    
   103   52   53 2    
   104   52   54 am   BACKBONE|DICT|INTERRES
   105   54   55 1    
   106   54  110 1    
   107   55   56 1    
   108   55   59 1    
   109   55  111 1    
   110   56   57 am   BACKBONE|DICT|INTERRES
   111   56   58 2    
   112   57  112 1    
   113   57  113 1    
   114   59   60 1    
   115   59  114 1    
   116   59  115 1    
   117   60   61 1    
   118   61  116 1    
   119   61  117 1    
@<TRIPOS>SUBSTRUCTURE
     1 UNK         1 GROUP             0       ****    0 ROOT    
