@<TRIPOS>MOLECULE
3R8
117   119    1
SMALL
USER_CHARGES


@<TRIPOS>ATOM
      1 CA         14.5493  -22.7405  -48.1259 C.3       0 UNK        -0.2013 
      2 C          14.9678  -24.1684  -48.4418 C.2       0 UNK         0.4866 
      3 O          15.3342  -24.4626  -49.5795 O.2       0 UNK        -0.5176 
      4 N          14.9254  -25.0580  -47.4415 N.am      1 UNK        -0.4884 
      5 CA         15.2780  -26.4805  -47.5603 C.3       1 UNK         0.0853 
      6 C6         14.4373  -27.3473  -46.5858 C.3       10 UNK        -0.0849 
      7 S7         14.7785  -27.0180  -44.8200 S.3       10 UNK        -0.2776 
      8 C8         15.5121  -28.6132  -44.3039 C.3       10 UNK         0.0316 
      9 C9         16.4104  -28.5507  -43.0676 C.ar      10 UNK        -0.0863 
     10 C10        17.3205  -29.5918  -42.8534 C.ar      10 UNK        -0.1009 
     11 C11        18.2053  -29.5608  -41.7717 C.ar      10 UNK        -0.0712 
     12 C12        18.1681  -28.4842  -40.8831 C.ar      10 UNK        -0.0894 
     13 C13        17.2658  -27.4366  -41.0823 C.ar      10 UNK        -0.0745 
     14 C14        16.3764  -27.4846  -42.1591 C.ar      10 UNK        -0.0972 
     15 C15        17.3057  -26.2137  -40.1811 C.3       10 UNK         0.0209 
     16 S16        18.8054  -25.2229  -40.4841 S.3       10 UNK        -0.2568 
     17 C17        18.6624  -24.8158  -42.2631 C.3       10 UNK        -0.0983 
     18 CA         19.4014  -25.7979  -43.2155 C.3       3 UNK         0.0876 
     19 N          19.0912  -25.4897  -44.6141 N.am      3 UNK        -0.4424 
     20 C          19.4143  -26.2529  -45.6668 C.2       2 UNK         0.4918 
     21 O          19.9525  -27.3578  -45.5825 O.2       2 UNK        -0.4875 
     22 CA         19.0506  -25.6640  -47.0414 C.3       2 UNK         0.0481 
     23 CB         19.8221  -26.3192  -48.2076 C.3       2 UNK        -0.1831 
     24 N          17.6005  -25.6844  -47.2663 N.am      2 UNK        -0.4498 
     25 C          16.7989  -26.7497  -47.4369 C.2       1 UNK         0.5027 
     26 O          17.2018  -27.9120  -47.4976 O.2       1 UNK        -0.4969 
     27 C          20.9264  -25.8170  -42.9692 C.2       3 UNK         0.5005 
     28 O          21.6480  -24.9725  -43.5080 O.2       3 UNK        -0.5279 
     29 N          21.3752  -26.7614  -42.1378 N.am      4 UNK        -0.4463 
     30 CA         22.7495  -26.9342  -41.6833 C.3       4 UNK         0.0283 
     31 CB         23.5539  -27.7262  -42.7323 C.3       4 UNK        -0.1875 
     32 C          22.7192  -27.6662  -40.3358 C.2       4 UNK         0.4949 
     33 O          21.6746  -28.1986  -39.9491 O.2       4 UNK        -0.5039 
     34 N          23.8705  -27.6990  -39.6525 N.am      5 UNK        -0.4663 
     35 CA         24.0872  -28.4932  -38.4393 C.3       5 UNK         0.0242 
     36 CB         25.4447  -28.1156  -37.8256 C.3       5 UNK        -0.1982 
     37 C          24.0472  -29.9964  -38.7560 C.2       5 UNK         0.5017 
     38 O          24.4954  -30.3932  -39.8330 O.2       5 UNK        -0.5012 
     39 N          23.5445  -30.8066  -37.8150 N.am      6 UNK        -0.4439 
     40 CA         23.2626  -32.2415  -37.9783 C.3       6 UNK         0.0297 
     41 CB         22.6676  -32.7885  -36.6705 C.3       6 UNK        -0.2006 
     42 C          24.4458  -33.1196  -38.4333 C.2       6 UNK         0.4892 
     43 O          24.2129  -34.1699  -39.0311 O.2       6 UNK        -0.5089 
     44 N          25.6813  -32.6786  -38.1608 N.am      7 UNK        -0.4243 
     45 CA         26.9132  -33.3201  -38.6265 C.3       7 UNK         0.0196 
     46 CB         28.0981  -32.7786  -37.8101 C.3       7 UNK        -0.2007 
     47 C          27.1728  -33.1315  -40.1344 C.2       7 UNK         0.5020 
     48 O          27.8629  -33.9615  -40.7269 O.2       7 UNK        -0.5147 
     49 N          26.6430  -32.0503  -40.7219 N.am      8 UNK        -0.4734 
     50 CA         26.8032  -31.6971  -42.1351 C.3       8 UNK         0.0238 
     51 CB         27.2219  -30.2203  -42.2329 C.3       8 UNK        -0.1912 
     52 C          25.5170  -31.9338  -42.9419 C.2       8 UNK         0.5038 
     53 O          25.6085  -32.2677  -44.1240 O.2       8 UNK        -0.5046 
     54 N          24.3547  -31.7350  -42.3063 N.am      9 UNK        -0.4200 
     55 CA         23.0170  -31.8864  -42.8949 C.3       9 UNK         0.0839 
     56 C          22.7071  -33.3279  -43.3877 C.2       9 UNK         0.5513 
     57 N          21.8755  -33.4648  -44.4110 N.am      9 UNK        -0.7519 
     58 O          23.1765  -34.3174  -42.8296 O.2       9 UNK        -0.4960 
     59 C59        21.9239  -31.3691  -41.9197 C.3       10 UNK        -0.0876 
     60 S60        20.5893  -30.4813  -42.7817 S.3       10 UNK        -0.2414 
     61 C61        19.2321  -30.6656  -41.5870 C.3       10 UNK         0.0169 
     62 H62        15.3710  -22.0542  -48.3288 H         1 UNK         0.0903 
     63 H63        13.7030  -22.4519  -48.7487 H         1 UNK         0.0903 
     64 H64        14.2576  -22.6217  -47.0825 H         1 UNK         0.0903 
     65 H65        14.6219  -24.7672  -46.5215 H         1 UNK         0.3096 
     66 H66        15.0135  -26.8057  -48.5694 H         1 UNK         0.1121 
     67 H67        13.3759  -27.1640  -46.7604 H         1 UNK         0.0849 
     68 H68        14.5796  -28.4071  -46.8049 H         1 UNK         0.0849 
     69 H69        14.7100  -29.3308  -44.1263 H         1 UNK         0.0865 
     70 H70        16.1038  -29.0056  -45.1328 H         1 UNK         0.0865 
     71 H71        17.3659  -30.4189  -43.5493 H         1 UNK         0.1346 
     72 H72        18.8690  -28.4385  -40.0598 H         1 UNK         0.1412 
     73 H73        15.6881  -26.6643  -42.3031 H         1 UNK         0.1426 
     74 H74        16.4240  -25.5878  -40.3276 H         1 UNK         0.0716 
     75 H75        17.2908  -26.5296  -39.1370 H         1 UNK         0.0716 
     76 H76        19.0397  -23.8012  -42.4042 H         1 UNK         0.0695 
     77 H77        17.6028  -24.7740  -42.5201 H         1 UNK         0.0695 
     78 H78        19.0288  -26.8080  -43.0423 H         1 UNK         0.0983 
     79 H79        18.6680  -24.5899  -44.7842 H         1 UNK         0.3095 
     80 H80        19.3406  -24.6122  -47.0223 H         1 UNK         0.0454 
     81 H81        19.5612  -25.8629  -49.1622 H         1 UNK         0.0851 
     82 H82        19.6290  -27.3894  -48.2836 H         1 UNK         0.0851 
     83 H83        20.8975  -26.1984  -48.0729 H         1 UNK         0.0851 
     84 H84        17.1419  -24.7850  -47.2332 H         1 UNK         0.2976 
     85 H85        20.7190  -27.3819  -41.6762 H         1 UNK         0.3116 
     86 H86        23.2047  -25.9536  -41.5294 H         1 UNK         0.0646 
     87 H87        23.5750  -27.2084  -43.6913 H         1 UNK         0.0847 
     88 H88        24.5889  -27.8644  -42.4185 H         1 UNK         0.0847 
     89 H89        23.1303  -28.7166  -42.8989 H         1 UNK         0.0847 
     90 H90        24.6858  -27.2580  -40.0527 H         1 UNK         0.3040 
     91 H91        23.2927  -28.2568  -37.7278 H         1 UNK         0.1015 
     92 H92        26.2705  -28.3376  -38.5033 H         1 UNK         0.0786 
     93 H93        25.6245  -28.6666  -36.9015 H         1 UNK         0.0786 
     94 H94        25.4879  -27.0541  -37.5804 H         1 UNK         0.0786 
     95 H95        23.2330  -30.3923  -36.9477 H         1 UNK         0.3172 
     96 H96        22.4987  -32.3231  -38.7544 H         1 UNK         0.0595 
     97 H97        23.3664  -32.6933  -35.8385 H         1 UNK         0.0839 
     98 H98        22.4185  -33.8466  -36.7659 H         1 UNK         0.0839 
     99 H99        21.7487  -32.2675  -36.4011 H         1 UNK         0.0839 
    100 H100       25.7778  -31.8092  -37.6570 H         1 UNK         0.2998 
    101 H101       26.8319  -34.3933  -38.4400 H         1 UNK         0.0822 
    102 H102       27.9674  -32.9701  -36.7448 H         1 UNK         0.0787 
    103 H103       29.0307  -33.2578  -38.1115 H         1 UNK         0.0787 
    104 H104       28.2254  -31.7038  -37.9466 H         1 UNK         0.0787 
    105 H105       26.0407  -31.4419  -40.1746 H         1 UNK         0.3055 
    106 H106       27.5894  -32.3030  -42.5915 H         1 UNK         0.1106 
    107 H107       28.1730  -30.0455  -41.7298 H         1 UNK         0.0828 
    108 H108       27.3452  -29.9160  -43.2732 H         1 UNK         0.0828 
    109 H109       26.4798  -29.5587  -41.7839 H         1 UNK         0.0828 
    110 H110       24.3846  -31.4125  -41.3439 H         1 UNK         0.2931 
    111 H111       23.0300  -31.2408  -43.7759 H         1 UNK         0.0412 
    112 H112       21.4602  -32.6568  -44.8491 H         1 UNK         0.3472 
    113 H113       21.6463  -34.3896  -44.7404 H         1 UNK         0.3472 
    114 H114       21.5144  -32.1759  -41.3081 H         1 UNK         0.0970 
    115 H115       22.3394  -30.6518  -41.2133 H         1 UNK         0.0970 
    116 H116       18.7632  -31.6422  -41.7152 H         1 UNK         0.0612 
    117 H117       19.6331  -30.6397  -40.5722 H         1 UNK         0.0612 
@<TRIPOS>BOND
     1    1    2 1    
     2    1   62 1    
     3    1   63 1    
     4    1   64 1    
     5    2    3 2    
     6    2    4 am   BACKBONE|DICT|INTERRES
     7    4    5 1    
     8    4   65 1    
     9    5    6 1    
    10    5   25 1    
    11    5   66 1    
    12    6    7 1    
    13    6   67 1    
    14    6   68 1    
    15    7    8 1    
    16    8    9 1    
    17    8   69 1    
    18    8   70 1    
    19    9   10 ar   
    20    9   14 ar   
    21   10   11 ar   
    22   10   71 1    
    23   11   12 ar   
    24   11   61 1    
    25   12   13 ar   
    26   12   72 1    
    27   13   14 ar   
    28   13   15 1    
    29   14   73 1    
    30   15   16 1    
    31   15   74 1    
    32   15   75 1    
    33   16   17 1    
    34   17   18 1    
    35   17   76 1    
    36   17   77 1    
    37   18   19 1    
    38   18   27 1    
    39   18   78 1    
    40   19   20 am   BACKBONE|DICT|INTERRES
    41   19   79 1    
    42   20   21 2    
    43   20   22 1    
    44   22   23 1    
    45   22   24 1    
    46   22   80 1    
    47   23   81 1    
    48   23   82 1    
    49   23   83 1    
    50   24   25 am   BACKBONE|DICT|INTERRES
    51   24   84 1    
    52   25   26 2    
    53   27   28 2    
    54   27   29 am   BACKBONE|DICT|INTERRES
    55   29   30 1    
    56   29   85 1    
    57   30   31 1    
    58   30   32 1    
    59   30   86 1    
    60   31   87 1    
    61   31   88 1    
    62   31   89 1    
    63   32   33 2    
    64   32   34 am   BACKBONE|DICT|INTERRES
    65   34   35 1    
    66   34   90 1    
    67   35   36 1    
    68   35   37 1    
    69   35   91 1    
    70   36   92 1    
    71   36   93 1    
    72   36   94 1    
    73   37   38 2    
    74   37   39 am   BACKBONE|DICT|INTERRES
    75   39   40 1    
    76   39   95 1    
    77   40   41 1    
    78   40   42 1    
    79   40   96 1    
    80   41   97 1    
    81   41   98 1    
    82   41   99 1    
    83   42   43 2    
    84   42   44 am   BACKBONE|DICT|INTERRES
    85   44   45 1    
    86   44  100 1    
    87   45   46 1    
    88   45   47 1    
    89   45  101 1    
    90   46  102 1    
    91   46  103 1    
    92   46  104 1    
    93   47   48 2    
    94   47   49 am   BACKBONE|DICT|INTERRES
    95   49   50 1    
    96   49  105 1    
    97   50   51 1    
    98   50   52 1    
    99   50  106 1    
   100   51  107 1    
   101   51  108 1    
   102   51  109 1    
   103   52   53 2    
   104   52   54 am   BACKBONE|DICT|INTERRES
   105   54   55 1    
   106   54  110 1    
   107   55   56 1    
   108   55   59 1    
   109   55  111 1    
   110   56   57 am   BACKBONE|DICT|INTERRES
   111   56   58 2    
   112   57  112 1    
   113   57  113 1    
   114   59   60 1    
   115   59  114 1    
   116   59  115 1    
   117   60   61 1    
   118   61  116 1    
   119   61  117 1    
@<TRIPOS>SUBSTRUCTURE
     1 UNK         1 GROUP             0       ****    0 ROOT    
