@<TRIPOS>MOLECULE
3R8
117   119    1
SMALL
USER_CHARGES


@<TRIPOS>ATOM
      1 CA         18.1164  -28.2411  -42.1732 C.3       0 UNK        -0.2013 
      2 C          17.6712  -27.1181  -43.0915 C.2       0 UNK         0.4866 
      3 O          17.6246  -25.9617  -42.6716 O.2       0 UNK        -0.5176 
      4 N          17.3548  -27.4436  -44.3514 N.am      1 UNK        -0.4884 
      5 CA         16.8298  -26.5204  -45.3694 C.3       1 UNK         0.0853 
      6 C6         16.0376  -27.2634  -46.4796 C.3       10 UNK        -0.0849 
      7 S7         14.7960  -28.4297  -45.8161 S.3       10 UNK        -0.2776 
      8 C8         15.3870  -30.0293  -46.4654 C.3       10 UNK         0.0316 
      9 C9         16.7441  -30.4367  -45.9021 C.ar      10 UNK        -0.0863 
     10 C10        16.8364  -31.0396  -44.6427 C.ar      10 UNK        -0.1009 
     11 C11        18.0745  -31.4589  -44.1411 C.ar      10 UNK        -0.0712 
     12 C12        19.2232  -31.2718  -44.9166 C.ar      10 UNK        -0.0894 
     13 C13        19.1498  -30.6404  -46.1611 C.ar      10 UNK        -0.0745 
     14 C14        17.9064  -30.2400  -46.6551 C.ar      10 UNK        -0.0972 
     15 C15        20.4151  -30.3846  -46.9687 C.3       10 UNK         0.0209 
     16 S16        21.0003  -28.6670  -46.7897 S.3       10 UNK        -0.2568 
     17 C17        21.4503  -28.6381  -45.0234 C.3       10 UNK        -0.0983 
     18 CA         21.8557  -27.2432  -44.4861 C.3       3 UNK         0.0876 
     19 N          20.8370  -26.2359  -44.7931 N.am      3 UNK        -0.4424 
     20 C          21.0431  -24.9276  -44.9871 C.2       2 UNK         0.4918 
     21 O          22.1547  -24.4015  -44.9421 O.2       2 UNK        -0.4875 
     22 CA         19.7964  -24.0446  -45.2139 C.3       2 UNK         0.0481 
     23 CB         19.8867  -23.2381  -46.5255 C.3       2 UNK        -0.1831 
     24 N          18.5289  -24.7836  -45.0885 N.am      2 UNK        -0.4498 
     25 C          17.9732  -25.6547  -45.9446 C.2       1 UNK         0.5027 
     26 O          18.3827  -25.8510  -47.0887 O.2       1 UNK        -0.4969 
     27 C          22.1237  -27.3541  -42.9681 C.2       3 UNK         0.5005 
     28 O          22.9571  -28.1712  -42.5727 O.2       3 UNK        -0.5279 
     29 N          21.3838  -26.5943  -42.1436 N.am      4 UNK        -0.4463 
     30 CA         21.3725  -26.6592  -40.6799 C.3       4 UNK         0.0283 
     31 CB         20.4546  -25.5576  -40.1266 C.3       4 UNK        -0.1875 
     32 C          22.7777  -26.5626  -40.0632 C.2       4 UNK         0.4949 
     33 O          23.4900  -25.5920  -40.3242 O.2       4 UNK        -0.5039 
     34 N          23.1463  -27.5953  -39.2952 N.am      5 UNK        -0.4663 
     35 CA         24.4404  -27.8355  -38.6423 C.3       5 UNK         0.0242 
     36 CB         24.7952  -26.6982  -37.6614 C.3       5 UNK        -0.1982 
     37 C          25.6151  -28.1604  -39.5902 C.2       5 UNK         0.5017 
     38 O          26.6816  -28.5234  -39.0907 O.2       5 UNK        -0.5012 
     39 N          25.4230  -28.0646  -40.9138 N.am      6 UNK        -0.4439 
     40 CA         26.3642  -28.5590  -41.9221 C.3       6 UNK         0.0297 
     41 CB         26.2835  -27.6986  -43.1945 C.3       6 UNK        -0.2006 
     42 C          26.0640  -30.0351  -42.2208 C.2       6 UNK         0.4892 
     43 O          26.9780  -30.8605  -42.2034 O.2       6 UNK        -0.5089 
     44 N          24.7780  -30.3395  -42.4359 N.am      7 UNK        -0.4243 
     45 CA         24.2203  -31.6889  -42.4155 C.3       7 UNK         0.0196 
     46 CB         22.9692  -31.7157  -43.3101 C.3       7 UNK        -0.2007 
     47 C          23.8647  -32.0857  -40.9729 C.2       7 UNK         0.5020 
     48 O          23.8388  -31.2365  -40.0778 O.2       7 UNK        -0.5147 
     49 N          23.5494  -33.3704  -40.7693 N.am      8 UNK        -0.4734 
     50 CA         23.1117  -33.9394  -39.4883 C.3       8 UNK         0.0238 
     51 CB         23.3831  -35.4560  -39.4999 C.3       8 UNK        -0.1912 
     52 C          21.6392  -33.6009  -39.1660 C.2       8 UNK         0.5038 
     53 O          20.8376  -34.5033  -38.9153 O.2       8 UNK        -0.5046 
     54 N          21.3096  -32.3077  -39.1919 N.am      9 UNK        -0.4200 
     55 CA         19.9852  -31.7321  -38.9472 C.3       9 UNK         0.0839 
     56 C          20.0944  -30.2181  -38.6174 C.2       9 UNK         0.5513 
     57 N          18.9986  -29.5879  -38.2172 N.am      9 UNK        -0.7519 
     58 O          21.1582  -29.6070  -38.7130 O.2       9 UNK        -0.4960 
     59 C59        18.9702  -32.0501  -40.0838 C.3       10 UNK        -0.0876 
     60 S60        19.4630  -31.4088  -41.7192 S.3       10 UNK        -0.2414 
     61 C61        18.1616  -32.1295  -42.7732 C.3       10 UNK         0.0169 
     62 H62        18.0438  -27.9401  -41.1283 H         1 UNK         0.0903 
     63 H63        17.4933  -29.1239  -42.3106 H         1 UNK         0.0903 
     64 H64        19.1517  -28.5101  -42.3774 H         1 UNK         0.0903 
     65 H65        17.4065  -28.4118  -44.6435 H         1 UNK         0.3096 
     66 H66        16.1291  -25.8401  -44.8791 H         1 UNK         0.1121 
     67 H67        16.7090  -27.7973  -47.1515 H         1 UNK         0.0849 
     68 H68        15.5149  -26.5394  -47.1074 H         1 UNK         0.0849 
     69 H69        14.6511  -30.7977  -46.2234 H         1 UNK         0.0865 
     70 H70        15.4222  -29.9844  -47.5552 H         1 UNK         0.0865 
     71 H71        15.9386  -31.1915  -44.0588 H         1 UNK         0.1346 
     72 H72        20.1823  -31.5961  -44.5373 H         1 UNK         0.1412 
     73 H73        17.8498  -29.7722  -47.6286 H         1 UNK         0.1426 
     74 H74        20.2219  -30.5840  -48.0238 H         1 UNK         0.0716 
     75 H75        21.2095  -31.0700  -46.6690 H         1 UNK         0.0716 
     76 H76        22.2670  -29.3474  -44.8850 H         1 UNK         0.0695 
     77 H77        20.6068  -29.0187  -44.4469 H         1 UNK         0.0695 
     78 H78        22.7959  -26.9518  -44.9594 H         1 UNK         0.0983 
     79 H79        19.8968  -26.5839  -44.9034 H         1 UNK         0.3095 
     80 H80        19.7890  -23.3251  -44.3940 H         1 UNK         0.0454 
     81 H81        20.0223  -23.8814  -47.3950 H         1 UNK         0.0851 
     82 H82        20.7366  -22.5551  -46.5006 H         1 UNK         0.0851 
     83 H83        18.9927  -22.6359  -46.6861 H         1 UNK         0.0851 
     84 H84        18.1316  -24.7833  -44.1516 H         1 UNK         0.2976 
     85 H85        20.7472  -25.9350  -42.5640 H         1 UNK         0.3116 
     86 H86        20.9351  -27.6232  -40.4164 H         1 UNK         0.0646 
     87 H87        19.4335  -25.6660  -40.4926 H         1 UNK         0.0847 
     88 H88        20.8078  -24.5631  -40.4020 H         1 UNK         0.0847 
     89 H89        20.4123  -25.5981  -39.0374 H         1 UNK         0.0847 
     90 H90        22.4696  -28.3480  -39.1683 H         1 UNK         0.3040 
     91 H91        24.2921  -28.7410  -38.0511 H         1 UNK         0.1015 
     92 H92        25.0232  -25.7673  -38.1810 H         1 UNK         0.0786 
     93 H93        25.6721  -26.9565  -37.0665 H         1 UNK         0.0786 
     94 H94        23.9790  -26.5049  -36.9653 H         1 UNK         0.0786 
     95 H95        24.5009  -27.8023  -41.2456 H         1 UNK         0.3172 
     96 H96        27.3844  -28.4879  -41.5389 H         1 UNK         0.0595 
     97 H97        25.3048  -27.7524  -43.6706 H         1 UNK         0.0839 
     98 H98        27.0182  -28.0285  -43.9300 H         1 UNK         0.0839 
     99 H99        26.4913  -26.6509  -42.9766 H         1 UNK         0.0839 
    100 H100       24.0978  -29.5820  -42.4092 H         1 UNK         0.2998 
    101 H101       24.9537  -32.3992  -42.8030 H         1 UNK         0.0822 
    102 H102       23.2208  -31.4799  -44.3439 H         1 UNK         0.0787 
    103 H103       22.4971  -32.6988  -43.3115 H         1 UNK         0.0787 
    104 H104       22.2221  -30.9963  -42.9720 H         1 UNK         0.0787 
    105 H105       23.5549  -34.0003  -41.5591 H         1 UNK         0.3055 
    106 H106       23.7151  -33.5030  -38.6887 H         1 UNK         0.1106 
    107 H107       22.8041  -35.9646  -40.2718 H         1 UNK         0.0828 
    108 H108       23.1191  -35.9083  -38.5429 H         1 UNK         0.0828 
    109 H109       24.4377  -35.6697  -39.6746 H         1 UNK         0.0828 
    110 H110       22.0365  -31.6253  -39.3950 H         1 UNK         0.2931 
    111 H111       19.6158  -32.1983  -38.0319 H         1 UNK         0.0412 
    112 H112       18.1215  -30.0739  -38.1175 H         1 UNK         0.3472 
    113 H113       19.0551  -28.6081  -37.9900 H         1 UNK         0.3472 
    114 H114       17.9842  -31.6535  -39.8374 H         1 UNK         0.0970 
    115 H115       18.8357  -33.1295  -40.1655 H         1 UNK         0.0970 
    116 H116       18.3583  -33.1939  -42.9067 H         1 UNK         0.0612 
    117 H117       17.2055  -32.0489  -42.2537 H         1 UNK         0.0612 
@<TRIPOS>BOND
     1    1    2 1    
     2    1   62 1    
     3    1   63 1    
     4    1   64 1    
     5    2    3 2    
     6    2    4 am   BACKBONE|DICT|INTERRES
     7    4    5 1    
     8    4   65 1    
     9    5    6 1    
    10    5   25 1    
    11    5   66 1    
    12    6    7 1    
    13    6   67 1    
    14    6   68 1    
    15    7    8 1    
    16    8    9 1    
    17    8   69 1    
    18    8   70 1    
    19    9   10 ar   
    20    9   14 ar   
    21   10   11 ar   
    22   10   71 1    
    23   11   12 ar   
    24   11   61 1    
    25   12   13 ar   
    26   12   72 1    
    27   13   14 ar   
    28   13   15 1    
    29   14   73 1    
    30   15   16 1    
    31   15   74 1    
    32   15   75 1    
    33   16   17 1    
    34   17   18 1    
    35   17   76 1    
    36   17   77 1    
    37   18   19 1    
    38   18   27 1    
    39   18   78 1    
    40   19   20 am   BACKBONE|DICT|INTERRES
    41   19   79 1    
    42   20   21 2    
    43   20   22 1    
    44   22   23 1    
    45   22   24 1    
    46   22   80 1    
    47   23   81 1    
    48   23   82 1    
    49   23   83 1    
    50   24   25 am   BACKBONE|DICT|INTERRES
    51   24   84 1    
    52   25   26 2    
    53   27   28 2    
    54   27   29 am   BACKBONE|DICT|INTERRES
    55   29   30 1    
    56   29   85 1    
    57   30   31 1    
    58   30   32 1    
    59   30   86 1    
    60   31   87 1    
    61   31   88 1    
    62   31   89 1    
    63   32   33 2    
    64   32   34 am   BACKBONE|DICT|INTERRES
    65   34   35 1    
    66   34   90 1    
    67   35   36 1    
    68   35   37 1    
    69   35   91 1    
    70   36   92 1    
    71   36   93 1    
    72   36   94 1    
    73   37   38 2    
    74   37   39 am   BACKBONE|DICT|INTERRES
    75   39   40 1    
    76   39   95 1    
    77   40   41 1    
    78   40   42 1    
    79   40   96 1    
    80   41   97 1    
    81   41   98 1    
    82   41   99 1    
    83   42   43 2    
    84   42   44 am   BACKBONE|DICT|INTERRES
    85   44   45 1    
    86   44  100 1    
    87   45   46 1    
    88   45   47 1    
    89   45  101 1    
    90   46  102 1    
    91   46  103 1    
    92   46  104 1    
    93   47   48 2    
    94   47   49 am   BACKBONE|DICT|INTERRES
    95   49   50 1    
    96   49  105 1    
    97   50   51 1    
    98   50   52 1    
    99   50  106 1    
   100   51  107 1    
   101   51  108 1    
   102   51  109 1    
   103   52   53 2    
   104   52   54 am   BACKBONE|DICT|INTERRES
   105   54   55 1    
   106   54  110 1    
   107   55   56 1    
   108   55   59 1    
   109   55  111 1    
   110   56   57 am   BACKBONE|DICT|INTERRES
   111   56   58 2    
   112   57  112 1    
   113   57  113 1    
   114   59   60 1    
   115   59  114 1    
   116   59  115 1    
   117   60   61 1    
   118   61  116 1    
   119   61  117 1    
@<TRIPOS>SUBSTRUCTURE
     1 UNK         1 GROUP             0       ****    0 ROOT    
