@<TRIPOS>MOLECULE
3R8
117   119    1
SMALL
USER_CHARGES


@<TRIPOS>ATOM
      1 CA         15.3278  -24.7841  -41.4083 C.3       0 UNK        -0.2013 
      2 C          16.2703  -24.4670  -42.5597 C.2       0 UNK         0.4866 
      3 O          16.5545  -23.2960  -42.8148 O.2       0 UNK        -0.5176 
      4 N          16.7485  -25.5007  -43.2628 N.am      1 UNK        -0.4884 
      5 CA         17.7085  -25.3892  -44.3658 C.3       1 UNK         0.0853 
      6 C6         17.8299  -26.7162  -45.1622 C.3       10 UNK        -0.0849 
      7 S7         16.2622  -27.3649  -45.8323 S.3       10 UNK        -0.2776 
      8 C8         16.0515  -28.9368  -44.9097 C.3       10 UNK         0.0316 
      9 C9         17.1975  -29.9495  -45.0297 C.ar      10 UNK        -0.0863 
     10 C10        17.3902  -30.8769  -43.9982 C.ar      10 UNK        -0.1009 
     11 C11        18.4305  -31.8113  -44.0505 C.ar      10 UNK        -0.0712 
     12 C12        19.2817  -31.8215  -45.1599 C.ar      10 UNK        -0.0894 
     13 C13        19.1041  -30.9075  -46.2018 C.ar      10 UNK        -0.0745 
     14 C14        18.0511  -29.9886  -46.1397 C.ar      10 UNK        -0.0972 
     15 C15        20.0448  -30.9226  -47.4000 C.3       10 UNK         0.0209 
     16 S16        21.6817  -30.2135  -47.0155 S.3       10 UNK        -0.2568 
     17 C17        21.2745  -28.4590  -46.7088 C.3       10 UNK        -0.0983 
     18 CA         22.0004  -27.8115  -45.5004 C.3       3 UNK         0.0876 
     19 N          21.6170  -26.4029  -45.3851 N.am      3 UNK        -0.4424 
     20 C          22.1001  -25.5106  -44.5084 C.2       2 UNK         0.4918 
     21 O          23.0219  -25.7396  -43.7260 O.2       2 UNK        -0.4875 
     22 CA         21.3565  -24.1607  -44.4515 C.3       2 UNK         0.0481 
     23 CB         21.9387  -23.1763  -45.4771 C.3       2 UNK        -0.1831 
     24 N          19.9105  -24.3220  -44.6746 N.am      2 UNK        -0.4498 
     25 C          19.1084  -25.0019  -43.8407 C.2       1 UNK         0.5027 
     26 O          19.4867  -25.4280  -42.7469 O.2       1 UNK        -0.4969 
     27 C          21.7868  -28.5820  -44.1761 C.2       3 UNK         0.5005 
     28 O          22.6601  -29.3585  -43.7925 O.2       3 UNK        -0.5279 
     29 N          20.6763  -28.3091  -43.4710 N.am      4 UNK        -0.4463 
     30 CA         20.3370  -28.9285  -42.1863 C.3       4 UNK         0.0283 
     31 CB         18.9084  -28.5537  -41.7580 C.3       4 UNK        -0.1875 
     32 C          21.3331  -28.5671  -41.0785 C.2       4 UNK         0.4949 
     33 O          21.7236  -29.4409  -40.3056 O.2       4 UNK        -0.5039 
     34 N          21.7468  -27.2930  -41.0444 N.am      5 UNK        -0.4663 
     35 CA         22.7733  -26.7872  -40.1336 C.3       5 UNK         0.0242 
     36 CB         22.7677  -25.2502  -40.1544 C.3       5 UNK        -0.1982 
     37 C          24.1697  -27.3386  -40.4650 C.2       5 UNK         0.5017 
     38 O          24.9029  -27.7066  -39.5474 O.2       5 UNK        -0.5012 
     39 N          24.5027  -27.3971  -41.7627 N.am      6 UNK        -0.4439 
     40 CA         25.7765  -27.9054  -42.2761 C.3       6 UNK         0.0297 
     41 CB         25.9094  -27.5579  -43.7677 C.3       6 UNK        -0.2006 
     42 C          25.9643  -29.4152  -42.0487 C.2       6 UNK         0.4892 
     43 O          27.0258  -29.8249  -41.5773 O.2       6 UNK        -0.5089 
     44 N          24.9413  -30.2122  -42.3866 N.am      7 UNK        -0.4243 
     45 CA         24.9499  -31.6715  -42.2473 C.3       7 UNK         0.0196 
     46 CB         23.9625  -32.2764  -43.2577 C.3       7 UNK        -0.2007 
     47 C          24.6304  -32.1557  -40.8216 C.2       7 UNK         0.5020 
     48 O          24.8790  -33.3256  -40.5286 O.2       7 UNK        -0.5147 
     49 N          24.0925  -31.2662  -39.9731 N.am      8 UNK        -0.4734 
     50 CA         23.6318  -31.5007  -38.5989 C.3       8 UNK         0.0238 
     51 CB         24.8069  -31.8823  -37.6727 C.3       8 UNK        -0.1912 
     52 C          22.4656  -32.5060  -38.5561 C.2       8 UNK         0.5038 
     53 O          22.5683  -33.5528  -37.9122 O.2       8 UNK        -0.5046 
     54 N          21.3847  -32.1643  -39.2633 N.am      9 UNK        -0.4200 
     55 CA         20.1519  -32.9539  -39.3895 C.3       9 UNK         0.0839 
     56 C          18.8842  -32.0861  -39.1615 C.2       9 UNK         0.5513 
     57 N          17.7030  -32.6894  -39.1896 N.am      9 UNK        -0.7519 
     58 O          18.9513  -30.8805  -38.9333 O.2       9 UNK        -0.4960 
     59 C59        20.1238  -33.7783  -40.7091 C.3       10 UNK        -0.0876 
     60 S60        20.3007  -32.7703  -42.2212 S.3       10 UNK        -0.2414 
     61 C61        18.6177  -32.8163  -42.9172 C.3       10 UNK         0.0169 
     62 H62        15.1543  -25.8552  -41.3055 H         1 UNK         0.0903 
     63 H63        15.7452  -24.4172  -40.4710 H         1 UNK         0.0903 
     64 H64        14.3652  -24.2985  -41.5663 H         1 UNK         0.0903 
     65 H65        16.4831  -26.4396  -43.0071 H         1 UNK         0.3096 
     66 H66        17.3591  -24.6030  -45.0391 H         1 UNK         0.1121 
     67 H67        18.4976  -26.5818  -46.0148 H         1 UNK         0.0849 
     68 H68        18.2854  -27.4889  -44.5458 H         1 UNK         0.0849 
     69 H69        15.8853  -28.6920  -43.8596 H         1 UNK         0.0865 
     70 H70        15.1357  -29.4167  -45.2572 H         1 UNK         0.0865 
     71 H71        16.7289  -30.8667  -43.1424 H         1 UNK         0.1346 
     72 H72        20.0922  -32.5359  -45.2074 H         1 UNK         0.1412 
     73 H73        17.9074  -29.2952  -46.9563 H         1 UNK         0.1426 
     74 H74        19.6094  -30.3826  -48.2423 H         1 UNK         0.0716 
     75 H75        20.1795  -31.9515  -47.7368 H         1 UNK         0.0716 
     76 H76        21.5239  -27.9108  -47.6187 H         1 UNK         0.0695 
     77 H77        20.1972  -28.3522  -46.5906 H         1 UNK         0.0695 
     78 H78        23.0723  -27.8321  -45.7068 H         1 UNK         0.0983 
     79 H79        20.8902  -26.0926  -46.0108 H         1 UNK         0.3095 
     80 H80        21.5035  -23.7407  -43.4541 H         1 UNK         0.0454 
     81 H81        23.0077  -23.0322  -45.3134 H         1 UNK         0.0851 
     82 H82        21.8113  -23.5294  -46.5011 H         1 UNK         0.0851 
     83 H83        21.4670  -22.1967  -45.3982 H         1 UNK         0.0851 
     84 H84        19.5413  -23.9782  -45.5504 H         1 UNK         0.2976 
     85 H85        20.0498  -27.5972  -43.8085 H         1 UNK         0.3116 
     86 H86        20.3745  -30.0058  -42.3345 H         1 UNK         0.0646 
     87 H87        18.5947  -29.1600  -40.9087 H         1 UNK         0.0847 
     88 H88        18.1866  -28.7226  -42.5521 H         1 UNK         0.0847 
     89 H89        18.8287  -27.5124  -41.4481 H         1 UNK         0.0847 
     90 H90        21.3569  -26.6408  -41.7126 H         1 UNK         0.3040 
     91 H91        22.5197  -27.1161  -39.1231 H         1 UNK         0.1015 
     92 H92        21.7962  -24.8538  -39.8582 H         1 UNK         0.0786 
     93 H93        23.0022  -24.8552  -41.1434 H         1 UNK         0.0786 
     94 H94        23.5069  -24.8491  -39.4596 H         1 UNK         0.0786 
     95 H95        23.8485  -27.0250  -42.4449 H         1 UNK         0.3172 
     96 H96        26.5758  -27.3883  -41.7408 H         1 UNK         0.0595 
     97 H97        26.8699  -27.8925  -44.1620 H         1 UNK         0.0839 
     98 H98        25.8485  -26.4818  -43.9319 H         1 UNK         0.0839 
     99 H99        25.1297  -28.0316  -44.3644 H         1 UNK         0.0839 
    100 H100       24.1053  -29.8039  -42.8061 H         1 UNK         0.2998 
    101 H101       25.9478  -32.0398  -42.4950 H         1 UNK         0.0822 
    102 H102       22.9462  -31.9274  -43.0773 H         1 UNK         0.0787 
    103 H103       24.2272  -32.0092  -44.2809 H         1 UNK         0.0787 
    104 H104       23.9502  -33.3654  -43.1966 H         1 UNK         0.0787 
    105 H105       23.8773  -30.3489  -40.3430 H         1 UNK         0.3055 
    106 H106       23.2323  -30.5500  -38.2412 H         1 UNK         0.1106 
    107 H107       25.2443  -32.8447  -37.9392 H         1 UNK         0.0828 
    108 H108       25.5976  -31.1329  -37.7086 H         1 UNK         0.0828 
    109 H109       24.4753  -31.9548  -36.6363 H         1 UNK         0.0828 
    110 H110       21.3682  -31.2563  -39.7221 H         1 UNK         0.2931 
    111 H111       20.1297  -33.6701  -38.5662 H         1 UNK         0.0412 
    112 H112       16.8730  -32.1400  -39.0300 H         1 UNK         0.3472 
    113 H113       17.6226  -33.6823  -39.3413 H         1 UNK         0.3472 
    114 H114       20.9506  -34.4899  -40.6972 H         1 UNK         0.0970 
    115 H115       19.2233  -34.3905  -40.7740 H         1 UNK         0.0970 
    116 H116       18.4108  -33.8203  -43.2896 H         1 UNK         0.0612 
    117 H117       17.9009  -32.6235  -42.1180 H         1 UNK         0.0612 
@<TRIPOS>BOND
     1    1    2 1    
     2    1   62 1    
     3    1   63 1    
     4    1   64 1    
     5    2    3 2    
     6    2    4 am   BACKBONE|DICT|INTERRES
     7    4    5 1    
     8    4   65 1    
     9    5    6 1    
    10    5   25 1    
    11    5   66 1    
    12    6    7 1    
    13    6   67 1    
    14    6   68 1    
    15    7    8 1    
    16    8    9 1    
    17    8   69 1    
    18    8   70 1    
    19    9   10 ar   
    20    9   14 ar   
    21   10   11 ar   
    22   10   71 1    
    23   11   12 ar   
    24   11   61 1    
    25   12   13 ar   
    26   12   72 1    
    27   13   14 ar   
    28   13   15 1    
    29   14   73 1    
    30   15   16 1    
    31   15   74 1    
    32   15   75 1    
    33   16   17 1    
    34   17   18 1    
    35   17   76 1    
    36   17   77 1    
    37   18   19 1    
    38   18   27 1    
    39   18   78 1    
    40   19   20 am   BACKBONE|DICT|INTERRES
    41   19   79 1    
    42   20   21 2    
    43   20   22 1    
    44   22   23 1    
    45   22   24 1    
    46   22   80 1    
    47   23   81 1    
    48   23   82 1    
    49   23   83 1    
    50   24   25 am   BACKBONE|DICT|INTERRES
    51   24   84 1    
    52   25   26 2    
    53   27   28 2    
    54   27   29 am   BACKBONE|DICT|INTERRES
    55   29   30 1    
    56   29   85 1    
    57   30   31 1    
    58   30   32 1    
    59   30   86 1    
    60   31   87 1    
    61   31   88 1    
    62   31   89 1    
    63   32   33 2    
    64   32   34 am   BACKBONE|DICT|INTERRES
    65   34   35 1    
    66   34   90 1    
    67   35   36 1    
    68   35   37 1    
    69   35   91 1    
    70   36   92 1    
    71   36   93 1    
    72   36   94 1    
    73   37   38 2    
    74   37   39 am   BACKBONE|DICT|INTERRES
    75   39   40 1    
    76   39   95 1    
    77   40   41 1    
    78   40   42 1    
    79   40   96 1    
    80   41   97 1    
    81   41   98 1    
    82   41   99 1    
    83   42   43 2    
    84   42   44 am   BACKBONE|DICT|INTERRES
    85   44   45 1    
    86   44  100 1    
    87   45   46 1    
    88   45   47 1    
    89   45  101 1    
    90   46  102 1    
    91   46  103 1    
    92   46  104 1    
    93   47   48 2    
    94   47   49 am   BACKBONE|DICT|INTERRES
    95   49   50 1    
    96   49  105 1    
    97   50   51 1    
    98   50   52 1    
    99   50  106 1    
   100   51  107 1    
   101   51  108 1    
   102   51  109 1    
   103   52   53 2    
   104   52   54 am   BACKBONE|DICT|INTERRES
   105   54   55 1    
   106   54  110 1    
   107   55   56 1    
   108   55   59 1    
   109   55  111 1    
   110   56   57 am   BACKBONE|DICT|INTERRES
   111   56   58 2    
   112   57  112 1    
   113   57  113 1    
   114   59   60 1    
   115   59  114 1    
   116   59  115 1    
   117   60   61 1    
   118   61  116 1    
   119   61  117 1    
@<TRIPOS>SUBSTRUCTURE
     1 UNK         1 GROUP             0       ****    0 ROOT    
