@<TRIPOS>MOLECULE
3R8
117   119    1
SMALL
USER_CHARGES


@<TRIPOS>ATOM
      1 CA         15.4467  -22.8859  -47.7620 C.3       0 UNK        -0.2013 
      2 C          16.9167  -23.0127  -47.3917 C.2       0 UNK         0.4866 
      3 O          17.5863  -22.0008  -47.1840 O.2       0 UNK        -0.5176 
      4 N          17.4248  -24.2489  -47.3042 N.am      1 UNK        -0.4884 
      5 CA         18.8177  -24.5635  -46.9549 C.3       1 UNK         0.0853 
      6 C6         19.2405  -25.9527  -47.5027 C.3       10 UNK        -0.0849 
      7 S7         18.2052  -27.3390  -46.9104 S.3       10 UNK        -0.2776 
      8 C8         19.3424  -28.1150  -45.7101 C.3       10 UNK         0.0316 
      9 C9         18.6927  -29.0964  -44.7341 C.ar      10 UNK        -0.0863 
     10 C10        19.5025  -30.0433  -44.0981 C.ar      10 UNK        -0.1009 
     11 C11        18.9761  -30.9043  -43.1315 C.ar      10 UNK        -0.0712 
     12 C12        17.6198  -30.8236  -42.8033 C.ar      10 UNK        -0.0894 
     13 C13        16.7955  -29.8811  -43.4251 C.ar      10 UNK        -0.0745 
     14 C14        17.3342  -29.0312  -44.3967 C.ar      10 UNK        -0.0972 
     15 C15        15.3390  -29.7349  -43.0038 C.3       10 UNK         0.0209 
     16 S16        14.9927  -28.0923  -42.2839 S.3       10 UNK        -0.2568 
     17 C17        16.0820  -28.0669  -40.8163 C.3       10 UNK        -0.0983 
     18 CA         17.4913  -27.4901  -41.1195 C.3       3 UNK         0.0876 
     19 N          17.4385  -26.1512  -41.7189 N.am      3 UNK        -0.4424 
     20 C          18.3764  -25.6244  -42.5167 C.2       2 UNK         0.4918 
     21 O          19.4598  -26.1667  -42.7433 O.2       2 UNK        -0.4875 
     22 CA         18.0441  -24.2625  -43.1469 C.3       2 UNK         0.0481 
     23 CB         18.9367  -23.1422  -42.5777 C.3       2 UNK        -0.1831 
     24 N          18.0746  -24.3165  -44.6146 N.am      2 UNK        -0.4498 
     25 C          19.1272  -24.4123  -45.4456 C.2       1 UNK         0.5027 
     26 O          20.3052  -24.3789  -45.0879 O.2       1 UNK        -0.4969 
     27 C          18.4486  -27.5610  -39.9118 C.2       3 UNK         0.5005 
     28 O          18.0272  -27.8322  -38.7856 O.2       3 UNK        -0.5279 
     29 N          19.7320  -27.3280  -40.1917 N.am      4 UNK        -0.4463 
     30 CA         20.8721  -27.5397  -39.3101 C.3       4 UNK         0.0283 
     31 CB         21.1883  -26.2688  -38.5016 C.3       4 UNK        -0.1875 
     32 C          22.0432  -27.9856  -40.1874 C.2       4 UNK         0.4949 
     33 O          22.5525  -29.0902  -40.0016 O.2       4 UNK        -0.5039 
     34 N          22.4052  -27.1343  -41.1629 N.am      5 UNK        -0.4663 
     35 CA         23.3222  -27.3917  -42.2850 C.3       5 UNK         0.0242 
     36 CB         22.6213  -28.2988  -43.3174 C.3       5 UNK        -0.1982 
     37 C          24.7069  -27.9375  -41.8807 C.2       5 UNK         0.5017 
     38 O          25.2777  -28.7469  -42.6110 O.2       5 UNK        -0.5012 
     39 N          25.2002  -27.5271  -40.7020 N.am      6 UNK        -0.4439 
     40 CA         26.4234  -28.0131  -40.0455 C.3       6 UNK         0.0297 
     41 CB         27.6772  -27.5343  -40.8088 C.3       6 UNK        -0.2006 
     42 C          26.4256  -29.5394  -39.7935 C.2       6 UNK         0.4892 
     43 O          27.4910  -30.1581  -39.8073 O.2       6 UNK        -0.5089 
     44 N          25.2304  -30.1105  -39.5711 N.am      7 UNK        -0.4243 
     45 CA         24.9398  -31.5325  -39.3611 C.3       7 UNK         0.0196 
     46 CB         25.6162  -32.0628  -38.0782 C.3       7 UNK        -0.2007 
     47 C          25.2168  -32.4096  -40.5984 C.2       7 UNK         0.5020 
     48 O          25.5444  -33.5875  -40.4460 O.2       7 UNK        -0.5147 
     49 N          25.0401  -31.8493  -41.8065 N.am      8 UNK        -0.4734 
     50 CA         25.2192  -32.5413  -43.0932 C.3       8 UNK         0.0238 
     51 CB         25.0262  -31.5444  -44.2473 C.3       8 UNK        -0.1912 
     52 C          24.3144  -33.7716  -43.3007 C.2       8 UNK         0.5038 
     53 O          24.6927  -34.6712  -44.0524 O.2       8 UNK        -0.5046 
     54 N          23.1581  -33.7991  -42.6253 N.am      9 UNK        -0.4200 
     55 CA         22.2549  -34.9588  -42.5607 C.3       9 UNK         0.0839 
     56 C          22.7743  -36.1275  -41.6693 C.2       9 UNK         0.5513 
     57 N          23.8446  -35.9706  -40.8982 N.am      9 UNK        -0.7519 
     58 O          22.1921  -37.2090  -41.6841 O.2       9 UNK        -0.4960 
     59 C59        20.8167  -34.5478  -42.1499 C.3       10 UNK        -0.0876 
     60 S60        20.0176  -33.4455  -43.3658 S.3       10 UNK        -0.2414 
     61 C61        19.8776  -31.9008  -42.4192 C.3       10 UNK         0.0169 
     62 H62        15.3402  -22.3105  -48.6813 H         1 UNK         0.0903 
     63 H63        14.9787  -23.8583  -47.9150 H         1 UNK         0.0903 
     64 H64        14.9036  -22.3686  -46.9715 H         1 UNK         0.0903 
     65 H65        16.8367  -25.0509  -47.4885 H         1 UNK         0.3096 
     66 H66        19.4511  -23.8250  -47.4527 H         1 UNK         0.1121 
     67 H67        19.1773  -25.9407  -48.5919 H         1 UNK         0.0849 
     68 H68        20.2916  -26.1497  -47.2822 H         1 UNK         0.0849 
     69 H69        19.8239  -27.3333  -45.1225 H         1 UNK         0.0865 
     70 H70        20.1356  -28.6171  -46.2664 H         1 UNK         0.0865 
     71 H71        20.5540  -30.1020  -44.3426 H         1 UNK         0.1346 
     72 H72        17.2129  -31.4796  -42.0458 H         1 UNK         0.1412 
     73 H73        16.6934  -28.2867  -44.8472 H         1 UNK         0.1426 
     74 H74        15.0583  -30.5062  -42.2848 H         1 UNK         0.0716 
     75 H75        14.7006  -29.8802  -43.8763 H         1 UNK         0.0716 
     76 H76        16.1583  -29.0818  -40.4214 H         1 UNK         0.0695 
     77 H77        15.5891  -27.4757  -40.0425 H         1 UNK         0.0695 
     78 H78        17.9506  -28.1459  -41.8569 H         1 UNK         0.0983 
     79 H79        16.5853  -25.6358  -41.5594 H         1 UNK         0.3095 
     80 H80        17.0133  -24.0126  -42.8907 H         1 UNK         0.0454 
     81 H81        18.7166  -22.1822  -43.0443 H         1 UNK         0.0851 
     82 H82        19.9977  -23.3499  -42.7193 H         1 UNK         0.0851 
     83 H83        18.7752  -23.0275  -41.5054 H         1 UNK         0.0851 
     84 H84        17.1669  -24.3669  -45.0551 H         1 UNK         0.2976 
     85 H85        19.9500  -27.0936  -41.1587 H         1 UNK         0.3116 
     86 H86        20.6481  -28.3528  -38.6158 H         1 UNK         0.0646 
     87 H87        22.0761  -26.4104  -37.8840 H         1 UNK         0.0847 
     88 H88        20.3660  -26.0177  -37.8315 H         1 UNK         0.0847 
     89 H89        21.3667  -25.4051  -39.1426 H         1 UNK         0.0847 
     90 H90        21.9416  -26.2364  -41.1964 H         1 UNK         0.3040 
     91 H91        23.5084  -26.4287  -42.7633 H         1 UNK         0.1015 
     92 H92        21.6590  -27.8822  -43.6131 H         1 UNK         0.0786 
     93 H93        22.4470  -29.2987  -42.9185 H         1 UNK         0.0786 
     94 H94        23.2183  -28.4053  -44.2240 H         1 UNK         0.0786 
     95 H95        24.6434  -26.8724  -40.1701 H         1 UNK         0.3172 
     96 H96        26.4425  -27.5481  -39.0588 H         1 UNK         0.0595 
     97 H97        27.7619  -28.0108  -41.7861 H         1 UNK         0.0839 
     98 H98        28.5870  -27.7680  -40.2545 H         1 UNK         0.0839 
     99 H99        27.6620  -26.4553  -40.9615 H         1 UNK         0.0839 
    100 H100       24.4030  -29.5220  -39.6320 H         1 UNK         0.2998 
    101 H101       23.8618  -31.5881  -39.2018 H         1 UNK         0.0822 
    102 H102       26.6999  -32.1186  -38.1832 H         1 UNK         0.0787 
    103 H103       25.3931  -31.4286  -37.2203 H         1 UNK         0.0787 
    104 H104       25.2635  -33.0664  -37.8370 H         1 UNK         0.0787 
    105 H105       24.8267  -30.8601  -41.8538 H         1 UNK         0.3055 
    106 H106       26.2492  -32.9034  -43.1249 H         1 UNK         0.1106 
    107 H107       25.1082  -32.0407  -45.2155 H         1 UNK         0.0828 
    108 H108       24.0480  -31.0641  -44.2081 H         1 UNK         0.0828 
    109 H109       25.7868  -30.7643  -44.2266 H         1 UNK         0.0828 
    110 H110       22.9328  -33.0170  -42.0308 H         1 UNK         0.2931 
    111 H111       22.1920  -35.3728  -43.5692 H         1 UNK         0.0412 
    112 H112       24.3567  -35.0947  -40.8686 H         1 UNK         0.3472 
    113 H113       24.1582  -36.7462  -40.3366 H         1 UNK         0.3472 
    114 H114       20.1785  -35.4294  -42.0634 H         1 UNK         0.0970 
    115 H115       20.8191  -34.0866  -41.1608 H         1 UNK         0.0970 
    116 H116       19.4797  -32.1140  -41.4258 H         1 UNK         0.0612 
    117 H117       20.8706  -31.4731  -42.2709 H         1 UNK         0.0612 
@<TRIPOS>BOND
     1    1    2 1    
     2    1   62 1    
     3    1   63 1    
     4    1   64 1    
     5    2    3 2    
     6    2    4 am   BACKBONE|DICT|INTERRES
     7    4    5 1    
     8    4   65 1    
     9    5    6 1    
    10    5   25 1    
    11    5   66 1    
    12    6    7 1    
    13    6   67 1    
    14    6   68 1    
    15    7    8 1    
    16    8    9 1    
    17    8   69 1    
    18    8   70 1    
    19    9   10 ar   
    20    9   14 ar   
    21   10   11 ar   
    22   10   71 1    
    23   11   12 ar   
    24   11   61 1    
    25   12   13 ar   
    26   12   72 1    
    27   13   14 ar   
    28   13   15 1    
    29   14   73 1    
    30   15   16 1    
    31   15   74 1    
    32   15   75 1    
    33   16   17 1    
    34   17   18 1    
    35   17   76 1    
    36   17   77 1    
    37   18   19 1    
    38   18   27 1    
    39   18   78 1    
    40   19   20 am   BACKBONE|DICT|INTERRES
    41   19   79 1    
    42   20   21 2    
    43   20   22 1    
    44   22   23 1    
    45   22   24 1    
    46   22   80 1    
    47   23   81 1    
    48   23   82 1    
    49   23   83 1    
    50   24   25 am   BACKBONE|DICT|INTERRES
    51   24   84 1    
    52   25   26 2    
    53   27   28 2    
    54   27   29 am   BACKBONE|DICT|INTERRES
    55   29   30 1    
    56   29   85 1    
    57   30   31 1    
    58   30   32 1    
    59   30   86 1    
    60   31   87 1    
    61   31   88 1    
    62   31   89 1    
    63   32   33 2    
    64   32   34 am   BACKBONE|DICT|INTERRES
    65   34   35 1    
    66   34   90 1    
    67   35   36 1    
    68   35   37 1    
    69   35   91 1    
    70   36   92 1    
    71   36   93 1    
    72   36   94 1    
    73   37   38 2    
    74   37   39 am   BACKBONE|DICT|INTERRES
    75   39   40 1    
    76   39   95 1    
    77   40   41 1    
    78   40   42 1    
    79   40   96 1    
    80   41   97 1    
    81   41   98 1    
    82   41   99 1    
    83   42   43 2    
    84   42   44 am   BACKBONE|DICT|INTERRES
    85   44   45 1    
    86   44  100 1    
    87   45   46 1    
    88   45   47 1    
    89   45  101 1    
    90   46  102 1    
    91   46  103 1    
    92   46  104 1    
    93   47   48 2    
    94   47   49 am   BACKBONE|DICT|INTERRES
    95   49   50 1    
    96   49  105 1    
    97   50   51 1    
    98   50   52 1    
    99   50  106 1    
   100   51  107 1    
   101   51  108 1    
   102   51  109 1    
   103   52   53 2    
   104   52   54 am   BACKBONE|DICT|INTERRES
   105   54   55 1    
   106   54  110 1    
   107   55   56 1    
   108   55   59 1    
   109   55  111 1    
   110   56   57 am   BACKBONE|DICT|INTERRES
   111   56   58 2    
   112   57  112 1    
   113   57  113 1    
   114   59   60 1    
   115   59  114 1    
   116   59  115 1    
   117   60   61 1    
   118   61  116 1    
   119   61  117 1    
@<TRIPOS>SUBSTRUCTURE
     1 UNK         1 GROUP             0       ****    0 ROOT    
