@<TRIPOS>MOLECULE
3R8
117   119    1
SMALL
USER_CHARGES


@<TRIPOS>ATOM
      1 CA         16.4646  -26.1921  -40.4280 C.3       0 UNK        -0.2013 
      2 C          16.6356  -25.3694  -41.6968 C.2       0 UNK         0.4866 
      3 O          16.7289  -24.1435  -41.6231 O.2       0 UNK        -0.5176 
      4 N          16.6687  -26.0365  -42.8578 N.am      1 UNK        -0.4884 
      5 CA         16.9108  -25.4302  -44.1724 C.3       1 UNK         0.0853 
      6 C6         16.1333  -26.1874  -45.2921 C.3       10 UNK        -0.0849 
      7 S7         17.0001  -27.5567  -46.1301 S.3       10 UNK        -0.2776 
      8 C8         16.7261  -28.9694  -45.0009 C.3       10 UNK         0.0316 
      9 C9         17.8575  -30.0029  -44.9783 C.ar      10 UNK        -0.0863 
     10 C10        17.6616  -31.2016  -44.2868 C.ar      10 UNK        -0.1009 
     11 C11        18.6737  -32.1646  -44.2194 C.ar      10 UNK        -0.0712 
     12 C12        19.8894  -31.9307  -44.8715 C.ar      10 UNK        -0.0894 
     13 C13        20.1062  -30.7468  -45.5831 C.ar      10 UNK        -0.0745 
     14 C14        19.0886  -29.7864  -45.6103 C.ar      10 UNK        -0.0972 
     15 C15        21.4400  -30.5566  -46.3154 C.3       10 UNK         0.0209 
     16 S16        21.5482  -29.0734  -47.3874 S.3       10 UNK        -0.2568 
     17 C17        22.8819  -28.1036  -46.6032 C.3       10 UNK        -0.0983 
     18 CA         22.4540  -27.1771  -45.4312 C.3       3 UNK         0.0876 
     19 N          21.3322  -26.2933  -45.7796 N.am      3 UNK        -0.4424 
     20 C          21.3330  -24.9680  -45.5835 C.2       2 UNK         0.4918 
     21 O          22.2688  -24.3523  -45.0714 O.2       2 UNK        -0.4875 
     22 CA         20.0838  -24.1794  -46.0266 C.3       2 UNK         0.0481 
     23 CB         20.0966  -23.9808  -47.5513 C.3       2 UNK        -0.1831 
     24 N          18.7717  -24.7041  -45.6174 N.am      2 UNK        -0.4498 
     25 C          18.4268  -25.2055  -44.4211 C.2       1 UNK         0.5027 
     26 O          19.2434  -25.4746  -43.5368 O.2       1 UNK        -0.4969 
     27 C          22.2285  -27.9619  -44.1231 C.2       3 UNK         0.5005 
     28 O          23.1136  -28.7312  -43.7418 O.2       3 UNK        -0.5279 
     29 N          21.0907  -27.7725  -43.4349 N.am      4 UNK        -0.4463 
     30 CA         20.7190  -28.5543  -42.2480 C.3       4 UNK         0.0283 
     31 CB         19.2887  -28.2121  -41.8112 C.3       4 UNK        -0.1875 
     32 C          21.6847  -28.3880  -41.0658 C.2       4 UNK         0.4949 
     33 O          21.9004  -29.3483  -40.3281 O.2       4 UNK        -0.5039 
     34 N          22.2721  -27.1927  -40.9262 N.am      5 UNK        -0.4663 
     35 CA         23.2918  -26.8889  -39.9198 C.3       5 UNK         0.0242 
     36 CB         23.4682  -25.3652  -39.8228 C.3       5 UNK        -0.1982 
     37 C          24.6426  -27.5710  -40.2024 C.2       5 UNK         0.5017 
     38 O          25.3618  -27.8893  -39.2556 O.2       5 UNK        -0.5012 
     39 N          24.9603  -27.7867  -41.4870 N.am      6 UNK        -0.4439 
     40 CA         26.1779  -28.4636  -41.9380 C.3       6 UNK         0.0297 
     41 CB         26.5264  -28.0089  -43.3652 C.3       6 UNK        -0.2006 
     42 C          26.0286  -29.9906  -41.8728 C.2       6 UNK         0.4892 
     43 O          26.9617  -30.6737  -41.4506 O.2       6 UNK        -0.5089 
     44 N          24.8529  -30.4929  -42.2743 N.am      7 UNK        -0.4243 
     45 CA         24.4947  -31.9131  -42.2465 C.3       7 UNK         0.0196 
     46 CB         23.2910  -32.1328  -43.1780 C.3       7 UNK        -0.2007 
     47 C          24.1871  -32.4561  -40.8386 C.2       7 UNK         0.5020 
     48 O          24.1223  -33.6750  -40.6778 O.2       7 UNK        -0.5147 
     49 N          23.9689  -31.5583  -39.8644 N.am      8 UNK        -0.4734 
     50 CA         23.4771  -31.8225  -38.5029 C.3       8 UNK         0.0238 
     51 CB         24.4851  -32.6621  -37.6892 C.3       8 UNK        -0.1912 
     52 C          22.0522  -32.4146  -38.5092 C.2       8 UNK         0.5038 
     53 O          21.7266  -33.2765  -37.6905 O.2       8 UNK        -0.5046 
     54 N          21.2405  -31.9319  -39.4552 N.am      9 UNK        -0.4200 
     55 CA         19.8354  -32.2909  -39.6660 C.3       9 UNK         0.0839 
     56 C          18.8626  -31.4480  -38.7918 C.2       9 UNK         0.5513 
     57 N          19.2625  -30.2775  -38.3054 N.am      9 UNK        -0.7519 
     58 O          17.7388  -31.8686  -38.5320 O.2       9 UNK        -0.4960 
     59 C59        19.4969  -32.1902  -41.1759 C.3       10 UNK        -0.0876 
     60 S60        18.0714  -33.2001  -41.6920 S.3       10 UNK        -0.2414 
     61 C61        18.4503  -33.4667  -43.4564 C.3       10 UNK         0.0169 
     62 H62        15.5706  -25.8745  -39.8920 H         1 UNK         0.0903 
     63 H63        16.3723  -27.2573  -40.6395 H         1 UNK         0.0903 
     64 H64        17.3234  -26.0508  -39.7723 H         1 UNK         0.0903 
     65 H65        16.6096  -27.0424  -42.8463 H         1 UNK         0.3096 
     66 H66        16.4837  -24.4249  -44.1385 H         1 UNK         0.1121 
     67 H67        15.1731  -26.5480  -44.9186 H         1 UNK         0.0849 
     68 H68        15.8702  -25.4744  -46.0753 H         1 UNK         0.0849 
     69 H69        16.5783  -28.6058  -43.9855 H         1 UNK         0.0865 
     70 H70        15.7951  -29.4599  -45.2890 H         1 UNK         0.0865 
     71 H71        16.7201  -31.3857  -43.7870 H         1 UNK         0.1346 
     72 H72        20.6695  -32.6788  -44.8351 H         1 UNK         0.1412 
     73 H73        19.2558  -28.8632  -46.1371 H         1 UNK         0.1426 
     74 H74        21.6193  -31.4308  -46.9427 H         1 UNK         0.0716 
     75 H75        22.2446  -30.5416  -45.5820 H         1 UNK         0.0716 
     76 H76        23.6913  -28.7741  -46.3070 H         1 UNK         0.0695 
     77 H77        23.3118  -27.4818  -47.3898 H         1 UNK         0.0695 
     78 H78        23.3317  -26.5644  -45.2145 H         1 UNK         0.0983 
     79 H79        20.5305  -26.7296  -46.2114 H         1 UNK         0.3095 
     80 H80        20.1634  -23.1915  -45.5689 H         1 UNK         0.0454 
     81 H81        21.0536  -23.5785  -47.8873 H         1 UNK         0.0851 
     82 H82        19.9338  -24.9195  -48.0824 H         1 UNK         0.0851 
     83 H83        19.3263  -23.2778  -47.8686 H         1 UNK         0.0851 
     84 H84        18.0300  -24.5694  -46.2894 H         1 UNK         0.2976 
     85 H85        20.4394  -27.0517  -43.7316 H         1 UNK         0.3116 
     86 H86        20.7419  -29.6052  -42.5422 H         1 UNK         0.0646 
     87 H87        18.9772  -28.8219  -40.9625 H         1 UNK         0.0847 
     88 H88        18.5794  -28.3898  -42.6171 H         1 UNK         0.0847 
     89 H89        19.2035  -27.1695  -41.5050 H         1 UNK         0.0847 
     90 H90        22.0212  -26.4570  -41.5714 H         1 UNK         0.3040 
     91 H91        22.9371  -27.2555  -38.9535 H         1 UNK         0.1015 
     92 H92        22.5347  -24.8746  -39.5460 H         1 UNK         0.0786 
     93 H93        23.8075  -24.9355  -40.7662 H         1 UNK         0.0786 
     94 H94        24.2062  -25.1057  -39.0622 H         1 UNK         0.0786 
     95 H95        24.2751  -27.5631  -42.1961 H         1 UNK         0.3172 
     96 H96        27.0047  -28.1770  -41.2843 H         1 UNK         0.0595 
     97 H97        27.4513  -28.4766  -43.7057 H         1 UNK         0.0839 
     98 H98        26.6741  -26.9299  -43.4127 H         1 UNK         0.0839 
     99 H99        25.7478  -28.2727  -44.0817 H         1 UNK         0.0839 
    100 H100       24.1637  -29.8570  -42.6710 H         1 UNK         0.2998 
    101 H101       25.3374  -32.4889  -42.6350 H         1 UNK         0.0822 
    102 H102       22.4423  -31.5089  -42.8951 H         1 UNK         0.0787 
    103 H103       23.5523  -31.8992  -44.2094 H         1 UNK         0.0787 
    104 H104       22.9573  -33.1713  -43.1585 H         1 UNK         0.0787 
    105 H105       24.0120  -30.5820  -40.1257 H         1 UNK         0.3055 
    106 H106       23.3931  -30.8492  -38.0162 H         1 UNK         0.1106 
    107 H107       24.5644  -33.6823  -38.0654 H         1 UNK         0.0828 
    108 H108       25.4800  -32.2174  -37.7109 H         1 UNK         0.0828 
    109 H109       24.1824  -32.7271  -36.6435 H         1 UNK         0.0828 
    110 H110       21.5835  -31.1469  -40.0022 H         1 UNK         0.2931 
    111 H111       19.7144  -33.3332  -39.3639 H         1 UNK         0.0412 
    112 H112       18.6338  -29.7421  -37.7278 H         1 UNK         0.3472 
    113 H113       20.1826  -29.9232  -38.5173 H         1 UNK         0.3472 
    114 H114       19.3181  -31.1570  -41.4726 H         1 UNK         0.0970 
    115 H115       20.3539  -32.5239  -41.7636 H         1 UNK         0.0970 
    116 H116       19.3241  -34.1160  -43.5314 H         1 UNK         0.0612 
    117 H117       17.6233  -34.0099  -43.9156 H         1 UNK         0.0612 
@<TRIPOS>BOND
     1    1    2 1    
     2    1   62 1    
     3    1   63 1    
     4    1   64 1    
     5    2    3 2    
     6    2    4 am   BACKBONE|DICT|INTERRES
     7    4    5 1    
     8    4   65 1    
     9    5    6 1    
    10    5   25 1    
    11    5   66 1    
    12    6    7 1    
    13    6   67 1    
    14    6   68 1    
    15    7    8 1    
    16    8    9 1    
    17    8   69 1    
    18    8   70 1    
    19    9   10 ar   
    20    9   14 ar   
    21   10   11 ar   
    22   10   71 1    
    23   11   12 ar   
    24   11   61 1    
    25   12   13 ar   
    26   12   72 1    
    27   13   14 ar   
    28   13   15 1    
    29   14   73 1    
    30   15   16 1    
    31   15   74 1    
    32   15   75 1    
    33   16   17 1    
    34   17   18 1    
    35   17   76 1    
    36   17   77 1    
    37   18   19 1    
    38   18   27 1    
    39   18   78 1    
    40   19   20 am   BACKBONE|DICT|INTERRES
    41   19   79 1    
    42   20   21 2    
    43   20   22 1    
    44   22   23 1    
    45   22   24 1    
    46   22   80 1    
    47   23   81 1    
    48   23   82 1    
    49   23   83 1    
    50   24   25 am   BACKBONE|DICT|INTERRES
    51   24   84 1    
    52   25   26 2    
    53   27   28 2    
    54   27   29 am   BACKBONE|DICT|INTERRES
    55   29   30 1    
    56   29   85 1    
    57   30   31 1    
    58   30   32 1    
    59   30   86 1    
    60   31   87 1    
    61   31   88 1    
    62   31   89 1    
    63   32   33 2    
    64   32   34 am   BACKBONE|DICT|INTERRES
    65   34   35 1    
    66   34   90 1    
    67   35   36 1    
    68   35   37 1    
    69   35   91 1    
    70   36   92 1    
    71   36   93 1    
    72   36   94 1    
    73   37   38 2    
    74   37   39 am   BACKBONE|DICT|INTERRES
    75   39   40 1    
    76   39   95 1    
    77   40   41 1    
    78   40   42 1    
    79   40   96 1    
    80   41   97 1    
    81   41   98 1    
    82   41   99 1    
    83   42   43 2    
    84   42   44 am   BACKBONE|DICT|INTERRES
    85   44   45 1    
    86   44  100 1    
    87   45   46 1    
    88   45   47 1    
    89   45  101 1    
    90   46  102 1    
    91   46  103 1    
    92   46  104 1    
    93   47   48 2    
    94   47   49 am   BACKBONE|DICT|INTERRES
    95   49   50 1    
    96   49  105 1    
    97   50   51 1    
    98   50   52 1    
    99   50  106 1    
   100   51  107 1    
   101   51  108 1    
   102   51  109 1    
   103   52   53 2    
   104   52   54 am   BACKBONE|DICT|INTERRES
   105   54   55 1    
   106   54  110 1    
   107   55   56 1    
   108   55   59 1    
   109   55  111 1    
   110   56   57 am   BACKBONE|DICT|INTERRES
   111   56   58 2    
   112   57  112 1    
   113   57  113 1    
   114   59   60 1    
   115   59  114 1    
   116   59  115 1    
   117   60   61 1    
   118   61  116 1    
   119   61  117 1    
@<TRIPOS>SUBSTRUCTURE
     1 UNK         1 GROUP             0       ****    0 ROOT    
