@<TRIPOS>MOLECULE
3R8
117   119    1
SMALL
USER_CHARGES


@<TRIPOS>ATOM
      1 CA         15.2659  -22.1600  -43.7825 C.3       0 UNK        -0.2013 
      2 C          15.9492  -23.3691  -44.4037 C.2       0 UNK         0.4866 
      3 O          15.8288  -23.5883  -45.6096 O.2       0 UNK        -0.5176 
      4 N          16.6581  -24.1608  -43.5893 N.am      1 UNK        -0.4884 
      5 CA         17.4203  -25.3377  -44.0162 C.3       1 UNK         0.0853 
      6 C6         17.8349  -26.2146  -42.8081 C.3       10 UNK        -0.0849 
      7 S7         16.4070  -27.0543  -42.0345 S.3       10 UNK        -0.2776 
      8 C8         16.0341  -28.4123  -43.2011 C.3       10 UNK         0.0316 
      9 C9         17.1338  -29.4638  -43.2375 C.ar      10 UNK        -0.0863 
     10 C10        17.0859  -30.5703  -42.3830 C.ar      10 UNK        -0.1009 
     11 C11        18.1138  -31.5186  -42.3968 C.ar      10 UNK        -0.0712 
     12 C12        19.2028  -31.3437  -43.2568 C.ar      10 UNK        -0.0894 
     13 C13        19.2681  -30.2313  -44.0987 C.ar      10 UNK        -0.0745 
     14 C14        18.2109  -29.3201  -44.1164 C.ar      10 UNK        -0.0972 
     15 C15        20.5154  -29.9579  -44.9199 C.3       10 UNK         0.0209 
     16 S16        21.6961  -29.0295  -43.8952 S.3       10 UNK        -0.2568 
     17 C17        22.8394  -28.3218  -45.1299 C.3       10 UNK        -0.0983 
     18 CA         22.7255  -26.7795  -45.2807 C.3       3 UNK         0.0876 
     19 N          21.4305  -26.3942  -45.8526 N.am      3 UNK        -0.4424 
     20 C          21.2299  -25.3326  -46.6434 C.2       2 UNK         0.4918 
     21 O          22.1273  -24.5795  -47.0209 O.2       2 UNK        -0.4875 
     22 CA         19.7783  -25.0454  -47.0676 C.3       2 UNK         0.0481 
     23 CB         19.4696  -25.7380  -48.4044 C.3       2 UNK        -0.1831 
     24 N          18.7579  -25.4215  -46.0792 N.am      2 UNK        -0.4498 
     25 C          18.6504  -24.9117  -44.8423 C.2       1 UNK         0.5027 
     26 O          19.4783  -24.1485  -44.3415 O.2       1 UNK        -0.4969 
     27 C          23.0349  -26.0383  -43.9560 C.2       3 UNK         0.5005 
     28 O          24.0636  -26.3227  -43.3417 O.2       3 UNK        -0.5279 
     29 N          22.1237  -25.1621  -43.4941 N.am      4 UNK        -0.4463 
     30 CA         22.1340  -24.4578  -42.2024 C.3       4 UNK         0.0283 
     31 CB         23.3167  -23.4693  -42.1236 C.3       4 UNK        -0.1875 
     32 C          22.0730  -25.4011  -40.9816 C.2       4 UNK         0.4949 
     33 O          22.4525  -24.9960  -39.8824 O.2       4 UNK        -0.5039 
     34 N          21.6113  -26.6428  -41.2039 N.am      5 UNK        -0.4663 
     35 CA         21.5866  -27.7734  -40.2678 C.3       5 UNK         0.0242 
     36 CB         20.5851  -27.5178  -39.1221 C.3       5 UNK        -0.1982 
     37 C          22.9893  -28.1824  -39.7678 C.2       5 UNK         0.5017 
     38 O          23.1154  -28.6986  -38.6549 O.2       5 UNK        -0.5012 
     39 N          24.0249  -27.9524  -40.5911 N.am      6 UNK        -0.4439 
     40 CA         25.4114  -28.3385  -40.3268 C.3       6 UNK         0.0297 
     41 CB         26.3485  -27.4843  -41.1995 C.3       6 UNK        -0.2006 
     42 C          25.5949  -29.8467  -40.5681 C.2       6 UNK         0.4892 
     43 O          26.0855  -30.2456  -41.6260 O.2       6 UNK        -0.5089 
     44 N          25.1496  -30.6463  -39.5884 N.am      7 UNK        -0.4243 
     45 CA         25.0076  -32.1046  -39.6294 C.3       7 UNK         0.0196 
     46 CB         26.3783  -32.8079  -39.7706 C.3       7 UNK        -0.2007 
     47 C          23.9590  -32.5022  -40.6853 C.2       7 UNK         0.5020 
     48 O          22.8425  -31.9870  -40.6262 O.2       7 UNK        -0.5147 
     49 N          24.3142  -33.4070  -41.6082 N.am      8 UNK        -0.4734 
     50 CA         23.5368  -33.9135  -42.7526 C.3       8 UNK         0.0238 
     51 CB         23.1408  -32.7711  -43.7109 C.3       8 UNK        -0.1912 
     52 C          22.3142  -34.7816  -42.3954 C.2       8 UNK         0.5038 
     53 O          22.0606  -35.7605  -43.0990 O.2       8 UNK        -0.5046 
     54 N          21.5816  -34.4220  -41.3361 N.am      9 UNK        -0.4200 
     55 CA         20.4023  -35.1363  -40.8266 C.3       9 UNK         0.0839 
     56 C          20.7356  -36.5598  -40.3024 C.2       9 UNK         0.5513 
     57 N          19.8237  -37.5090  -40.4632 N.am      9 UNK        -0.7519 
     58 O          21.7878  -36.7980  -39.7125 O.2       9 UNK        -0.4960 
     59 C59        19.6430  -34.3233  -39.7401 C.3       10 UNK        -0.0876 
     60 S60        19.3443  -32.5762  -40.1765 S.3       10 UNK        -0.2414 
     61 C61        18.0740  -32.7225  -41.4702 C.3       10 UNK         0.0169 
     62 H62        14.1894  -22.2142  -43.9424 H         1 UNK         0.0903 
     63 H63        15.4464  -22.0956  -42.7096 H         1 UNK         0.0903 
     64 H64        15.6334  -21.2437  -44.2438 H         1 UNK         0.0903 
     65 H65        16.7277  -23.9294  -42.6086 H         1 UNK         0.3096 
     66 H66        16.7723  -25.9270  -44.6672 H         1 UNK         0.1121 
     67 H67        18.5879  -26.9537  -43.0760 H         1 UNK         0.0849 
     68 H68        18.3153  -25.5982  -42.0455 H         1 UNK         0.0849 
     69 H69        15.0940  -28.8772  -42.9000 H         1 UNK         0.0865 
     70 H70        15.8570  -28.0139  -44.2003 H         1 UNK         0.0865 
     71 H71        16.2548  -30.6869  -41.7007 H         1 UNK         0.1346 
     72 H72        20.0193  -32.0522  -43.2348 H         1 UNK         0.1412 
     73 H73        18.2555  -28.4661  -44.7768 H         1 UNK         0.1426 
     74 H74        20.2634  -29.3885  -45.8158 H         1 UNK         0.0716 
     75 H75        20.9713  -30.8908  -45.2548 H         1 UNK         0.0716 
     76 H76        22.6784  -28.8034  -46.0956 H         1 UNK         0.0695 
     77 H77        23.8548  -28.5958  -44.8372 H         1 UNK         0.0695 
     78 H78        23.5107  -26.4739  -45.9761 H         1 UNK         0.0983 
     79 H79        20.6402  -26.9640  -45.5927 H         1 UNK         0.3095 
     80 H80        19.6953  -23.9673  -47.2205 H         1 UNK         0.0454 
     81 H81        20.1974  -25.4573  -49.1673 H         1 UNK         0.0851 
     82 H82        18.4866  -25.4554  -48.7816 H         1 UNK         0.0851 
     83 H83        19.4964  -26.8247  -48.3142 H         1 UNK         0.0851 
     84 H84        18.0237  -26.0282  -46.4159 H         1 UNK         0.2976 
     85 H85        21.3051  -24.9724  -44.0637 H         1 UNK         0.3116 
     86 H86        21.2144  -23.8717  -42.1722 H         1 UNK         0.0646 
     87 H87        24.2748  -23.9866  -42.0634 H         1 UNK         0.0847 
     88 H88        23.3434  -22.8119  -42.9924 H         1 UNK         0.0847 
     89 H89        23.2375  -22.8333  -41.2412 H         1 UNK         0.0847 
     90 H90        21.3453  -26.8686  -42.1521 H         1 UNK         0.3040 
     91 H91        21.2184  -28.6310  -40.8343 H         1 UNK         0.1015 
     92 H92        20.4583  -28.4104  -38.5083 H         1 UNK         0.0786 
     93 H93        19.6013  -27.2514  -39.5090 H         1 UNK         0.0786 
     94 H94        20.9179  -26.7150  -38.4638 H         1 UNK         0.0786 
     95 H95        23.8451  -27.5207  -41.4910 H         1 UNK         0.3172 
     96 H96        25.6475  -28.1266  -39.2817 H         1 UNK         0.0595 
     97 H97        26.1708  -27.6444  -42.2638 H         1 UNK         0.0839 
     98 H98        27.3931  -27.7291  -41.0037 H         1 UNK         0.0839 
     99 H99        26.2190  -26.4208  -40.9978 H         1 UNK         0.0839 
    100 H100       24.6645  -30.1878  -38.8248 H         1 UNK         0.2998 
    101 H101       24.5878  -32.3962  -38.6655 H         1 UNK         0.0822 
    102 H102       26.2784  -33.8894  -39.6692 H         1 UNK         0.0787 
    103 H103       27.0650  -32.4803  -38.9899 H         1 UNK         0.0787 
    104 H104       26.8550  -32.6063  -40.7304 H         1 UNK         0.0787 
    105 H105       25.2503  -33.7816  -41.5352 H         1 UNK         0.3055 
    106 H106       24.2185  -34.5682  -43.2986 H         1 UNK         0.1106 
    107 H107       24.0158  -32.2161  -44.0494 H         1 UNK         0.0828 
    108 H108       22.6399  -33.1605  -44.5982 H         1 UNK         0.0828 
    109 H109       22.4603  -32.0605  -43.2418 H         1 UNK         0.0828 
    110 H110       21.8447  -33.5691  -40.8505 H         1 UNK         0.2931 
    111 H111       19.7351  -35.2608  -41.6807 H         1 UNK         0.0412 
    112 H112       20.0141  -38.4358  -40.1143 H         1 UNK         0.3472 
    113 H113       18.9530  -37.3225  -40.9367 H         1 UNK         0.3472 
    114 H114       18.6843  -34.7934  -39.5127 H         1 UNK         0.0970 
    115 H115       20.2080  -34.3269  -38.8058 H         1 UNK         0.0970 
    116 H116       18.2325  -33.6216  -42.0647 H         1 UNK         0.0612 
    117 H117       17.0949  -32.8286  -41.0009 H         1 UNK         0.0612 
@<TRIPOS>BOND
     1    1    2 1    
     2    1   62 1    
     3    1   63 1    
     4    1   64 1    
     5    2    3 2    
     6    2    4 am   BACKBONE|DICT|INTERRES
     7    4    5 1    
     8    4   65 1    
     9    5    6 1    
    10    5   25 1    
    11    5   66 1    
    12    6    7 1    
    13    6   67 1    
    14    6   68 1    
    15    7    8 1    
    16    8    9 1    
    17    8   69 1    
    18    8   70 1    
    19    9   10 ar   
    20    9   14 ar   
    21   10   11 ar   
    22   10   71 1    
    23   11   12 ar   
    24   11   61 1    
    25   12   13 ar   
    26   12   72 1    
    27   13   14 ar   
    28   13   15 1    
    29   14   73 1    
    30   15   16 1    
    31   15   74 1    
    32   15   75 1    
    33   16   17 1    
    34   17   18 1    
    35   17   76 1    
    36   17   77 1    
    37   18   19 1    
    38   18   27 1    
    39   18   78 1    
    40   19   20 am   BACKBONE|DICT|INTERRES
    41   19   79 1    
    42   20   21 2    
    43   20   22 1    
    44   22   23 1    
    45   22   24 1    
    46   22   80 1    
    47   23   81 1    
    48   23   82 1    
    49   23   83 1    
    50   24   25 am   BACKBONE|DICT|INTERRES
    51   24   84 1    
    52   25   26 2    
    53   27   28 2    
    54   27   29 am   BACKBONE|DICT|INTERRES
    55   29   30 1    
    56   29   85 1    
    57   30   31 1    
    58   30   32 1    
    59   30   86 1    
    60   31   87 1    
    61   31   88 1    
    62   31   89 1    
    63   32   33 2    
    64   32   34 am   BACKBONE|DICT|INTERRES
    65   34   35 1    
    66   34   90 1    
    67   35   36 1    
    68   35   37 1    
    69   35   91 1    
    70   36   92 1    
    71   36   93 1    
    72   36   94 1    
    73   37   38 2    
    74   37   39 am   BACKBONE|DICT|INTERRES
    75   39   40 1    
    76   39   95 1    
    77   40   41 1    
    78   40   42 1    
    79   40   96 1    
    80   41   97 1    
    81   41   98 1    
    82   41   99 1    
    83   42   43 2    
    84   42   44 am   BACKBONE|DICT|INTERRES
    85   44   45 1    
    86   44  100 1    
    87   45   46 1    
    88   45   47 1    
    89   45  101 1    
    90   46  102 1    
    91   46  103 1    
    92   46  104 1    
    93   47   48 2    
    94   47   49 am   BACKBONE|DICT|INTERRES
    95   49   50 1    
    96   49  105 1    
    97   50   51 1    
    98   50   52 1    
    99   50  106 1    
   100   51  107 1    
   101   51  108 1    
   102   51  109 1    
   103   52   53 2    
   104   52   54 am   BACKBONE|DICT|INTERRES
   105   54   55 1    
   106   54  110 1    
   107   55   56 1    
   108   55   59 1    
   109   55  111 1    
   110   56   57 am   BACKBONE|DICT|INTERRES
   111   56   58 2    
   112   57  112 1    
   113   57  113 1    
   114   59   60 1    
   115   59  114 1    
   116   59  115 1    
   117   60   61 1    
   118   61  116 1    
   119   61  117 1    
@<TRIPOS>SUBSTRUCTURE
     1 UNK         1 GROUP             0       ****    0 ROOT    
