@<TRIPOS>MOLECULE
3R8
117   119    1
SMALL
USER_CHARGES


@<TRIPOS>ATOM
      1 CA         17.2143  -22.9829  -48.3065 C.3       0 UNK        -0.2013 
      2 C          17.7032  -24.3568  -47.8730 C.2       0 UNK         0.4866 
      3 O          18.6415  -24.8866  -48.4682 O.2       0 UNK        -0.5176 
      4 N          17.0686  -24.9381  -46.8463 N.am      1 UNK        -0.4884 
      5 CA         17.4044  -26.2497  -46.2791 C.3       1 UNK         0.0853 
      6 C6         16.3462  -26.7134  -45.2480 C.3       10 UNK        -0.0849 
      7 S7         14.8487  -27.4116  -46.0222 S.3       10 UNK        -0.2776 
      8 C8         15.2959  -29.1689  -46.2908 C.3       10 UNK         0.0316 
      9 C9         16.0214  -29.8125  -45.1118 C.ar      10 UNK        -0.0863 
     10 C10        17.2615  -30.4289  -45.3063 C.ar      10 UNK        -0.1009 
     11 C11        17.9683  -30.9644  -44.2254 C.ar      10 UNK        -0.0712 
     12 C12        17.4259  -30.8834  -42.9405 C.ar      10 UNK        -0.0894 
     13 C13        16.1904  -30.2622  -42.7298 C.ar      10 UNK        -0.0745 
     14 C14        15.4822  -29.7528  -43.8225 C.ar      10 UNK        -0.0972 
     15 C15        15.6180  -30.1207  -41.3247 C.3       10 UNK         0.0209 
     16 S16        16.7884  -29.3750  -40.1385 S.3       10 UNK        -0.2568 
     17 C17        17.2374  -27.7840  -40.9226 C.3       10 UNK        -0.0983 
     18 CA         18.7535  -27.6735  -41.2446 C.3       3 UNK         0.0876 
     19 N          19.0092  -26.6276  -42.2494 N.am      3 UNK        -0.4424 
     20 C          20.1985  -26.3413  -42.8061 C.2       2 UNK         0.4918 
     21 O          21.2467  -26.9125  -42.5043 O.2       2 UNK        -0.4875 
     22 CA         20.2097  -25.1983  -43.8455 C.3       2 UNK         0.0481 
     23 CB         21.5493  -25.0881  -44.6050 C.3       2 UNK        -0.1831 
     24 N          19.0698  -25.2727  -44.7700 N.am      2 UNK        -0.4498 
     25 C          18.7967  -26.2758  -45.6209 C.2       1 UNK         0.5027 
     26 O          19.5583  -27.2109  -45.8622 O.2       1 UNK        -0.4969 
     27 C          19.5955  -27.4996  -39.9562 C.2       3 UNK         0.5005 
     28 O          19.9401  -28.4913  -39.3131 O.2       3 UNK        -0.5279 
     29 N          19.9471  -26.2474  -39.6221 N.am      4 UNK        -0.4463 
     30 CA         20.8298  -25.8844  -38.5090 C.3       4 UNK         0.0283 
     31 CB         20.8457  -24.3553  -38.3537 C.3       4 UNK        -0.1875 
     32 C          22.2675  -26.4225  -38.6478 C.2       4 UNK         0.4949 
     33 O          22.9287  -26.6272  -37.6302 O.2       4 UNK        -0.5039 
     34 N          22.7202  -26.6767  -39.8837 N.am      5 UNK        -0.4663 
     35 CA         24.0116  -27.2895  -40.1981 C.3       5 UNK         0.0242 
     36 CB         24.5957  -26.6105  -41.4517 C.3       5 UNK        -0.1982 
     37 C          23.8470  -28.8093  -40.3760 C.2       5 UNK         0.5017 
     38 O          24.3240  -29.3678  -41.3647 O.2       5 UNK        -0.5012 
     39 N          23.1659  -29.4578  -39.4198 N.am      6 UNK        -0.4439 
     40 CA         22.7715  -30.8725  -39.4375 C.3       6 UNK         0.0297 
     41 CB         22.0290  -31.2101  -38.1351 C.3       6 UNK        -0.2006 
     42 C          23.9204  -31.8702  -39.6666 C.2       6 UNK         0.4892 
     43 O          23.6998  -32.9009  -40.3019 O.2       6 UNK        -0.5089 
     44 N          25.1248  -31.5337  -39.1834 N.am      7 UNK        -0.4243 
     45 CA         26.3530  -32.3065  -39.3898 C.3       7 UNK         0.0196 
     46 CB         27.4693  -31.7271  -38.5059 C.3       7 UNK        -0.2007 
     47 C          26.8068  -32.3641  -40.8610 C.2       7 UNK         0.5020 
     48 O          27.4344  -33.3475  -41.2547 O.2       7 UNK        -0.5147 
     49 N          26.4834  -31.3250  -41.6424 N.am      8 UNK        -0.4734 
     50 CA         26.7244  -31.2668  -43.0845 C.3       8 UNK         0.0238 
     51 CB         27.1117  -29.8319  -43.4804 C.3       8 UNK        -0.1912 
     52 C          25.4887  -31.7286  -43.8714 C.2       8 UNK         0.5038 
     53 O          25.6446  -32.4142  -44.8827 O.2       8 UNK        -0.5046 
     54 N          24.2944  -31.3376  -43.4042 N.am      9 UNK        -0.4200 
     55 CA         23.0002  -31.6658  -44.0183 C.3       9 UNK         0.0839 
     56 C          22.6415  -33.1780  -43.9812 C.2       9 UNK         0.5513 
     57 N          22.9701  -33.9012  -42.9179 N.am      9 UNK        -0.7519 
     58 O          22.0687  -33.7034  -44.9319 O.2       9 UNK        -0.4960 
     59 C59        21.8566  -30.7899  -43.4353 C.3       10 UNK        -0.0876 
     60 S60        20.6130  -30.3463  -44.6913 S.3       10 UNK        -0.2414 
     61 C61        19.3265  -31.6105  -44.4475 C.3       10 UNK         0.0169 
     62 H62        16.3767  -22.6369  -47.7010 H         1 UNK         0.0903 
     63 H63        18.0194  -22.2537  -48.2192 H         1 UNK         0.0903 
     64 H64        16.8912  -23.0108  -49.3468 H         1 UNK         0.0903 
     65 H65        16.2834  -24.4646  -46.4215 H         1 UNK         0.3096 
     66 H66        17.4375  -26.9710  -47.0992 H         1 UNK         0.1121 
     67 H67        16.7593  -27.4387  -44.5468 H         1 UNK         0.0849 
     68 H68        16.0373  -25.8771  -44.6184 H         1 UNK         0.0849 
     69 H69        14.3881  -29.7362  -46.5001 H         1 UNK         0.0865 
     70 H70        15.9062  -29.2304  -47.1932 H         1 UNK         0.0865 
     71 H71        17.6953  -30.4731  -46.2962 H         1 UNK         0.1346 
     72 H72        17.9752  -31.2819  -42.0984 H         1 UNK         0.1412 
     73 H73        14.5278  -29.2676  -43.6684 H         1 UNK         0.1426 
     74 H74        15.3298  -31.1078  -40.9612 H         1 UNK         0.0716 
     75 H75        14.7082  -29.5183  -41.3348 H         1 UNK         0.0716 
     76 H76        16.9154  -26.9690  -40.2714 H         1 UNK         0.0695 
     77 H77        16.6528  -27.6752  -41.8370 H         1 UNK         0.0695 
     78 H78        19.0743  -28.6118  -41.7036 H         1 UNK         0.0983 
     79 H79        18.2072  -26.0915  -42.5440 H         1 UNK         0.3095 
     80 H80        20.0813  -24.2744  -43.2800 H         1 UNK         0.0454 
     81 H81        22.3708  -24.8849  -43.9168 H         1 UNK         0.0851 
     82 H82        21.7954  -26.0091  -45.1341 H         1 UNK         0.0851 
     83 H83        21.5284  -24.2775  -45.3330 H         1 UNK         0.0851 
     84 H84        18.3843  -24.5350  -44.6830 H         1 UNK         0.2976 
     85 H85        19.6152  -25.4914  -40.2030 H         1 UNK         0.3116 
     86 H86        20.4076  -26.3163  -37.5993 H         1 UNK         0.0646 
     87 H87        21.4720  -24.0557  -37.5121 H         1 UNK         0.0847 
     88 H88        19.8462  -23.9632  -38.1648 H         1 UNK         0.0847 
     89 H89        21.2398  -23.8622  -39.2432 H         1 UNK         0.0847 
     90 H90        22.0887  -26.5645  -40.6706 H         1 UNK         0.3040 
     91 H91        24.7141  -27.1338  -39.3765 H         1 UNK         0.1015 
     92 H92        24.6965  -25.5345  -41.3095 H         1 UNK         0.0786 
     93 H93        23.9696  -26.7755  -42.3296 H         1 UNK         0.0786 
     94 H94        25.5881  -27.0006  -41.6814 H         1 UNK         0.0786 
     95 H95        22.8001  -28.9027  -38.6579 H         1 UNK         0.3172 
     96 H96        22.0701  -30.9931  -40.2645 H         1 UNK         0.0595 
     97 H97        21.1364  -30.5958  -38.0155 H         1 UNK         0.0839 
     98 H98        22.6605  -31.0605  -37.2585 H         1 UNK         0.0839 
     99 H99        21.7036  -32.2515  -38.1293 H         1 UNK         0.0839 
    100 H100       25.2087  -30.6667  -38.6731 H         1 UNK         0.2998 
    101 H101       26.1584  -33.3323  -39.0688 H         1 UNK         0.0822 
    102 H102       27.1972  -31.7575  -37.4506 H         1 UNK         0.0787 
    103 H103       28.3913  -32.2996  -38.6173 H         1 UNK         0.0787 
    104 H104       27.6950  -30.6922  -38.7667 H         1 UNK         0.0787 
    105 H105       25.9199  -30.5772  -41.2521 H         1 UNK         0.3055 
    106 H106       27.5542  -31.9257  -43.3511 H         1 UNK         0.1106 
    107 H107       26.3195  -29.1175  -43.2527 H         1 UNK         0.0828 
    108 H108       28.0133  -29.5081  -42.9605 H         1 UNK         0.0828 
    109 H109       27.3130  -29.7644  -44.5504 H         1 UNK         0.0828 
    110 H110       24.2684  -30.7311  -42.5894 H         1 UNK         0.2931 
    111 H111       23.1156  -31.4029  -45.0721 H         1 UNK         0.0412 
    112 H112       23.3884  -33.4729  -42.0967 H         1 UNK         0.3472 
    113 H113       22.7435  -34.8826  -42.9040 H         1 UNK         0.3472 
    114 H114       22.2553  -29.8400  -43.0746 H         1 UNK         0.0970 
    115 H115       21.3860  -31.2509  -42.5655 H         1 UNK         0.0970 
    116 H116       19.5791  -32.2643  -43.6118 H         1 UNK         0.0612 
    117 H117       19.2902  -32.2499  -45.3306 H         1 UNK         0.0612 
@<TRIPOS>BOND
     1    1    2 1    
     2    1   62 1    
     3    1   63 1    
     4    1   64 1    
     5    2    3 2    
     6    2    4 am   BACKBONE|DICT|INTERRES
     7    4    5 1    
     8    4   65 1    
     9    5    6 1    
    10    5   25 1    
    11    5   66 1    
    12    6    7 1    
    13    6   67 1    
    14    6   68 1    
    15    7    8 1    
    16    8    9 1    
    17    8   69 1    
    18    8   70 1    
    19    9   10 ar   
    20    9   14 ar   
    21   10   11 ar   
    22   10   71 1    
    23   11   12 ar   
    24   11   61 1    
    25   12   13 ar   
    26   12   72 1    
    27   13   14 ar   
    28   13   15 1    
    29   14   73 1    
    30   15   16 1    
    31   15   74 1    
    32   15   75 1    
    33   16   17 1    
    34   17   18 1    
    35   17   76 1    
    36   17   77 1    
    37   18   19 1    
    38   18   27 1    
    39   18   78 1    
    40   19   20 am   BACKBONE|DICT|INTERRES
    41   19   79 1    
    42   20   21 2    
    43   20   22 1    
    44   22   23 1    
    45   22   24 1    
    46   22   80 1    
    47   23   81 1    
    48   23   82 1    
    49   23   83 1    
    50   24   25 am   BACKBONE|DICT|INTERRES
    51   24   84 1    
    52   25   26 2    
    53   27   28 2    
    54   27   29 am   BACKBONE|DICT|INTERRES
    55   29   30 1    
    56   29   85 1    
    57   30   31 1    
    58   30   32 1    
    59   30   86 1    
    60   31   87 1    
    61   31   88 1    
    62   31   89 1    
    63   32   33 2    
    64   32   34 am   BACKBONE|DICT|INTERRES
    65   34   35 1    
    66   34   90 1    
    67   35   36 1    
    68   35   37 1    
    69   35   91 1    
    70   36   92 1    
    71   36   93 1    
    72   36   94 1    
    73   37   38 2    
    74   37   39 am   BACKBONE|DICT|INTERRES
    75   39   40 1    
    76   39   95 1    
    77   40   41 1    
    78   40   42 1    
    79   40   96 1    
    80   41   97 1    
    81   41   98 1    
    82   41   99 1    
    83   42   43 2    
    84   42   44 am   BACKBONE|DICT|INTERRES
    85   44   45 1    
    86   44  100 1    
    87   45   46 1    
    88   45   47 1    
    89   45  101 1    
    90   46  102 1    
    91   46  103 1    
    92   46  104 1    
    93   47   48 2    
    94   47   49 am   BACKBONE|DICT|INTERRES
    95   49   50 1    
    96   49  105 1    
    97   50   51 1    
    98   50   52 1    
    99   50  106 1    
   100   51  107 1    
   101   51  108 1    
   102   51  109 1    
   103   52   53 2    
   104   52   54 am   BACKBONE|DICT|INTERRES
   105   54   55 1    
   106   54  110 1    
   107   55   56 1    
   108   55   59 1    
   109   55  111 1    
   110   56   57 am   BACKBONE|DICT|INTERRES
   111   56   58 2    
   112   57  112 1    
   113   57  113 1    
   114   59   60 1    
   115   59  114 1    
   116   59  115 1    
   117   60   61 1    
   118   61  116 1    
   119   61  117 1    
@<TRIPOS>SUBSTRUCTURE
     1 UNK         1 GROUP             0       ****    0 ROOT    
