@<TRIPOS>MOLECULE
3R8
117   119    1
SMALL
USER_CHARGES


@<TRIPOS>ATOM
      1 CA         15.8446  -25.1836  -43.5598 C.3       0 UNK        -0.2013 
      2 C          16.6094  -25.6335  -44.7947 C.2       0 UNK         0.4866 
      3 O          17.0667  -24.7949  -45.5723 O.2       0 UNK        -0.5176 
      4 N          16.7633  -26.9497  -44.9870 N.am      1 UNK        -0.4884 
      5 CA         17.3641  -27.5715  -46.1754 C.3       1 UNK         0.0853 
      6 C6         16.7695  -28.9754  -46.4877 C.3       10 UNK        -0.0849 
      7 S7         14.9464  -29.0362  -46.3188 S.3       10 UNK        -0.2776 
      8 C8         14.6542  -30.4044  -45.1400 C.3       10 UNK         0.0316 
      9 C9         15.6386  -30.4500  -43.9745 C.ar      10 UNK        -0.0863 
     10 C10        16.5317  -31.5231  -43.8684 C.ar      10 UNK        -0.1009 
     11 C11        17.4370  -31.5961  -42.8072 C.ar      10 UNK        -0.0712 
     12 C12        17.4270  -30.5911  -41.8373 C.ar      10 UNK        -0.0894 
     13 C13        16.5873  -29.4814  -41.9600 C.ar      10 UNK        -0.0745 
     14 C14        15.6705  -29.4295  -43.0163 C.ar      10 UNK        -0.0972 
     15 C15        16.6908  -28.3444  -40.9503 C.3       10 UNK         0.0209 
     16 S16        17.9244  -27.0874  -41.4424 S.3       10 UNK        -0.2568 
     17 C17        19.4983  -28.0052  -41.3048 C.3       10 UNK        -0.0983 
     18 CA         20.7257  -27.3031  -41.9312 C.3       3 UNK         0.0876 
     19 N          20.4745  -26.8430  -43.3029 N.am      3 UNK        -0.4424 
     20 C          21.3984  -26.6768  -44.2594 C.2       2 UNK         0.4918 
     21 O          22.5986  -26.8765  -44.0702 O.2       2 UNK        -0.4875 
     22 CA         20.9080  -26.1235  -45.6143 C.3       2 UNK         0.0481 
     23 CB         21.8051  -26.5373  -46.7977 C.3       2 UNK        -0.1831 
     24 N          19.4924  -26.4009  -45.8906 N.am      2 UNK        -0.4498 
     25 C          18.9004  -27.5964  -46.0348 C.2       1 UNK         0.5027 
     26 O          19.5029  -28.6702  -45.9964 O.2       1 UNK        -0.4969 
     27 C          21.4039  -26.2583  -41.0160 C.2       3 UNK         0.5005 
     28 O          21.5945  -26.5197  -39.8280 O.2       3 UNK        -0.5279 
     29 N          21.8862  -25.1489  -41.5978 N.am      4 UNK        -0.4463 
     30 CA         22.9623  -24.3182  -41.0452 C.3       4 UNK         0.0283 
     31 CB         23.1495  -23.0743  -41.9276 C.3       4 UNK        -0.1875 
     32 C          24.2921  -25.0941  -40.9129 C.2       4 UNK         0.4949 
     33 O          25.1045  -24.7572  -40.0531 O.2       4 UNK        -0.5039 
     34 N          24.4598  -26.1566  -41.7180 N.am      5 UNK        -0.4663 
     35 CA         25.5129  -27.1706  -41.5973 C.3       5 UNK         0.0242 
     36 CB         25.6683  -27.8740  -42.9579 C.3       5 UNK        -0.1982 
     37 C          25.2548  -28.2038  -40.4761 C.2       5 UNK         0.5017 
     38 O          25.9972  -29.1829  -40.3886 O.2       5 UNK        -0.5012 
     39 N          24.2138  -27.9913  -39.6557 N.am      6 UNK        -0.4439 
     40 CA         23.7214  -28.8614  -38.5855 C.3       6 UNK         0.0297 
     41 CB         24.7869  -29.0557  -37.4808 C.3       6 UNK        -0.2006 
     42 C          23.1344  -30.1684  -39.1500 C.2       6 UNK         0.4892 
     43 O          22.5523  -30.1505  -40.2370 O.2       6 UNK        -0.5089 
     44 N          23.2877  -31.2718  -38.4044 N.am      7 UNK        -0.4243 
     45 CA         22.7406  -32.6027  -38.6964 C.3       7 UNK         0.0196 
     46 CB         23.0057  -33.5204  -37.4908 C.3       7 UNK        -0.2007 
     47 C          23.2482  -33.2578  -39.9959 C.2       7 UNK         0.5020 
     48 O          22.6680  -34.2553  -40.4252 O.2       7 UNK        -0.5147 
     49 N          24.3054  -32.7027  -40.6044 N.am      8 UNK        -0.4734 
     50 CA         24.7755  -33.0785  -41.9391 C.3       8 UNK         0.0238 
     51 CB         26.1633  -32.4627  -42.1808 C.3       8 UNK        -0.1912 
     52 C          23.7987  -32.6561  -43.0530 C.2       8 UNK         0.5038 
     53 O          23.7140  -33.3558  -44.0637 O.2       8 UNK        -0.5046 
     54 N          23.0840  -31.5394  -42.8400 N.am      9 UNK        -0.4200 
     55 CA         22.1102  -30.9264  -43.7611 C.3       9 UNK         0.0839 
     56 C          22.7363  -30.5163  -45.1326 C.2       9 UNK         0.5513 
     57 N          21.9349  -30.1665  -46.1270 N.am      9 UNK        -0.7519 
     58 O          23.9529  -30.4736  -45.3074 O.2       9 UNK        -0.4960 
     59 C59        20.7982  -31.7637  -43.8943 C.3       10 UNK        -0.0876 
     60 S60        20.1081  -32.2718  -42.2778 S.3       10 UNK        -0.2414 
     61 C61        18.4035  -32.7715  -42.6992 C.3       10 UNK         0.0169 
     62 H62        15.0212  -24.5302  -43.8464 H         1 UNK         0.0903 
     63 H63        15.4293  -26.0263  -43.0079 H         1 UNK         0.0903 
     64 H64        16.5029  -24.6294  -42.8914 H         1 UNK         0.0903 
     65 H65        16.4105  -27.6035  -44.3025 H         1 UNK         0.3096 
     66 H66        17.1403  -26.9403  -47.0388 H         1 UNK         0.1121 
     67 H67        17.0224  -29.2603  -47.5104 H         1 UNK         0.0849 
     68 H68        17.2243  -29.7415  -45.8618 H         1 UNK         0.0849 
     69 H69        14.6784  -31.3432  -45.6955 H         1 UNK         0.0865 
     70 H70        13.6405  -30.3179  -44.7464 H         1 UNK         0.0865 
     71 H71        16.5221  -32.3059  -44.6146 H         1 UNK         0.1346 
     72 H72        18.1122  -30.6512  -41.0030 H         1 UNK         0.1412 
     73 H73        14.9894  -28.5938  -43.1012 H         1 UNK         0.1426 
     74 H74        16.9478  -28.7351  -39.9645 H         1 UNK         0.0716 
     75 H75        15.7202  -27.8586  -40.8402 H         1 UNK         0.0716 
     76 H76        19.3898  -28.9475  -41.8360 H         1 UNK         0.0695 
     77 H77        19.6734  -28.2743  -40.2615 H         1 UNK         0.0695 
     78 H78        21.4889  -28.0807  -42.0070 H         1 UNK         0.0983 
     79 H79        19.5095  -26.6413  -43.5216 H         1 UNK         0.3095 
     80 H80        20.9806  -25.0389  -45.5243 H         1 UNK         0.0454 
     81 H81        21.4834  -26.0591  -47.7226 H         1 UNK         0.0851 
     82 H82        21.7959  -27.6131  -46.9595 H         1 UNK         0.0851 
     83 H83        22.8420  -26.2445  -46.6284 H         1 UNK         0.0851 
     84 H84        18.8750  -25.5929  -45.8959 H         1 UNK         0.2976 
     85 H85        21.6705  -25.0082  -42.5736 H         1 UNK         0.3116 
     86 H86        22.6632  -23.9942  -40.0461 H         1 UNK         0.0646 
     87 H87        23.9268  -22.4243  -41.5231 H         1 UNK         0.0847 
     88 H88        22.2342  -22.4846  -41.9835 H         1 UNK         0.0847 
     89 H89        23.4435  -23.3385  -42.9443 H         1 UNK         0.0847 
     90 H90        23.7608  -26.3386  -42.4311 H         1 UNK         0.3040 
     91 H91        26.4536  -26.6693  -41.3595 H         1 UNK         0.1015 
     92 H92        25.8591  -27.1581  -43.7575 H         1 UNK         0.0786 
     93 H93        24.7738  -28.4400  -43.2232 H         1 UNK         0.0786 
     94 H94        26.5041  -28.5749  -42.9477 H         1 UNK         0.0786 
     95 H95        23.6199  -27.1927  -39.8427 H         1 UNK         0.3172 
     96 H96        22.8818  -28.3293  -38.1364 H         1 UNK         0.0595 
     97 H97        25.6137  -29.6862  -37.8102 H         1 UNK         0.0839 
     98 H98        24.3569  -29.5108  -36.5878 H         1 UNK         0.0839 
     99 H99        25.2075  -28.0988  -37.1713 H         1 UNK         0.0839 
    100 H100       23.7977  -31.1837  -37.5373 H         1 UNK         0.2998 
    101 H101       21.6602  -32.4891  -38.8094 H         1 UNK         0.0822 
    102 H102       24.0737  -33.6534  -37.3134 H         1 UNK         0.0787 
    103 H103       22.5590  -33.1210  -36.5800 H         1 UNK         0.0787 
    104 H104       22.5765  -34.5109  -37.6498 H         1 UNK         0.0787 
    105 H105       24.7285  -31.8886  -40.1810 H         1 UNK         0.3055 
    106 H106       24.8686  -34.1663  -41.9769 H         1 UNK         0.1106 
    107 H107       26.5508  -32.7496  -43.1594 H         1 UNK         0.0828 
    108 H108       26.1324  -31.3726  -42.1509 H         1 UNK         0.0828 
    109 H109       26.8841  -32.7994  -41.4356 H         1 UNK         0.0828 
    110 H110       23.1776  -31.0695  -41.9466 H         1 UNK         0.2931 
    111 H111       21.8425  -29.9832  -43.2866 H         1 UNK         0.0412 
    112 H112       20.9431  -30.0075  -45.9868 H         1 UNK         0.3472 
    113 H113       22.3528  -29.9101  -47.0063 H         1 UNK         0.3472 
    114 H114       20.0342  -31.1894  -44.4213 H         1 UNK         0.0970 
    115 H115       20.9780  -32.6608  -44.4891 H         1 UNK         0.0970 
    116 H116       18.4224  -33.3512  -43.6234 H         1 UNK         0.0612 
    117 H117       18.0392  -33.4424  -41.9205 H         1 UNK         0.0612 
@<TRIPOS>BOND
     1    1    2 1    
     2    1   62 1    
     3    1   63 1    
     4    1   64 1    
     5    2    3 2    
     6    2    4 am   BACKBONE|DICT|INTERRES
     7    4    5 1    
     8    4   65 1    
     9    5    6 1    
    10    5   25 1    
    11    5   66 1    
    12    6    7 1    
    13    6   67 1    
    14    6   68 1    
    15    7    8 1    
    16    8    9 1    
    17    8   69 1    
    18    8   70 1    
    19    9   10 ar   
    20    9   14 ar   
    21   10   11 ar   
    22   10   71 1    
    23   11   12 ar   
    24   11   61 1    
    25   12   13 ar   
    26   12   72 1    
    27   13   14 ar   
    28   13   15 1    
    29   14   73 1    
    30   15   16 1    
    31   15   74 1    
    32   15   75 1    
    33   16   17 1    
    34   17   18 1    
    35   17   76 1    
    36   17   77 1    
    37   18   19 1    
    38   18   27 1    
    39   18   78 1    
    40   19   20 am   BACKBONE|DICT|INTERRES
    41   19   79 1    
    42   20   21 2    
    43   20   22 1    
    44   22   23 1    
    45   22   24 1    
    46   22   80 1    
    47   23   81 1    
    48   23   82 1    
    49   23   83 1    
    50   24   25 am   BACKBONE|DICT|INTERRES
    51   24   84 1    
    52   25   26 2    
    53   27   28 2    
    54   27   29 am   BACKBONE|DICT|INTERRES
    55   29   30 1    
    56   29   85 1    
    57   30   31 1    
    58   30   32 1    
    59   30   86 1    
    60   31   87 1    
    61   31   88 1    
    62   31   89 1    
    63   32   33 2    
    64   32   34 am   BACKBONE|DICT|INTERRES
    65   34   35 1    
    66   34   90 1    
    67   35   36 1    
    68   35   37 1    
    69   35   91 1    
    70   36   92 1    
    71   36   93 1    
    72   36   94 1    
    73   37   38 2    
    74   37   39 am   BACKBONE|DICT|INTERRES
    75   39   40 1    
    76   39   95 1    
    77   40   41 1    
    78   40   42 1    
    79   40   96 1    
    80   41   97 1    
    81   41   98 1    
    82   41   99 1    
    83   42   43 2    
    84   42   44 am   BACKBONE|DICT|INTERRES
    85   44   45 1    
    86   44  100 1    
    87   45   46 1    
    88   45   47 1    
    89   45  101 1    
    90   46  102 1    
    91   46  103 1    
    92   46  104 1    
    93   47   48 2    
    94   47   49 am   BACKBONE|DICT|INTERRES
    95   49   50 1    
    96   49  105 1    
    97   50   51 1    
    98   50   52 1    
    99   50  106 1    
   100   51  107 1    
   101   51  108 1    
   102   51  109 1    
   103   52   53 2    
   104   52   54 am   BACKBONE|DICT|INTERRES
   105   54   55 1    
   106   54  110 1    
   107   55   56 1    
   108   55   59 1    
   109   55  111 1    
   110   56   57 am   BACKBONE|DICT|INTERRES
   111   56   58 2    
   112   57  112 1    
   113   57  113 1    
   114   59   60 1    
   115   59  114 1    
   116   59  115 1    
   117   60   61 1    
   118   61  116 1    
   119   61  117 1    
@<TRIPOS>SUBSTRUCTURE
     1 UNK         1 GROUP             0       ****    0 ROOT    
