@<TRIPOS>MOLECULE
3R8
117   119    1
SMALL
USER_CHARGES


@<TRIPOS>ATOM
      1 CA         21.7181  -24.2582  -42.6623 C.3       0 UNK        -0.2013 
      2 C          20.4718  -23.8728  -43.4458 C.2       0 UNK         0.4866 
      3 O          20.2968  -22.7014  -43.7818 O.2       0 UNK        -0.5176 
      4 N          19.6062  -24.8498  -43.7444 N.am      1 UNK        -0.4884 
      5 CA         18.3854  -24.6737  -44.5458 C.3       1 UNK         0.0853 
      6 C6         17.4187  -25.8757  -44.3828 C.3       10 UNK        -0.0849 
      7 S7         16.8757  -26.1287  -42.6622 S.3       10 UNK        -0.2776 
      8 C8         15.6457  -27.4573  -42.8684 C.3       10 UNK         0.0316 
      9 C9         16.2847  -28.8186  -43.1190 C.ar      10 UNK        -0.0863 
     10 C10        16.6968  -29.6103  -42.0404 C.ar      10 UNK        -0.1009 
     11 C11        17.2244  -30.8886  -42.2548 C.ar      10 UNK        -0.0712 
     12 C12        17.3495  -31.3651  -43.5618 C.ar      10 UNK        -0.0894 
     13 C13        16.9746  -30.5738  -44.6500 C.ar      10 UNK        -0.0745 
     14 C14        16.4270  -29.3065  -44.4231 C.ar      10 UNK        -0.0972 
     15 C15        17.1814  -31.0974  -46.0661 C.3       10 UNK         0.0209 
     16 S16        18.4321  -30.1614  -47.0130 S.3       10 UNK        -0.2568 
     17 C17        19.7576  -29.8449  -45.7895 C.3       10 UNK        -0.0983 
     18 CA         20.8785  -28.9033  -46.3095 C.3       3 UNK         0.0876 
     19 N          20.3226  -27.7463  -47.0098 N.am      3 UNK        -0.4424 
     20 C          21.0079  -26.8137  -47.6865 C.2       2 UNK         0.4918 
     21 O          22.1643  -26.9456  -48.0864 O.2       2 UNK        -0.4875 
     22 CA         20.2903  -25.4633  -47.8140 C.3       2 UNK         0.0481 
     23 CB         19.1982  -25.5528  -48.9015 C.3       2 UNK        -0.1831 
     24 N          19.7741  -25.1843  -46.4691 N.am      2 UNK        -0.4498 
     25 C          18.7141  -24.4893  -46.0426 C.2       1 UNK         0.5027 
     26 O          17.9988  -23.7794  -46.7495 O.2       1 UNK        -0.4969 
     27 C          21.7223  -28.4013  -45.1152 C.2       3 UNK         0.5005 
     28 O          21.4484  -27.3109  -44.5956 O.2       3 UNK        -0.5279 
     29 N          22.6934  -29.2077  -44.6678 N.am      4 UNK        -0.4463 
     30 CA         23.6198  -28.9016  -43.5692 C.3       4 UNK         0.0283 
     31 CB         24.8430  -29.8301  -43.6844 C.3       4 UNK        -0.1875 
     32 C          22.9645  -28.9651  -42.1718 C.2       4 UNK         0.4949 
     33 O          23.4280  -29.7018  -41.2990 O.2       4 UNK        -0.5039 
     34 N          21.8730  -28.2166  -41.9810 N.am      5 UNK        -0.4663 
     35 CA         21.1410  -28.1053  -40.7182 C.3       5 UNK         0.0242 
     36 CB         19.8696  -27.2717  -40.9256 C.3       5 UNK        -0.1982 
     37 C          22.0249  -27.5191  -39.6049 C.2       5 UNK         0.5017 
     38 O          22.8004  -26.5973  -39.8657 O.2       5 UNK        -0.5012 
     39 N          21.9126  -28.1074  -38.4061 N.am      6 UNK        -0.4439 
     40 CA         22.7778  -27.9288  -37.2292 C.3       6 UNK         0.0297 
     41 CB         22.8728  -26.4525  -36.7878 C.3       6 UNK        -0.2006 
     42 C          24.1678  -28.5917  -37.3591 C.2       6 UNK         0.4892 
     43 O          24.9486  -28.5204  -36.4093 O.2       6 UNK        -0.5089 
     44 N          24.4388  -29.2679  -38.4843 N.am      7 UNK        -0.4243 
     45 CA         25.6174  -30.1007  -38.7279 C.3       7 UNK         0.0196 
     46 CB         26.5535  -29.3898  -39.7222 C.3       7 UNK        -0.2007 
     47 C          25.1649  -31.4942  -39.2023 C.2       7 UNK         0.5020 
     48 O          25.7250  -32.0458  -40.1504 O.2       7 UNK        -0.5147 
     49 N          24.1353  -32.0272  -38.5265 N.am      8 UNK        -0.4734 
     50 CA         23.5104  -33.3469  -38.7039 C.3       8 UNK         0.0238 
     51 CB         24.5364  -34.4816  -38.4909 C.3       8 UNK        -0.1912 
     52 C          22.7014  -33.5344  -40.0043 C.2       8 UNK         0.5038 
     53 O          22.2664  -34.6571  -40.2662 O.2       8 UNK        -0.5046 
     54 N          22.4788  -32.4598  -40.7754 N.am      9 UNK        -0.4200 
     55 CA         21.6837  -32.4399  -42.0185 C.3       9 UNK         0.0839 
     56 C          22.3172  -33.2247  -43.2066 C.2       9 UNK         0.5513 
     57 N          23.6026  -33.5555  -43.1671 N.am      9 UNK        -0.7519 
     58 O          21.6488  -33.5018  -44.1988 O.2       9 UNK        -0.4960 
     59 C59        20.1802  -32.7687  -41.7920 C.3       10 UNK        -0.0876 
     60 S60        19.3774  -31.6057  -40.6326 S.3       10 UNK        -0.2414 
     61 C61        17.6182  -31.7702  -41.0758 C.3       10 UNK         0.0169 
     62 H62        21.8915  -25.3337  -42.6740 H         1 UNK         0.0903 
     63 H63        22.5965  -23.7765  -43.0909 H         1 UNK         0.0903 
     64 H64        21.6259  -23.9387  -41.6245 H         1 UNK         0.0903 
     65 H65        19.8004  -25.7955  -43.4461 H         1 UNK         0.3096 
     66 H66        17.8762  -23.7680  -44.2081 H         1 UNK         0.1121 
     67 H67        17.8902  -26.7975  -44.7294 H         1 UNK         0.0849 
     68 H68        16.5282  -25.7330  -44.9988 H         1 UNK         0.0849 
     69 H69        15.0348  -27.5067  -41.9657 H         1 UNK         0.0865 
     70 H70        14.9593  -27.2010  -43.6770 H         1 UNK         0.0865 
     71 H71        16.5889  -29.2377  -41.0308 H         1 UNK         0.1346 
     72 H72        17.7393  -32.3571  -43.7374 H         1 UNK         0.1412 
     73 H73        16.1205  -28.6998  -45.2644 H         1 UNK         0.1426 
     74 H74        17.4813  -32.1463  -46.0478 H         1 UNK         0.0716 
     75 H75        16.2331  -31.0631  -46.6041 H         1 UNK         0.0716 
     76 H76        20.1767  -30.8023  -45.4738 H         1 UNK         0.0695 
     77 H77        19.2966  -29.4070  -44.9021 H         1 UNK         0.0695 
     78 H78        21.5226  -29.4464  -47.0042 H         1 UNK         0.0983 
     79 H79        19.3664  -27.5347  -46.7706 H         1 UNK         0.3095 
     80 H80        21.0171  -24.6938  -48.0787 H         1 UNK         0.0454 
     81 H81        18.7621  -24.5766  -49.1112 H         1 UNK         0.0851 
     82 H82        18.3903  -26.2289  -48.6199 H         1 UNK         0.0851 
     83 H83        19.6149  -25.9168  -49.8416 H         1 UNK         0.0851 
     84 H84        20.2910  -25.6734  -45.7450 H         1 UNK         0.2976 
     85 H85        22.8255  -30.1005  -45.1215 H         1 UNK         0.3116 
     86 H86        23.9728  -27.8766  -43.7010 H         1 UNK         0.0646 
     87 H87        24.5727  -30.8757  -43.5364 H         1 UNK         0.0847 
     88 H88        25.5954  -29.5823  -42.9359 H         1 UNK         0.0847 
     89 H89        25.3226  -29.7403  -44.6590 H         1 UNK         0.0847 
     90 H90        21.5532  -27.6629  -42.7702 H         1 UNK         0.3040 
     91 H91        20.8440  -29.1157  -40.4341 H         1 UNK         0.1015 
     92 H92        20.0967  -26.2355  -41.1736 H         1 UNK         0.0786 
     93 H93        19.2594  -27.2608  -40.0217 H         1 UNK         0.0786 
     94 H94        19.2538  -27.6887  -41.7228 H         1 UNK         0.0786 
     95 H95        21.2202  -28.8384  -38.3089 H         1 UNK         0.3172 
     96 H96        22.2751  -28.4673  -36.4245 H         1 UNK         0.0595 
     97 H97        23.4679  -25.8553  -37.4788 H         1 UNK         0.0839 
     98 H98        23.3461  -26.3706  -35.8086 H         1 UNK         0.0839 
     99 H99        21.8866  -25.9952  -36.7087 H         1 UNK         0.0839 
    100 H100       23.7643  -29.2594  -39.2415 H         1 UNK         0.2998 
    101 H101       26.1684  -30.2599  -37.7987 H         1 UNK         0.0822 
    102 H102       26.8893  -28.4303  -39.3290 H         1 UNK         0.0787 
    103 H103       27.4433  -29.9876  -39.9235 H         1 UNK         0.0787 
    104 H104       26.0580  -29.2042  -40.6743 H         1 UNK         0.0787 
    105 H105       23.7446  -31.4685  -37.7801 H         1 UNK         0.3055 
    106 H106       22.7740  -33.4291  -37.9027 H         1 UNK         0.1106 
    107 H107       24.0439  -35.4540  -38.4500 H         1 UNK         0.0828 
    108 H108       25.2674  -34.5260  -39.2986 H         1 UNK         0.0828 
    109 H109       25.0780  -34.3578  -37.5533 H         1 UNK         0.0828 
    110 H110       22.9217  -31.5803  -40.5382 H         1 UNK         0.2931 
    111 H111       21.7072  -31.4089  -42.3626 H         1 UNK         0.0412 
    112 H112       24.1648  -33.3179  -42.3640 H         1 UNK         0.3472 
    113 H113       24.0100  -34.0544  -43.9420 H         1 UNK         0.3472 
    114 H114       20.0514  -33.7870  -41.4232 H         1 UNK         0.0970 
    115 H115       19.6514  -32.7255  -42.7415 H         1 UNK         0.0970 
    116 H116       17.3897  -32.8156  -41.2890 H         1 UNK         0.0612 
    117 H117       17.0184  -31.5038  -40.2043 H         1 UNK         0.0612 
@<TRIPOS>BOND
     1    1    2 1    
     2    1   62 1    
     3    1   63 1    
     4    1   64 1    
     5    2    3 2    
     6    2    4 am   BACKBONE|DICT|INTERRES
     7    4    5 1    
     8    4   65 1    
     9    5    6 1    
    10    5   25 1    
    11    5   66 1    
    12    6    7 1    
    13    6   67 1    
    14    6   68 1    
    15    7    8 1    
    16    8    9 1    
    17    8   69 1    
    18    8   70 1    
    19    9   10 ar   
    20    9   14 ar   
    21   10   11 ar   
    22   10   71 1    
    23   11   12 ar   
    24   11   61 1    
    25   12   13 ar   
    26   12   72 1    
    27   13   14 ar   
    28   13   15 1    
    29   14   73 1    
    30   15   16 1    
    31   15   74 1    
    32   15   75 1    
    33   16   17 1    
    34   17   18 1    
    35   17   76 1    
    36   17   77 1    
    37   18   19 1    
    38   18   27 1    
    39   18   78 1    
    40   19   20 am   BACKBONE|DICT|INTERRES
    41   19   79 1    
    42   20   21 2    
    43   20   22 1    
    44   22   23 1    
    45   22   24 1    
    46   22   80 1    
    47   23   81 1    
    48   23   82 1    
    49   23   83 1    
    50   24   25 am   BACKBONE|DICT|INTERRES
    51   24   84 1    
    52   25   26 2    
    53   27   28 2    
    54   27   29 am   BACKBONE|DICT|INTERRES
    55   29   30 1    
    56   29   85 1    
    57   30   31 1    
    58   30   32 1    
    59   30   86 1    
    60   31   87 1    
    61   31   88 1    
    62   31   89 1    
    63   32   33 2    
    64   32   34 am   BACKBONE|DICT|INTERRES
    65   34   35 1    
    66   34   90 1    
    67   35   36 1    
    68   35   37 1    
    69   35   91 1    
    70   36   92 1    
    71   36   93 1    
    72   36   94 1    
    73   37   38 2    
    74   37   39 am   BACKBONE|DICT|INTERRES
    75   39   40 1    
    76   39   95 1    
    77   40   41 1    
    78   40   42 1    
    79   40   96 1    
    80   41   97 1    
    81   41   98 1    
    82   41   99 1    
    83   42   43 2    
    84   42   44 am   BACKBONE|DICT|INTERRES
    85   44   45 1    
    86   44  100 1    
    87   45   46 1    
    88   45   47 1    
    89   45  101 1    
    90   46  102 1    
    91   46  103 1    
    92   46  104 1    
    93   47   48 2    
    94   47   49 am   BACKBONE|DICT|INTERRES
    95   49   50 1    
    96   49  105 1    
    97   50   51 1    
    98   50   52 1    
    99   50  106 1    
   100   51  107 1    
   101   51  108 1    
   102   51  109 1    
   103   52   53 2    
   104   52   54 am   BACKBONE|DICT|INTERRES
   105   54   55 1    
   106   54  110 1    
   107   55   56 1    
   108   55   59 1    
   109   55  111 1    
   110   56   57 am   BACKBONE|DICT|INTERRES
   111   56   58 2    
   112   57  112 1    
   113   57  113 1    
   114   59   60 1    
   115   59  114 1    
   116   59  115 1    
   117   60   61 1    
   118   61  116 1    
   119   61  117 1    
@<TRIPOS>SUBSTRUCTURE
     1 UNK         1 GROUP             0       ****    0 ROOT    
