@<TRIPOS>MOLECULE
3R8
117   119    1
SMALL
USER_CHARGES


@<TRIPOS>ATOM
      1 CA         16.7275  -25.1899  -46.1194 C.3       0 UNK        -0.2013 
      2 C          15.3589  -25.5111  -45.5284 C.2       0 UNK         0.4866 
      3 O          14.4336  -24.7176  -45.6850 O.2       0 UNK        -0.5176 
      4 N          15.1745  -26.6422  -44.8332 N.am      1 UNK        -0.4884 
      5 CA         16.1668  -27.6922  -44.5472 C.3       1 UNK         0.0853 
      6 C6         15.5350  -29.1069  -44.6130 C.3       10 UNK        -0.0849 
      7 S7         15.0995  -29.5283  -46.3369 S.3       10 UNK        -0.2776 
      8 C8         16.2486  -30.8958  -46.7318 C.3       10 UNK         0.0316 
      9 C9         17.7077  -30.6109  -46.3810 C.ar      10 UNK        -0.0863 
     10 C10        18.4277  -31.5346  -45.6156 C.ar      10 UNK        -0.1009 
     11 C11        19.7609  -31.2925  -45.2715 C.ar      10 UNK        -0.0712 
     12 C12        20.3772  -30.1167  -45.7034 C.ar      10 UNK        -0.0894 
     13 C13        19.6667  -29.1746  -46.4523 C.ar      10 UNK        -0.0745 
     14 C14        18.3411  -29.4394  -46.8118 C.ar      10 UNK        -0.0972 
     15 C15        20.3291  -27.8660  -46.8592 C.3       10 UNK         0.0209 
     16 S16        20.0907  -26.5686  -45.6003 S.3       10 UNK        -0.2568 
     17 C17        21.2182  -27.1321  -44.2831 C.3       10 UNK        -0.0983 
     18 CA         21.2189  -26.2200  -43.0283 C.3       3 UNK         0.0876 
     19 N          19.9457  -26.2799  -42.3181 N.am      3 UNK        -0.4424 
     20 C          19.0253  -25.3163  -42.2687 C.2       2 UNK         0.4918 
     21 O          19.1668  -24.1969  -42.7639 O.2       2 UNK        -0.4875 
     22 CA         17.6843  -25.7045  -41.6193 C.3       2 UNK         0.0481 
     23 CB         17.0022  -24.5069  -40.9351 C.3       2 UNK        -0.1831 
     24 N          16.7980  -26.2383  -42.6539 N.am      2 UNK        -0.4498 
     25 C          16.9332  -27.4424  -43.2306 C.2       1 UNK         0.5027 
     26 O          17.6634  -28.3251  -42.7819 O.2       1 UNK        -0.4969 
     27 C          22.2963  -26.6490  -42.0225 C.2       3 UNK         0.5005 
     28 O          22.7940  -27.7720  -42.1013 O.2       3 UNK        -0.5279 
     29 N          22.6226  -25.7600  -41.0727 N.am      4 UNK        -0.4463 
     30 CA         23.5305  -26.0102  -39.9420 C.3       4 UNK         0.0283 
     31 CB         23.5841  -24.7554  -39.0553 C.3       4 UNK        -0.1875 
     32 C          24.9570  -26.4646  -40.3143 C.2       4 UNK         0.4949 
     33 O          25.6376  -27.0550  -39.4753 O.2       4 UNK        -0.5039 
     34 N          25.3845  -26.1902  -41.5534 N.am      5 UNK        -0.4663 
     35 CA         26.6484  -26.6596  -42.1224 C.3       5 UNK         0.0242 
     36 CB         26.9914  -25.7952  -43.3471 C.3       5 UNK        -0.1982 
     37 C          26.6380  -28.1530  -42.5064 C.2       5 UNK         0.5017 
     38 O          27.7179  -28.7283  -42.6500 O.2       5 UNK        -0.5012 
     39 N          25.4513  -28.7512  -42.6866 N.am      6 UNK        -0.4439 
     40 CA         25.2760  -30.1595  -43.0381 C.3       6 UNK         0.0297 
     41 CB         24.1386  -30.2864  -44.0639 C.3       6 UNK        -0.2006 
     42 C          24.9744  -30.9825  -41.7779 C.2       6 UNK         0.4892 
     43 O          24.2822  -30.5046  -40.8751 O.2       6 UNK        -0.5089 
     44 N          25.4962  -32.2157  -41.7473 N.am      7 UNK        -0.4243 
     45 CA         25.3623  -33.1570  -40.6341 C.3       7 UNK         0.0196 
     46 CB         26.2058  -34.4105  -40.9201 C.3       7 UNK        -0.2007 
     47 C          23.8965  -33.5361  -40.3673 C.2       7 UNK         0.5020 
     48 O          23.2076  -33.9777  -41.2879 O.2       7 UNK        -0.5147 
     49 N          23.4655  -33.3499  -39.1119 N.am      8 UNK        -0.4734 
     50 CA         22.1262  -33.6202  -38.5658 C.3       8 UNK         0.0238 
     51 CB         21.7799  -35.1215  -38.6722 C.3       8 UNK        -0.1912 
     52 C          20.9939  -32.7274  -39.1188 C.2       8 UNK         0.5038 
     53 O          19.8338  -32.9801  -38.7879 O.2       8 UNK        -0.5046 
     54 N          21.3305  -31.6986  -39.9078 N.am      9 UNK        -0.4200 
     55 CA         20.3843  -30.7381  -40.5028 C.3       9 UNK         0.0839 
     56 C          20.5312  -29.3031  -39.9228 C.2       9 UNK         0.5513 
     57 N          21.3533  -29.0743  -38.9055 N.am      9 UNK        -0.7519 
     58 O          19.8574  -28.3821  -40.3746 O.2       9 UNK        -0.4960 
     59 C59        20.4453  -30.7617  -42.0535 C.3       10 UNK        -0.0876 
     60 S60        19.9287  -32.3810  -42.7221 S.3       10 UNK        -0.2414 
     61 C61        20.5347  -32.3021  -44.4356 C.3       10 UNK         0.0169 
     62 H62        16.7091  -24.2239  -46.6236 H         1 UNK         0.0903 
     63 H63        17.0226  -25.9388  -46.8539 H         1 UNK         0.0903 
     64 H64        17.4859  -25.1379  -45.3393 H         1 UNK         0.0903 
     65 H65        14.2528  -26.8211  -44.4592 H         1 UNK         0.3096 
     66 H66        16.9479  -27.6622  -45.3057 H         1 UNK         0.1121 
     67 H67        16.2103  -29.8707  -44.2231 H         1 UNK         0.0849 
     68 H68        14.6379  -29.1600  -43.9941 H         1 UNK         0.0849 
     69 H69        15.8990  -31.7914  -46.2157 H         1 UNK         0.0865 
     70 H70        16.1807  -31.1146  -47.7982 H         1 UNK         0.0865 
     71 H71        17.9517  -32.4443  -45.2754 H         1 UNK         0.1346 
     72 H72        21.4072  -29.9233  -45.4390 H         1 UNK         0.1412 
     73 H73        17.7908  -28.7196  -47.4023 H         1 UNK         0.1426 
     74 H74        19.9104  -27.5180  -47.8046 H         1 UNK         0.0716 
     75 H75        21.3955  -28.0154  -47.0356 H         1 UNK         0.0716 
     76 H76        20.9331  -28.1427  -43.9909 H         1 UNK         0.0695 
     77 H77        22.2204  -27.1998  -44.7111 H         1 UNK         0.0695 
     78 H78        21.4445  -25.1977  -43.3397 H         1 UNK         0.0983 
     79 H79        19.7604  -27.1535  -41.8272 H         1 UNK         0.3095 
     80 H80        17.8624  -26.4714  -40.8624 H         1 UNK         0.0454 
     81 H81        16.7624  -23.7125  -41.6431 H         1 UNK         0.0851 
     82 H82        16.0770  -24.8068  -40.4432 H         1 UNK         0.0851 
     83 H83        17.6504  -24.0768  -40.1705 H         1 UNK         0.0851 
     84 H84        16.1656  -25.5811  -43.0871 H         1 UNK         0.2976 
     85 H85        22.1546  -24.8645  -41.0793 H         1 UNK         0.3116 
     86 H86        23.0918  -26.8197  -39.3564 H         1 UNK         0.0646 
     87 H87        24.2244  -24.9168  -38.1867 H         1 UNK         0.0847 
     88 H88        22.5960  -24.4901  -38.6788 H         1 UNK         0.0847 
     89 H89        23.9818  -23.8961  -39.5965 H         1 UNK         0.0847 
     90 H90        24.7603  -25.6937  -42.1719 H         1 UNK         0.3040 
     91 H91        27.4349  -26.5234  -41.3765 H         1 UNK         0.1015 
     92 H92        27.0743  -24.7416  -43.0793 H         1 UNK         0.0786 
     93 H93        26.2373  -25.8862  -44.1300 H         1 UNK         0.0786 
     94 H94        27.9475  -26.0932  -43.7799 H         1 UNK         0.0786 
     95 H95        24.5964  -28.2545  -42.4414 H         1 UNK         0.3172 
     96 H96        26.1868  -30.5461  -43.5005 H         1 UNK         0.0595 
     97 H97        23.9583  -31.3304  -44.3225 H         1 UNK         0.0839 
     98 H98        24.3803  -29.7600  -44.9873 H         1 UNK         0.0839 
     99 H99        23.2054  -29.8739  -43.6838 H         1 UNK         0.0839 
    100 H100       26.0188  -32.5403  -42.5480 H         1 UNK         0.2998 
    101 H101       25.7707  -32.6694  -39.7461 H         1 UNK         0.0822 
    102 H102       25.8706  -34.9252  -41.8217 H         1 UNK         0.0787 
    103 H103       27.2597  -34.1616  -41.0464 H         1 UNK         0.0787 
    104 H104       26.1385  -35.1217  -40.0956 H         1 UNK         0.0787 
    105 H105       24.1213  -32.9593  -38.4480 H         1 UNK         0.3055 
    106 H106       22.1868  -33.3787  -37.5033 H         1 UNK         0.1106 
    107 H107       21.6186  -35.4286  -39.7059 H         1 UNK         0.0828 
    108 H108       22.5721  -35.7435  -38.2559 H         1 UNK         0.0828 
    109 H109       20.8672  -35.3538  -38.1220 H         1 UNK         0.0828 
    110 H110       22.3067  -31.5453  -40.1271 H         1 UNK         0.2931 
    111 H111       19.3663  -31.0211  -40.2298 H         1 UNK         0.0412 
    112 H112       21.9109  -29.8181  -38.5189 H         1 UNK         0.3472 
    113 H113       21.4153  -28.1443  -38.5257 H         1 UNK         0.3472 
    114 H114       19.7904  -30.0018  -42.4845 H         1 UNK         0.0970 
    115 H115       21.4546  -30.5283  -42.3916 H         1 UNK         0.0970 
    116 H116       21.6014  -32.0757  -44.4296 H         1 UNK         0.0612 
    117 H117       20.4343  -33.2897  -44.8876 H         1 UNK         0.0612 
@<TRIPOS>BOND
     1    1    2 1    
     2    1   62 1    
     3    1   63 1    
     4    1   64 1    
     5    2    3 2    
     6    2    4 am   BACKBONE|DICT|INTERRES
     7    4    5 1    
     8    4   65 1    
     9    5    6 1    
    10    5   25 1    
    11    5   66 1    
    12    6    7 1    
    13    6   67 1    
    14    6   68 1    
    15    7    8 1    
    16    8    9 1    
    17    8   69 1    
    18    8   70 1    
    19    9   10 ar   
    20    9   14 ar   
    21   10   11 ar   
    22   10   71 1    
    23   11   12 ar   
    24   11   61 1    
    25   12   13 ar   
    26   12   72 1    
    27   13   14 ar   
    28   13   15 1    
    29   14   73 1    
    30   15   16 1    
    31   15   74 1    
    32   15   75 1    
    33   16   17 1    
    34   17   18 1    
    35   17   76 1    
    36   17   77 1    
    37   18   19 1    
    38   18   27 1    
    39   18   78 1    
    40   19   20 am   BACKBONE|DICT|INTERRES
    41   19   79 1    
    42   20   21 2    
    43   20   22 1    
    44   22   23 1    
    45   22   24 1    
    46   22   80 1    
    47   23   81 1    
    48   23   82 1    
    49   23   83 1    
    50   24   25 am   BACKBONE|DICT|INTERRES
    51   24   84 1    
    52   25   26 2    
    53   27   28 2    
    54   27   29 am   BACKBONE|DICT|INTERRES
    55   29   30 1    
    56   29   85 1    
    57   30   31 1    
    58   30   32 1    
    59   30   86 1    
    60   31   87 1    
    61   31   88 1    
    62   31   89 1    
    63   32   33 2    
    64   32   34 am   BACKBONE|DICT|INTERRES
    65   34   35 1    
    66   34   90 1    
    67   35   36 1    
    68   35   37 1    
    69   35   91 1    
    70   36   92 1    
    71   36   93 1    
    72   36   94 1    
    73   37   38 2    
    74   37   39 am   BACKBONE|DICT|INTERRES
    75   39   40 1    
    76   39   95 1    
    77   40   41 1    
    78   40   42 1    
    79   40   96 1    
    80   41   97 1    
    81   41   98 1    
    82   41   99 1    
    83   42   43 2    
    84   42   44 am   BACKBONE|DICT|INTERRES
    85   44   45 1    
    86   44  100 1    
    87   45   46 1    
    88   45   47 1    
    89   45  101 1    
    90   46  102 1    
    91   46  103 1    
    92   46  104 1    
    93   47   48 2    
    94   47   49 am   BACKBONE|DICT|INTERRES
    95   49   50 1    
    96   49  105 1    
    97   50   51 1    
    98   50   52 1    
    99   50  106 1    
   100   51  107 1    
   101   51  108 1    
   102   51  109 1    
   103   52   53 2    
   104   52   54 am   BACKBONE|DICT|INTERRES
   105   54   55 1    
   106   54  110 1    
   107   55   56 1    
   108   55   59 1    
   109   55  111 1    
   110   56   57 am   BACKBONE|DICT|INTERRES
   111   56   58 2    
   112   57  112 1    
   113   57  113 1    
   114   59   60 1    
   115   59  114 1    
   116   59  115 1    
   117   60   61 1    
   118   61  116 1    
   119   61  117 1    
@<TRIPOS>SUBSTRUCTURE
     1 UNK         1 GROUP             0       ****    0 ROOT    
