@<TRIPOS>MOLECULE
3R8
117   119    1
SMALL
USER_CHARGES


@<TRIPOS>ATOM
      1 CA         16.3577  -22.7857  -42.1529 C.3       0 UNK        -0.2013 
      2 C          15.7048  -24.0576  -41.6182 C.2       0 UNK         0.4866 
      3 O          15.1584  -24.0293  -40.5171 O.2       0 UNK        -0.5176 
      4 N          15.7076  -25.1866  -42.3418 N.am      1 UNK        -0.4884 
      5 CA         16.3788  -25.4577  -43.6189 C.3       1 UNK         0.0853 
      6 C6         15.8487  -26.7576  -44.2868 C.3       10 UNK        -0.0849 
      7 S7         15.6685  -28.1904  -43.1566 S.3       10 UNK        -0.2776 
      8 C8         15.4874  -29.5778  -44.3230 C.3       10 UNK         0.0316 
      9 C9         16.8418  -30.0604  -44.8170 C.ar      10 UNK        -0.0863 
     10 C10        17.5406  -31.0448  -44.1140 C.ar      10 UNK        -0.1009 
     11 C11        18.8013  -31.4678  -44.5477 C.ar      10 UNK        -0.0712 
     12 C12        19.3706  -30.8808  -45.6833 C.ar      10 UNK        -0.0894 
     13 C13        18.6864  -29.8849  -46.3878 C.ar      10 UNK        -0.0745 
     14 C14        17.4058  -29.5111  -45.9688 C.ar      10 UNK        -0.0972 
     15 C15        19.3207  -29.2073  -47.5974 C.3       10 UNK         0.0209 
     16 S16        19.2016  -27.3887  -47.4832 S.3       10 UNK        -0.2568 
     17 C17        20.9319  -26.8504  -47.2648 C.3       10 UNK        -0.0983 
     18 CA         21.5669  -27.0380  -45.8542 C.3       3 UNK         0.0876 
     19 N          20.6039  -26.8941  -44.7562 N.am      3 UNK        -0.4424 
     20 C          20.9207  -26.4677  -43.5278 C.2       2 UNK         0.4918 
     21 O          22.0100  -25.9650  -43.2490 O.2       2 UNK        -0.4875 
     22 CA         19.8598  -26.6506  -42.4203 C.3       2 UNK         0.0481 
     23 CB         20.1353  -25.7658  -41.1869 C.3       2 UNK        -0.1831 
     24 N          18.4648  -26.4953  -42.8522 N.am      2 UNK        -0.4498 
     25 C          17.9134  -25.4338  -43.4573 C.2       1 UNK         0.5027 
     26 O          18.5453  -24.4477  -43.8381 O.2       1 UNK        -0.4969 
     27 C          22.3446  -28.3647  -45.7169 C.2       3 UNK         0.5005 
     28 O          21.9952  -29.2003  -44.8825 O.2       3 UNK        -0.5279 
     29 N          23.3884  -28.5355  -46.5438 N.am      4 UNK        -0.4463 
     30 CA         24.2909  -29.6929  -46.5866 C.3       4 UNK         0.0283 
     31 CB         23.5441  -30.9602  -47.0667 C.3       4 UNK        -0.1875 
     32 C          25.0415  -29.8623  -45.2511 C.2       4 UNK         0.4949 
     33 O          25.7956  -28.9632  -44.8732 O.2       4 UNK        -0.5039 
     34 N          24.8271  -30.9840  -44.5518 N.am      5 UNK        -0.4663 
     35 CA         25.3885  -31.2862  -43.2335 C.3       5 UNK         0.0242 
     36 CB         25.3240  -32.8083  -43.0054 C.3       5 UNK        -0.1982 
     37 C          24.6644  -30.4980  -42.1260 C.2       5 UNK         0.5017 
     38 O          23.9902  -31.0965  -41.2876 O.2       5 UNK        -0.5012 
     39 N          24.8134  -29.1665  -42.1496 N.am      6 UNK        -0.4439 
     40 CA         24.1256  -28.1779  -41.3078 C.3       6 UNK         0.0297 
     41 CB         24.7201  -26.7886  -41.5846 C.3       6 UNK        -0.2006 
     42 C          24.1369  -28.4614  -39.7948 C.2       6 UNK         0.4892 
     43 O          23.1568  -28.1484  -39.1199 O.2       6 UNK        -0.5089 
     44 N          25.2208  -29.0721  -39.2955 N.am      7 UNK        -0.4243 
     45 CA         25.3714  -29.5023  -37.9023 C.3       7 UNK         0.0196 
     46 CB         26.8212  -29.9580  -37.6708 C.3       7 UNK        -0.2007 
     47 C          24.3869  -30.6111  -37.4813 C.2       7 UNK         0.5020 
     48 O          24.0514  -30.6931  -36.2993 O.2       7 UNK        -0.5147 
     49 N          23.9457  -31.4364  -38.4393 N.am      8 UNK        -0.4734 
     50 CA         22.9414  -32.4825  -38.2439 C.3       8 UNK         0.0238 
     51 CB         23.3889  -33.7587  -38.9769 C.3       8 UNK        -0.1912 
     52 C          21.5658  -32.0264  -38.7514 C.2       8 UNK         0.5038 
     53 O          20.5627  -32.2894  -38.0868 O.2       8 UNK        -0.5046 
     54 N          21.5427  -31.3660  -39.9163 N.am      9 UNK        -0.4200 
     55 CA         20.3298  -30.8722  -40.5821 C.3       9 UNK         0.0839 
     56 C          19.6312  -29.6843  -39.8636 C.2       9 UNK         0.5513 
     57 N          20.3304  -28.8660  -39.0875 N.am      9 UNK        -0.7519 
     58 O          18.4266  -29.5037  -40.0158 O.2       9 UNK        -0.4960 
     59 C59        20.5962  -30.5285  -42.0679 C.3       10 UNK        -0.0876 
     60 S60        21.1201  -31.9718  -43.0579 S.3       10 UNK        -0.2414 
     61 C61        19.5463  -32.5492  -43.7733 C.3       10 UNK         0.0169 
     62 H62        15.9296  -21.9095  -41.6658 H         1 UNK         0.0903 
     63 H63        17.4274  -22.7914  -41.9446 H         1 UNK         0.0903 
     64 H64        16.2090  -22.6630  -43.2245 H         1 UNK         0.0903 
     65 H65        15.2587  -26.0001  -41.9432 H         1 UNK         0.3096 
     66 H66        16.1331  -24.6451  -44.3053 H         1 UNK         0.1121 
     67 H67        14.8622  -26.5603  -44.7097 H         1 UNK         0.0849 
     68 H68        16.4772  -27.0243  -45.1363 H         1 UNK         0.0849 
     69 H69        14.9665  -30.3944  -43.8205 H         1 UNK         0.0865 
     70 H70        14.8517  -29.2831  -45.1595 H         1 UNK         0.0865 
     71 H71        17.1050  -31.4745  -43.2221 H         1 UNK         0.1346 
     72 H72        20.3585  -31.1853  -45.9993 H         1 UNK         0.1412 
     73 H73        16.8611  -28.7627  -46.5270 H         1 UNK         0.1426 
     74 H74        18.7992  -29.5379  -48.4965 H         1 UNK         0.0716 
     75 H75        20.3624  -29.5090  -47.7154 H         1 UNK         0.0716 
     76 H76        21.5383  -27.2926  -48.0572 H         1 UNK         0.0695 
     77 H77        20.9304  -25.7824  -47.4877 H         1 UNK         0.0695 
     78 H78        22.3190  -26.2530  -45.7446 H         1 UNK         0.0983 
     79 H79        19.7046  -27.3264  -44.9091 H         1 UNK         0.3095 
     80 H80        19.9524  -27.6863  -42.0977 H         1 UNK         0.0454 
     81 H81        21.1168  -25.9804  -40.7613 H         1 UNK         0.0851 
     82 H82        19.4014  -25.9425  -40.4008 H         1 UNK         0.0851 
     83 H83        20.1113  -24.7051  -41.4389 H         1 UNK         0.0851 
     84 H84        17.8416  -27.2557  -42.6068 H         1 UNK         0.2976 
     85 H85        23.6318  -27.7798  -47.1694 H         1 UNK         0.3116 
     86 H86        25.0524  -29.4619  -47.3330 H         1 UNK         0.0646 
     87 H87        22.7597  -31.2700  -46.3758 H         1 UNK         0.0847 
     88 H88        23.0767  -30.7931  -48.0371 H         1 UNK         0.0847 
     89 H89        24.2308  -31.7993  -47.1858 H         1 UNK         0.0847 
     90 H90        24.1368  -31.6329  -44.9011 H         1 UNK         0.3040 
     91 H91        26.4393  -30.9884  -43.2171 H         1 UNK         0.1015 
     92 H92        25.7505  -33.0767  -42.0379 H         1 UNK         0.0786 
     93 H93        25.8860  -33.3486  -43.7673 H         1 UNK         0.0786 
     94 H94        24.2968  -33.1759  -43.0211 H         1 UNK         0.0786 
     95 H95        25.3467  -28.7955  -42.9304 H         1 UNK         0.3172 
     96 H96        23.0819  -28.1673  -41.6261 H         1 UNK         0.0595 
     97 H97        25.7718  -26.7334  -41.3011 H         1 UNK         0.0839 
     98 H98        24.1873  -26.0185  -41.0246 H         1 UNK         0.0839 
     99 H99        24.6424  -26.5264  -42.6401 H         1 UNK         0.0839 
    100 H100       25.9752  -29.2952  -39.9282 H         1 UNK         0.2998 
    101 H101       25.1773  -28.6367  -37.2650 H         1 UNK         0.0822 
    102 H102       26.9744  -30.2587  -36.6332 H         1 UNK         0.0787 
    103 H103       27.5288  -29.1557  -37.8811 H         1 UNK         0.0787 
    104 H104       27.0813  -30.8111  -38.2989 H         1 UNK         0.0787 
    105 H105       24.2321  -31.2669  -39.3996 H         1 UNK         0.3055 
    106 H106       22.8421  -32.7194  -37.1820 H         1 UNK         0.1106 
    107 H107       24.3403  -34.1233  -38.5897 H         1 UNK         0.0828 
    108 H108       22.6585  -34.5586  -38.8482 H         1 UNK         0.0828 
    109 H109       23.5059  -33.5930  -40.0489 H         1 UNK         0.0828 
    110 H110       22.4147  -31.2301  -40.4222 H         1 UNK         0.2931 
    111 H111       19.6091  -31.6925  -40.5687 H         1 UNK         0.0412 
    112 H112       19.8530  -28.1118  -38.6218 H         1 UNK         0.3472 
    113 H113       21.3391  -28.9381  -39.0106 H         1 UNK         0.3472 
    114 H114       19.7169  -30.0755  -42.5257 H         1 UNK         0.0970 
    115 H115       21.3820  -29.7761  -42.1456 H         1 UNK         0.0970 
    116 H116       18.9263  -32.9463  -42.9681 H         1 UNK         0.0612 
    117 H117       19.7526  -33.3855  -44.4422 H         1 UNK         0.0612 
@<TRIPOS>BOND
     1    1    2 1    
     2    1   62 1    
     3    1   63 1    
     4    1   64 1    
     5    2    3 2    
     6    2    4 am   BACKBONE|DICT|INTERRES
     7    4    5 1    
     8    4   65 1    
     9    5    6 1    
    10    5   25 1    
    11    5   66 1    
    12    6    7 1    
    13    6   67 1    
    14    6   68 1    
    15    7    8 1    
    16    8    9 1    
    17    8   69 1    
    18    8   70 1    
    19    9   10 ar   
    20    9   14 ar   
    21   10   11 ar   
    22   10   71 1    
    23   11   12 ar   
    24   11   61 1    
    25   12   13 ar   
    26   12   72 1    
    27   13   14 ar   
    28   13   15 1    
    29   14   73 1    
    30   15   16 1    
    31   15   74 1    
    32   15   75 1    
    33   16   17 1    
    34   17   18 1    
    35   17   76 1    
    36   17   77 1    
    37   18   19 1    
    38   18   27 1    
    39   18   78 1    
    40   19   20 am   BACKBONE|DICT|INTERRES
    41   19   79 1    
    42   20   21 2    
    43   20   22 1    
    44   22   23 1    
    45   22   24 1    
    46   22   80 1    
    47   23   81 1    
    48   23   82 1    
    49   23   83 1    
    50   24   25 am   BACKBONE|DICT|INTERRES
    51   24   84 1    
    52   25   26 2    
    53   27   28 2    
    54   27   29 am   BACKBONE|DICT|INTERRES
    55   29   30 1    
    56   29   85 1    
    57   30   31 1    
    58   30   32 1    
    59   30   86 1    
    60   31   87 1    
    61   31   88 1    
    62   31   89 1    
    63   32   33 2    
    64   32   34 am   BACKBONE|DICT|INTERRES
    65   34   35 1    
    66   34   90 1    
    67   35   36 1    
    68   35   37 1    
    69   35   91 1    
    70   36   92 1    
    71   36   93 1    
    72   36   94 1    
    73   37   38 2    
    74   37   39 am   BACKBONE|DICT|INTERRES
    75   39   40 1    
    76   39   95 1    
    77   40   41 1    
    78   40   42 1    
    79   40   96 1    
    80   41   97 1    
    81   41   98 1    
    82   41   99 1    
    83   42   43 2    
    84   42   44 am   BACKBONE|DICT|INTERRES
    85   44   45 1    
    86   44  100 1    
    87   45   46 1    
    88   45   47 1    
    89   45  101 1    
    90   46  102 1    
    91   46  103 1    
    92   46  104 1    
    93   47   48 2    
    94   47   49 am   BACKBONE|DICT|INTERRES
    95   49   50 1    
    96   49  105 1    
    97   50   51 1    
    98   50   52 1    
    99   50  106 1    
   100   51  107 1    
   101   51  108 1    
   102   51  109 1    
   103   52   53 2    
   104   52   54 am   BACKBONE|DICT|INTERRES
   105   54   55 1    
   106   54  110 1    
   107   55   56 1    
   108   55   59 1    
   109   55  111 1    
   110   56   57 am   BACKBONE|DICT|INTERRES
   111   56   58 2    
   112   57  112 1    
   113   57  113 1    
   114   59   60 1    
   115   59  114 1    
   116   59  115 1    
   117   60   61 1    
   118   61  116 1    
   119   61  117 1    
@<TRIPOS>SUBSTRUCTURE
     1 UNK         1 GROUP             0       ****    0 ROOT    
