@<TRIPOS>MOLECULE
3R8
117   119    1
SMALL
USER_CHARGES


@<TRIPOS>ATOM
      1 CA         14.2754  -23.4937  -45.2345 C.3       0 UNK        -0.2013 
      2 C          15.4727  -24.4263  -45.3348 C.2       0 UNK         0.4866 
      3 O          16.1790  -24.4137  -46.3443 O.2       0 UNK        -0.5176 
      4 N          15.7130  -25.2370  -44.2967 N.am      1 UNK        -0.4884 
      5 CA         16.8195  -26.1960  -44.2141 C.3       1 UNK         0.0853 
      6 C6         16.5206  -27.3530  -43.2275 C.3       10 UNK        -0.0849 
      7 S7         15.0296  -28.3192  -43.6568 S.3       10 UNK        -0.2776 
      8 C8         15.5415  -29.2516  -45.1455 C.3       10 UNK         0.0316 
      9 C9         16.8649  -29.9930  -44.9837 C.ar      10 UNK        -0.0863 
     10 C10        17.0707  -30.8584  -43.9033 C.ar      10 UNK        -0.1009 
     11 C11        18.3004  -31.5004  -43.7292 C.ar      10 UNK        -0.0712 
     12 C12        19.3194  -31.2921  -44.6628 C.ar      10 UNK        -0.0894 
     13 C13        19.1188  -30.4537  -45.7630 C.ar      10 UNK        -0.0745 
     14 C14        17.8898  -29.8058  -45.9179 C.ar      10 UNK        -0.0972 
     15 C15        20.2405  -30.2384  -46.7711 C.3       10 UNK         0.0209 
     16 S16        20.9957  -28.5858  -46.6318 S.3       10 UNK        -0.2568 
     17 C17        21.5783  -28.6023  -44.9021 C.3       10 UNK        -0.0983 
     18 CA         22.0460  -27.2214  -44.3824 C.3       3 UNK         0.0876 
     19 N          21.0539  -26.1833  -44.6687 N.am      3 UNK        -0.4424 
     20 C          21.1986  -24.8612  -44.5216 C.2       2 UNK         0.4918 
     21 O          22.2501  -24.3222  -44.1783 O.2       2 UNK        -0.4875 
     22 CA         19.9497  -23.9916  -44.7830 C.3       2 UNK         0.0481 
     23 CB         20.1220  -23.1829  -46.0787 C.3       2 UNK        -0.1831 
     24 N          18.6826  -24.7353  -44.8525 N.am      2 UNK        -0.4498 
     25 C          18.1412  -25.4746  -43.8734 C.2       1 UNK         0.5027 
     26 O          18.6547  -25.6043  -42.7600 O.2       1 UNK        -0.4969 
     27 C          22.3904  -27.3469  -42.8809 C.2       3 UNK         0.5005 
     28 O          23.3821  -28.0028  -42.5585 O.2       3 UNK        -0.5279 
     29 N          21.5662  -26.7681  -41.9906 N.am      4 UNK        -0.4463 
     30 CA         21.6980  -26.8119  -40.5306 C.3       4 UNK         0.0283 
     31 CB         20.6692  -25.8604  -39.9002 C.3       4 UNK        -0.1875 
     32 C          23.1172  -26.4797  -40.0332 C.2       4 UNK         0.4949 
     33 O          23.6873  -25.4663  -40.4393 O.2       4 UNK        -0.5039 
     34 N          23.6529  -27.3736  -39.1921 N.am      5 UNK        -0.4663 
     35 CA         25.0081  -27.4094  -38.6216 C.3       5 UNK         0.0242 
     36 CB         25.3614  -26.0976  -37.8897 C.3       5 UNK        -0.1982 
     37 C          26.1240  -27.8340  -39.5996 C.2       5 UNK         0.5017 
     38 O          27.2150  -28.1544  -39.1258 O.2       5 UNK        -0.5012 
     39 N          25.8561  -27.8718  -40.9130 N.am      6 UNK        -0.4439 
     40 CA         26.7747  -28.3945  -41.9303 C.3       6 UNK         0.0297 
     41 CB         26.7148  -27.5183  -43.1934 C.3       6 UNK        -0.2006 
     42 C          26.4399  -29.8580  -42.2572 C.2       6 UNK         0.4892 
     43 O          27.3407  -30.6970  -42.2866 O.2       6 UNK        -0.5089 
     44 N          25.1490  -30.1374  -42.4653 N.am      7 UNK        -0.4243 
     45 CA         24.5761  -31.4579  -42.6944 C.3       7 UNK         0.0196 
     46 CB         24.5267  -31.7604  -44.2041 C.3       7 UNK        -0.2007 
     47 C          23.1966  -31.4623  -42.0281 C.2       7 UNK         0.5020 
     48 O          22.1776  -31.3082  -42.6991 O.2       7 UNK        -0.5147 
     49 N          23.1999  -31.5844  -40.6951 N.am      8 UNK        -0.4734 
     50 CA         22.0204  -31.4713  -39.8284 C.3       8 UNK         0.0238 
     51 CB         22.4976  -31.1629  -38.3975 C.3       8 UNK        -0.1912 
     52 C          21.0779  -32.6935  -39.8366 C.2       8 UNK         0.5038 
     53 O          20.0840  -32.6726  -39.1097 O.2       8 UNK        -0.5046 
     54 N          21.3948  -33.7270  -40.6297 N.am      9 UNK        -0.4200 
     55 CA         20.6536  -34.9977  -40.7525 C.3       9 UNK         0.0839 
     56 C          20.7251  -35.9077  -39.4866 C.2       9 UNK         0.5513 
     57 N          21.6561  -35.6887  -38.5654 N.am      9 UNK        -0.7519 
     58 O          19.9485  -36.8496  -39.3481 O.2       9 UNK        -0.4960 
     59 C59        19.1967  -34.8236  -41.2806 C.3       10 UNK        -0.0876 
     60 S60        19.1063  -34.0481  -42.9312 S.3       10 UNK        -0.2414 
     61 C61        18.5462  -32.3684  -42.5027 C.3       10 UNK         0.0169 
     62 H62        13.5788  -23.6897  -46.0492 H         1 UNK         0.0903 
     63 H63        13.7397  -23.6171  -44.2935 H         1 UNK         0.0903 
     64 H64        14.6012  -22.4564  -45.3065 H         1 UNK         0.0903 
     65 H65        15.1071  -25.2035  -43.4887 H         1 UNK         0.3096 
     66 H66        16.9591  -26.6457  -45.1996 H         1 UNK         0.1121 
     67 H67        16.3786  -26.9611  -42.2185 H         1 UNK         0.0849 
     68 H68        17.3726  -28.0319  -43.1596 H         1 UNK         0.0849 
     69 H69        14.7628  -29.9752  -45.3897 H         1 UNK         0.0865 
     70 H70        15.5855  -28.5606  -45.9887 H         1 UNK         0.0865 
     71 H71        16.2803  -31.0033  -43.1794 H         1 UNK         0.1346 
     72 H72        20.2770  -31.7750  -44.5206 H         1 UNK         0.1412 
     73 H73        17.7419  -29.1456  -46.7619 H         1 UNK         0.1426 
     74 H74        19.8475  -30.3640  -47.7809 H         1 UNK         0.0716 
     75 H75        21.0185  -30.9940  -46.6498 H         1 UNK         0.0716 
     76 H76        22.3843  -29.3324  -44.8234 H         1 UNK         0.0695 
     77 H77        20.7716  -28.9728  -44.2679 H         1 UNK         0.0695 
     78 H78        22.9672  -26.9481  -44.9010 H         1 UNK         0.0983 
     79 H79        20.1638  -26.5219  -45.0003 H         1 UNK         0.3095 
     80 H80        19.8697  -23.2898  -43.9507 H         1 UNK         0.0454 
     81 H81        20.1876  -23.8318  -46.9529 H         1 UNK         0.0851 
     82 H82        21.0329  -22.5833  -46.0489 H         1 UNK         0.0851 
     83 H83        19.2901  -22.4952  -46.2320 H         1 UNK         0.0851 
     84 H84        18.1404  -24.6340  -45.7049 H         1 UNK         0.2976 
     85 H85        20.7632  -26.2652  -42.3484 H         1 UNK         0.3116 
     86 H86        21.4488  -27.8305  -40.2265 H         1 UNK         0.0646 
     87 H87        19.6501  -26.1421  -40.1664 H         1 UNK         0.0847 
     88 H88        20.8263  -24.8299  -40.2218 H         1 UNK         0.0847 
     89 H89        20.7348  -25.8764  -38.8114 H         1 UNK         0.0847 
     90 H90        23.0773  -28.1659  -38.9440 H         1 UNK         0.3040 
     91 H91        24.9766  -28.1950  -37.8646 H         1 UNK         0.1015 
     92 H92        25.5019  -25.2669  -38.5817 H         1 UNK         0.0786 
     93 H93        26.2905  -26.2050  -37.3284 H         1 UNK         0.0786 
     94 H94        24.5851  -25.8167  -37.1780 H         1 UNK         0.0786 
     95 H95        24.9273  -27.6152  -41.2313 H         1 UNK         0.3172 
     96 H96        27.8015  -28.3611  -41.5601 H         1 UNK         0.0595 
     97 H97        25.7247  -27.5153  -43.6490 H         1 UNK         0.0839 
     98 H98        27.4165  -27.8774  -43.9473 H         1 UNK         0.0839 
     99 H99        26.9811  -26.4853  -42.9695 H         1 UNK         0.0839 
    100 H100       24.4730  -29.3720  -42.4375 H         1 UNK         0.2998 
    101 H101       25.1871  -32.2214  -42.2077 H         1 UNK         0.0822 
    102 H102       25.5296  -31.8118  -44.6279 H         1 UNK         0.0787 
    103 H103       24.0430  -32.7193  -44.3939 H         1 UNK         0.0787 
    104 H104       23.9731  -31.0000  -44.7537 H         1 UNK         0.0787 
    105 H105       24.0881  -31.7074  -40.2292 H         1 UNK         0.3055 
    106 H106       21.4266  -30.6242  -40.1799 H         1 UNK         0.1106 
    107 H107       23.0578  -31.9964  -37.9721 H         1 UNK         0.0828 
    108 H108       21.6535  -30.9681  -37.7342 H         1 UNK         0.0828 
    109 H109       23.1377  -30.2821  -38.3679 H         1 UNK         0.0828 
    110 H110       22.2264  -33.6476  -41.1950 H         1 UNK         0.2931 
    111 H111       21.1955  -35.5617  -41.5125 H         1 UNK         0.0412 
    112 H112       22.3114  -34.9310  -38.6694 H         1 UNK         0.3472 
    113 H113       21.7014  -36.2893  -37.7569 H         1 UNK         0.3472 
    114 H114       18.5876  -34.2660  -40.5680 H         1 UNK         0.0970 
    115 H115       18.7126  -35.7971  -41.3756 H         1 UNK         0.0970 
    116 H116       17.6428  -32.4402  -41.8952 H         1 UNK         0.0612 
    117 H117       19.3009  -31.8804  -41.8873 H         1 UNK         0.0612 
@<TRIPOS>BOND
     1    1    2 1    
     2    1   62 1    
     3    1   63 1    
     4    1   64 1    
     5    2    3 2    
     6    2    4 am   BACKBONE|DICT|INTERRES
     7    4    5 1    
     8    4   65 1    
     9    5    6 1    
    10    5   25 1    
    11    5   66 1    
    12    6    7 1    
    13    6   67 1    
    14    6   68 1    
    15    7    8 1    
    16    8    9 1    
    17    8   69 1    
    18    8   70 1    
    19    9   10 ar   
    20    9   14 ar   
    21   10   11 ar   
    22   10   71 1    
    23   11   12 ar   
    24   11   61 1    
    25   12   13 ar   
    26   12   72 1    
    27   13   14 ar   
    28   13   15 1    
    29   14   73 1    
    30   15   16 1    
    31   15   74 1    
    32   15   75 1    
    33   16   17 1    
    34   17   18 1    
    35   17   76 1    
    36   17   77 1    
    37   18   19 1    
    38   18   27 1    
    39   18   78 1    
    40   19   20 am   BACKBONE|DICT|INTERRES
    41   19   79 1    
    42   20   21 2    
    43   20   22 1    
    44   22   23 1    
    45   22   24 1    
    46   22   80 1    
    47   23   81 1    
    48   23   82 1    
    49   23   83 1    
    50   24   25 am   BACKBONE|DICT|INTERRES
    51   24   84 1    
    52   25   26 2    
    53   27   28 2    
    54   27   29 am   BACKBONE|DICT|INTERRES
    55   29   30 1    
    56   29   85 1    
    57   30   31 1    
    58   30   32 1    
    59   30   86 1    
    60   31   87 1    
    61   31   88 1    
    62   31   89 1    
    63   32   33 2    
    64   32   34 am   BACKBONE|DICT|INTERRES
    65   34   35 1    
    66   34   90 1    
    67   35   36 1    
    68   35   37 1    
    69   35   91 1    
    70   36   92 1    
    71   36   93 1    
    72   36   94 1    
    73   37   38 2    
    74   37   39 am   BACKBONE|DICT|INTERRES
    75   39   40 1    
    76   39   95 1    
    77   40   41 1    
    78   40   42 1    
    79   40   96 1    
    80   41   97 1    
    81   41   98 1    
    82   41   99 1    
    83   42   43 2    
    84   42   44 am   BACKBONE|DICT|INTERRES
    85   44   45 1    
    86   44  100 1    
    87   45   46 1    
    88   45   47 1    
    89   45  101 1    
    90   46  102 1    
    91   46  103 1    
    92   46  104 1    
    93   47   48 2    
    94   47   49 am   BACKBONE|DICT|INTERRES
    95   49   50 1    
    96   49  105 1    
    97   50   51 1    
    98   50   52 1    
    99   50  106 1    
   100   51  107 1    
   101   51  108 1    
   102   51  109 1    
   103   52   53 2    
   104   52   54 am   BACKBONE|DICT|INTERRES
   105   54   55 1    
   106   54  110 1    
   107   55   56 1    
   108   55   59 1    
   109   55  111 1    
   110   56   57 am   BACKBONE|DICT|INTERRES
   111   56   58 2    
   112   57  112 1    
   113   57  113 1    
   114   59   60 1    
   115   59  114 1    
   116   59  115 1    
   117   60   61 1    
   118   61  116 1    
   119   61  117 1    
@<TRIPOS>SUBSTRUCTURE
     1 UNK         1 GROUP             0       ****    0 ROOT    
