@<TRIPOS>MOLECULE
3R8
117   119    1
SMALL
USER_CHARGES


@<TRIPOS>ATOM
      1 CA         19.9181  -27.2854  -42.0316 C.3       0 UNK        -0.2013 
      2 C          19.0302  -26.2245  -42.6620 C.2       0 UNK         0.4866 
      3 O          19.3683  -25.0419  -42.6166 O.2       0 UNK        -0.5176 
      4 N          17.8890  -26.6326  -43.2346 N.am      1 UNK        -0.4884 
      5 CA         16.8776  -25.7408  -43.8222 C.3       1 UNK         0.0853 
      6 C6         15.5519  -26.4716  -44.1635 C.3       10 UNK        -0.0849 
      7 S7         14.8765  -27.4754  -42.7954 S.3       10 UNK        -0.2776 
      8 C8         14.9858  -29.1622  -43.4819 C.3       10 UNK         0.0316 
      9 C9         16.4110  -29.6946  -43.4433 C.ar      10 UNK        -0.0863 
     10 C10        16.8763  -30.3529  -42.3008 C.ar      10 UNK        -0.1009 
     11 C11        18.1848  -30.8384  -42.2469 C.ar      10 UNK        -0.0712 
     12 C12        19.0310  -30.6528  -43.3423 C.ar      10 UNK        -0.0894 
     13 C13        18.5864  -29.9828  -44.4866 C.ar      10 UNK        -0.0745 
     14 C14        17.2653  -29.5274  -44.5394 C.ar      10 UNK        -0.0972 
     15 C15        19.5318  -29.7386  -45.6581 C.3       10 UNK         0.0209 
     16 S16        21.1454  -29.1025  -45.0995 S.3       10 UNK        -0.2568 
     17 C17        21.8976  -28.5080  -46.6500 C.3       10 UNK        -0.0983 
     18 CA         22.1418  -26.9698  -46.6648 C.3       3 UNK         0.0876 
     19 N          20.9111  -26.1889  -46.5607 N.am      3 UNK        -0.4424 
     20 C          19.9867  -26.0608  -47.5152 C.2       2 UNK         0.4918 
     21 O          20.0634  -26.6025  -48.6191 O.2       2 UNK        -0.4875 
     22 CA         18.7587  -25.2141  -47.1500 C.3       2 UNK         0.0481 
     23 CB         17.6737  -25.2227  -48.2481 C.3       2 UNK        -0.1831 
     24 N          18.2082  -25.6898  -45.8812 N.am      2 UNK        -0.4498 
     25 C          17.3874  -25.0019  -45.0771 C.2       1 UNK         0.5027 
     26 O          17.0152  -23.8482  -45.2969 O.2       1 UNK        -0.4969 
     27 C          23.1308  -26.4533  -45.5969 C.2       3 UNK         0.5005 
     28 O          22.9927  -25.3120  -45.1447 O.2       3 UNK        -0.5279 
     29 N          24.1142  -27.2817  -45.2201 N.am      4 UNK        -0.4463 
     30 CA         25.0954  -26.9963  -44.1714 C.3       4 UNK         0.0283 
     31 CB         26.2152  -28.0483  -44.2304 C.3       4 UNK        -0.1875 
     32 C          24.4622  -26.9484  -42.7678 C.2       4 UNK         0.4949 
     33 O          23.4693  -27.6308  -42.5067 O.2       4 UNK        -0.5039 
     34 N          25.0705  -26.1450  -41.8884 N.am      5 UNK        -0.4663 
     35 CA         24.6512  -25.9394  -40.5003 C.3       5 UNK         0.0242 
     36 CB         25.3753  -24.6924  -39.9597 C.3       5 UNK        -0.1982 
     37 C          24.9153  -27.1593  -39.5952 C.2       5 UNK         0.5017 
     38 O          25.6194  -28.0912  -39.9910 O.2       5 UNK        -0.5012 
     39 N          24.3669  -27.0922  -38.3725 N.am      6 UNK        -0.4439 
     40 CA         24.4962  -28.0686  -37.2819 C.3       6 UNK         0.0297 
     41 CB         25.9646  -28.2047  -36.8212 C.3       6 UNK        -0.2006 
     42 C          23.8259  -29.4228  -37.5875 C.2       6 UNK         0.4892 
     43 O          24.3692  -30.4691  -37.2294 O.2       6 UNK        -0.5089 
     44 N          22.6385  -29.3601  -38.2125 N.am      7 UNK        -0.4243 
     45 CA         21.7403  -30.4749  -38.5414 C.3       7 UNK         0.0196 
     46 CB         21.1198  -31.0696  -37.2594 C.3       7 UNK        -0.2007 
     47 C          22.4115  -31.5406  -39.4273 C.2       7 UNK         0.5020 
     48 O          22.5116  -32.7059  -39.0389 O.2       7 UNK        -0.5147 
     49 N          22.8462  -31.1167  -40.6220 N.am      8 UNK        -0.4734 
     50 CA         23.5669  -31.9339  -41.6088 C.3       8 UNK         0.0238 
     51 CB         23.9839  -31.0336  -42.7813 C.3       8 UNK        -0.1912 
     52 C          22.8179  -33.1817  -42.1218 C.2       8 UNK         0.5038 
     53 O          23.4613  -34.0806  -42.6650 O.2       8 UNK        -0.5046 
     54 N          21.4930  -33.2257  -41.9327 N.am      9 UNK        -0.4200 
     55 CA         20.6438  -34.4003  -42.1711 C.3       9 UNK         0.0839 
     56 C          20.8139  -35.5483  -41.1309 C.2       9 UNK         0.5513 
     57 N          21.4751  -35.3358  -39.9981 N.am      9 UNK        -0.7519 
     58 O          20.3465  -36.6594  -41.3672 O.2       9 UNK        -0.4960 
     59 C59        19.1576  -34.0020  -42.3810 C.3       10 UNK        -0.0876 
     60 S60        18.3184  -33.2935  -40.9140 S.3       10 UNK        -0.2414 
     61 C61        18.7059  -31.5146  -40.9888 C.3       10 UNK         0.0169 
     62 H62        19.3972  -28.2343  -41.9188 H         1 UNK         0.0903 
     63 H63        20.8014  -27.4476  -42.6474 H         1 UNK         0.0903 
     64 H64        20.2481  -26.9645  -41.0442 H         1 UNK         0.0903 
     65 H65        17.6449  -27.6151  -43.2180 H         1 UNK         0.3096 
     66 H66        16.6541  -24.9771  -43.0737 H         1 UNK         0.1121 
     67 H67        14.7883  -25.7385  -44.4317 H         1 UNK         0.0849 
     68 H68        15.6698  -27.0988  -45.0480 H         1 UNK         0.0849 
     69 H69        14.3350  -29.8179  -42.9011 H         1 UNK         0.0865 
     70 H70        14.5932  -29.1802  -44.4998 H         1 UNK         0.0865 
     71 H71        16.2222  -30.4815  -41.4490 H         1 UNK         0.1346 
     72 H72        20.0495  -31.0126  -43.2980 H         1 UNK         0.1412 
     73 H73        16.9073  -29.0277  -45.4288 H         1 UNK         0.1426 
     74 H74        19.0939  -29.0259  -46.3587 H         1 UNK         0.0716 
     75 H75        19.6798  -30.6709  -46.2044 H         1 UNK         0.0716 
     76 H76        21.2608  -28.7896  -47.4896 H         1 UNK         0.0695 
     77 H77        22.8286  -29.0522  -46.8136 H         1 UNK         0.0695 
     78 H78        22.6024  -26.7195  -47.6230 H         1 UNK         0.0983 
     79 H79        20.8292  -25.6585  -45.7025 H         1 UNK         0.3095 
     80 H80        19.1105  -24.1889  -47.0181 H         1 UNK         0.0454 
     81 H81        18.0773  -24.8749  -49.1999 H         1 UNK         0.0851 
     82 H82        16.8413  -24.5657  -47.9969 H         1 UNK         0.0851 
     83 H83        17.2734  -26.2243  -48.4084 H         1 UNK         0.0851 
     84 H84        18.4894  -26.6180  -45.5963 H         1 UNK         0.2976 
     85 H85        24.1176  -28.2189  -45.5943 H         1 UNK         0.3116 
     86 H86        25.5329  -26.0180  -44.3824 H         1 UNK         0.0646 
     87 H87        25.8287  -29.0597  -44.1085 H         1 UNK         0.0847 
     88 H88        26.7474  -28.0070  -45.1809 H         1 UNK         0.0847 
     89 H89        26.9515  -27.8849  -43.4421 H         1 UNK         0.0847 
     90 H90        25.9058  -25.6578  -42.1787 H         1 UNK         0.3040 
     91 H91        23.5751  -25.7503  -40.5009 H         1 UNK         0.1015 
     92 H92        25.0480  -24.4445  -38.9493 H         1 UNK         0.0786 
     93 H93        25.1763  -23.8180  -40.5800 H         1 UNK         0.0786 
     94 H94        26.4558  -24.8387  -39.9237 H         1 UNK         0.0786 
     95 H95        23.8141  -26.2749  -38.1508 H         1 UNK         0.3172 
     96 H96        23.9385  -27.6502  -36.4426 H         1 UNK         0.0595 
     97 H97        26.5858  -28.6859  -37.5772 H         1 UNK         0.0839 
     98 H98        26.0348  -28.8082  -35.9154 H         1 UNK         0.0839 
     99 H99        26.4027  -27.2327  -36.5952 H         1 UNK         0.0839 
    100 H100       22.3062  -28.4425  -38.4735 H         1 UNK         0.2998 
    101 H101       20.9246  -30.0503  -39.1284 H         1 UNK         0.0822 
    102 H102       20.3908  -31.8439  -37.5027 H         1 UNK         0.0787 
    103 H103       20.6004  -30.3071  -36.6790 H         1 UNK         0.0787 
    104 H104       21.8739  -31.5246  -36.6161 H         1 UNK         0.0787 
    105 H105       22.7448  -30.1369  -40.8502 H         1 UNK         0.3055 
    106 H106       24.4736  -32.2984  -41.1211 H         1 UNK         0.1106 
    107 H107       24.6205  -30.2189  -42.4366 H         1 UNK         0.0828 
    108 H108       24.5486  -31.5921  -43.5291 H         1 UNK         0.0828 
    109 H109       23.1202  -30.5947  -43.2819 H         1 UNK         0.0828 
    110 H110       21.0608  -32.4609  -41.4413 H         1 UNK         0.2931 
    111 H111       20.9751  -34.8284  -43.1193 H         1 UNK         0.0412 
    112 H112       21.5791  -36.0925  -39.3411 H         1 UNK         0.3472 
    113 H113       21.8507  -34.4199  -39.7724 H         1 UNK         0.3472 
    114 H114       19.0687  -33.3228  -43.2271 H         1 UNK         0.0970 
    115 H115       18.5878  -34.8832  -42.6815 H         1 UNK         0.0970 
    116 H116       19.7803  -31.3671  -40.9010 H         1 UNK         0.0612 
    117 H117       18.2705  -31.0322  -40.1124 H         1 UNK         0.0612 
@<TRIPOS>BOND
     1    1    2 1    
     2    1   62 1    
     3    1   63 1    
     4    1   64 1    
     5    2    3 2    
     6    2    4 am   BACKBONE|DICT|INTERRES
     7    4    5 1    
     8    4   65 1    
     9    5    6 1    
    10    5   25 1    
    11    5   66 1    
    12    6    7 1    
    13    6   67 1    
    14    6   68 1    
    15    7    8 1    
    16    8    9 1    
    17    8   69 1    
    18    8   70 1    
    19    9   10 ar   
    20    9   14 ar   
    21   10   11 ar   
    22   10   71 1    
    23   11   12 ar   
    24   11   61 1    
    25   12   13 ar   
    26   12   72 1    
    27   13   14 ar   
    28   13   15 1    
    29   14   73 1    
    30   15   16 1    
    31   15   74 1    
    32   15   75 1    
    33   16   17 1    
    34   17   18 1    
    35   17   76 1    
    36   17   77 1    
    37   18   19 1    
    38   18   27 1    
    39   18   78 1    
    40   19   20 am   BACKBONE|DICT|INTERRES
    41   19   79 1    
    42   20   21 2    
    43   20   22 1    
    44   22   23 1    
    45   22   24 1    
    46   22   80 1    
    47   23   81 1    
    48   23   82 1    
    49   23   83 1    
    50   24   25 am   BACKBONE|DICT|INTERRES
    51   24   84 1    
    52   25   26 2    
    53   27   28 2    
    54   27   29 am   BACKBONE|DICT|INTERRES
    55   29   30 1    
    56   29   85 1    
    57   30   31 1    
    58   30   32 1    
    59   30   86 1    
    60   31   87 1    
    61   31   88 1    
    62   31   89 1    
    63   32   33 2    
    64   32   34 am   BACKBONE|DICT|INTERRES
    65   34   35 1    
    66   34   90 1    
    67   35   36 1    
    68   35   37 1    
    69   35   91 1    
    70   36   92 1    
    71   36   93 1    
    72   36   94 1    
    73   37   38 2    
    74   37   39 am   BACKBONE|DICT|INTERRES
    75   39   40 1    
    76   39   95 1    
    77   40   41 1    
    78   40   42 1    
    79   40   96 1    
    80   41   97 1    
    81   41   98 1    
    82   41   99 1    
    83   42   43 2    
    84   42   44 am   BACKBONE|DICT|INTERRES
    85   44   45 1    
    86   44  100 1    
    87   45   46 1    
    88   45   47 1    
    89   45  101 1    
    90   46  102 1    
    91   46  103 1    
    92   46  104 1    
    93   47   48 2    
    94   47   49 am   BACKBONE|DICT|INTERRES
    95   49   50 1    
    96   49  105 1    
    97   50   51 1    
    98   50   52 1    
    99   50  106 1    
   100   51  107 1    
   101   51  108 1    
   102   51  109 1    
   103   52   53 2    
   104   52   54 am   BACKBONE|DICT|INTERRES
   105   54   55 1    
   106   54  110 1    
   107   55   56 1    
   108   55   59 1    
   109   55  111 1    
   110   56   57 am   BACKBONE|DICT|INTERRES
   111   56   58 2    
   112   57  112 1    
   113   57  113 1    
   114   59   60 1    
   115   59  114 1    
   116   59  115 1    
   117   60   61 1    
   118   61  116 1    
   119   61  117 1    
@<TRIPOS>SUBSTRUCTURE
     1 UNK         1 GROUP             0       ****    0 ROOT    
