@<TRIPOS>MOLECULE
3R8
117   119    1
SMALL
USER_CHARGES


@<TRIPOS>ATOM
      1 CA         16.9431  -28.0512  -38.5905 C.3       0 UNK        -0.2013 
      2 C          16.7501  -27.5535  -40.0140 C.2       0 UNK         0.4866 
      3 O          16.1191  -26.5158  -40.2182 O.2       0 UNK        -0.5176 
      4 N          17.2682  -28.2957  -41.0011 N.am      1 UNK        -0.4884 
      5 CA         17.1282  -27.9873  -42.4284 C.3       1 UNK         0.0853 
      6 C6         17.2026  -29.2734  -43.2868 C.3       10 UNK        -0.0849 
      7 S7         16.0607  -29.2169  -44.7127 S.3       10 UNK        -0.2776 
      8 C8         16.2723  -30.8859  -45.4165 C.3       10 UNK         0.0316 
      9 C9         17.7400  -31.1952  -45.6609 C.ar      10 UNK        -0.0863 
     10 C10        18.3934  -32.1614  -44.8936 C.ar      10 UNK        -0.1009 
     11 C11        19.7680  -32.3665  -45.0339 C.ar      10 UNK        -0.0712 
     12 C12        20.4919  -31.6000  -45.9543 C.ar      10 UNK        -0.0894 
     13 C13        19.8412  -30.6389  -46.7362 C.ar      10 UNK        -0.0745 
     14 C14        18.4633  -30.4569  -46.5992 C.ar      10 UNK        -0.0972 
     15 C15        20.6125  -29.7655  -47.7123 C.3       10 UNK         0.0209 
     16 S16        20.7098  -28.0450  -47.1208 S.3       10 UNK        -0.2568 
     17 C17        22.0937  -28.1677  -45.9473 C.3       10 UNK        -0.0983 
     18 CA         22.3236  -26.8344  -45.1861 C.3       3 UNK         0.0876 
     19 N          21.4181  -26.6955  -44.0372 N.am      3 UNK        -0.4424 
     20 C          20.9470  -25.5273  -43.5815 C.2       2 UNK         0.4918 
     21 O          21.1872  -24.4519  -44.1348 O.2       2 UNK        -0.4875 
     22 CA         20.1386  -25.5416  -42.2670 C.3       2 UNK         0.0481 
     23 CB         19.4351  -24.1964  -41.9845 C.3       2 UNK        -0.1831 
     24 N          19.1888  -26.6523  -42.1338 N.am      2 UNK        -0.4498 
     25 C          18.1163  -26.8959  -42.9057 C.2       1 UNK         0.5027 
     26 O          17.8605  -26.2654  -43.9327 O.2       1 UNK        -0.4969 
     27 C          23.7848  -26.6458  -44.7199 C.2       3 UNK         0.5005 
     28 O          24.6005  -27.5642  -44.8316 O.2       3 UNK        -0.5279 
     29 N          24.0905  -25.4487  -44.1940 N.am      4 UNK        -0.4463 
     30 CA         25.3892  -25.0156  -43.6645 C.3       4 UNK         0.0283 
     31 CB         26.4049  -24.8178  -44.8130 C.3       4 UNK        -0.1875 
     32 C          25.8842  -25.9501  -42.5436 C.2       4 UNK         0.4949 
     33 O          25.3452  -25.8925  -41.4385 O.2       4 UNK        -0.5039 
     34 N          26.8741  -26.8018  -42.8481 N.am      5 UNK        -0.4663 
     35 CA         27.4021  -27.8335  -41.9506 C.3       5 UNK         0.0242 
     36 CB         28.6902  -28.4181  -42.5513 C.3       5 UNK        -0.1982 
     37 C          26.3900  -28.9536  -41.6491 C.2       5 UNK         0.5017 
     38 O          26.4300  -29.5202  -40.5562 O.2       5 UNK        -0.5012 
     39 N          25.4756  -29.2281  -42.5903 N.am      6 UNK        -0.4439 
     40 CA         24.3279  -30.1179  -42.4116 C.3       6 UNK         0.0297 
     41 CB         23.9936  -30.7793  -43.7607 C.3       6 UNK        -0.2006 
     42 C          23.1648  -29.3051  -41.8159 C.2       6 UNK         0.4892 
     43 O          22.1651  -29.0458  -42.4880 O.2       6 UNK        -0.5089 
     44 N          23.3729  -28.8420  -40.5765 N.am      7 UNK        -0.4243 
     45 CA         22.5038  -27.8949  -39.8825 C.3       7 UNK         0.0196 
     46 CB         23.2438  -27.3155  -38.6666 C.3       7 UNK        -0.2007 
     47 C          21.1573  -28.4977  -39.4608 C.2       7 UNK         0.5020 
     48 O          20.1315  -27.8332  -39.6010 O.2       7 UNK        -0.5147 
     49 N          21.1958  -29.7292  -38.9374 N.am      8 UNK        -0.4734 
     50 CA         20.0356  -30.4728  -38.4484 C.3       8 UNK         0.0238 
     51 CB         20.4655  -31.3225  -37.2335 C.3       8 UNK        -0.1912 
     52 C          19.4046  -31.2771  -39.6004 C.2       8 UNK         0.5038 
     53 O          18.8633  -30.6631  -40.5203 O.2       8 UNK        -0.5046 
     54 N          19.4753  -32.6132  -39.5047 N.am      9 UNK        -0.4200 
     55 CA         19.1476  -33.6716  -40.4838 C.3       9 UNK         0.0839 
     56 C          17.7861  -33.6319  -41.2462 C.2       9 UNK         0.5513 
     57 N          16.9316  -32.6390  -41.0551 N.am      9 UNK        -0.7519 
     58 O          17.4770  -34.5581  -41.9917 O.2       9 UNK        -0.4960 
     59 C59        20.3580  -34.0283  -41.3929 C.3       10 UNK        -0.0876 
     60 S60        20.8641  -32.6974  -42.5338 S.3       10 UNK        -0.2414 
     61 C61        20.4600  -33.4002  -44.1629 C.3       10 UNK         0.0169 
     62 H62        17.0546  -29.1343  -38.5631 H         1 UNK         0.0903 
     63 H63        17.8278  -27.5948  -38.1475 H         1 UNK         0.0903 
     64 H64        16.0813  -27.7905  -37.9767 H         1 UNK         0.0903 
     65 H65        17.8329  -29.1150  -40.7809 H         1 UNK         0.3096 
     66 H66        16.1311  -27.5590  -42.5565 H         1 UNK         0.1121 
     67 H67        18.2245  -29.4640  -43.6225 H         1 UNK         0.0849 
     68 H68        16.9228  -30.1465  -42.6948 H         1 UNK         0.0849 
     69 H69        15.8259  -31.6180  -44.7415 H         1 UNK         0.0865 
     70 H70        15.7224  -30.9547  -46.3561 H         1 UNK         0.0865 
     71 H71        17.8421  -32.7297  -44.1568 H         1 UNK         0.1346 
     72 H72        21.5601  -31.7398  -46.0479 H         1 UNK         0.1412 
     73 H73        17.9628  -29.6954  -47.1823 H         1 UNK         0.1426 
     74 H74        20.1067  -29.7775  -48.6789 H         1 UNK         0.0716 
     75 H75        21.6159  -30.1573  -47.8862 H         1 UNK         0.0716 
     76 H76        22.9672  -28.4527  -46.5366 H         1 UNK         0.0695 
     77 H77        21.9054  -28.9867  -45.2518 H         1 UNK         0.0695 
     78 H78        22.1397  -26.0209  -45.8917 H         1 UNK         0.0983 
     79 H79        21.2816  -27.5382  -43.4858 H         1 UNK         0.3095 
     80 H80        20.8685  -25.6778  -41.4720 H         1 UNK         0.0454 
     81 H81        20.1566  -23.3808  -41.9246 H         1 UNK         0.0851 
     82 H82        18.8987  -24.2210  -41.0358 H         1 UNK         0.0851 
     83 H83        18.7206  -23.9401  -42.7673 H         1 UNK         0.0851 
     84 H84        19.3148  -27.2285  -41.3048 H         1 UNK         0.2976 
     85 H85        23.3356  -24.7763  -44.1141 H         1 UNK         0.3116 
     86 H86        25.2266  -24.0418  -43.2000 H         1 UNK         0.0646 
     87 H87        26.5681  -25.7286  -45.3900 H         1 UNK         0.0847 
     88 H88        27.3720  -24.4877  -44.4310 H         1 UNK         0.0847 
     89 H89        26.0605  -24.0515  -45.5074 H         1 UNK         0.0847 
     90 H90        27.2331  -26.7928  -43.7920 H         1 UNK         0.3040 
     91 H91        27.6509  -27.3564  -40.9999 H         1 UNK         0.1015 
     92 H92        29.4472  -27.6469  -42.6952 H         1 UNK         0.0786 
     93 H93        28.5070  -28.8949  -43.5151 H         1 UNK         0.0786 
     94 H94        29.1205  -29.1727  -41.8910 H         1 UNK         0.0786 
     95 H95        25.4507  -28.6465  -43.4250 H         1 UNK         0.3172 
     96 H96        24.5727  -30.9140  -41.7053 H         1 UNK         0.0595 
     97 H97        23.8351  -30.0450  -44.5476 H         1 UNK         0.0839 
     98 H98        23.0891  -31.3806  -43.6937 H         1 UNK         0.0839 
     99 H99        24.7980  -31.4398  -44.0838 H         1 UNK         0.0839 
    100 H100       24.2509  -29.0740  -40.1290 H         1 UNK         0.2998 
    101 H101       22.3066  -27.0746  -40.5715 H         1 UNK         0.0822 
    102 H102       22.6231  -26.5860  -38.1443 H         1 UNK         0.0787 
    103 H103       23.5139  -28.0897  -37.9474 H         1 UNK         0.0787 
    104 H104       24.1581  -26.8034  -38.9685 H         1 UNK         0.0787 
    105 H105       22.0858  -30.2047  -38.9100 H         1 UNK         0.3055 
    106 H106       19.2793  -29.7682  -38.1000 H         1 UNK         0.1106 
    107 H107       20.8389  -30.6865  -36.4304 H         1 UNK         0.0828 
    108 H108       19.6245  -31.8827  -36.8219 H         1 UNK         0.0828 
    109 H109       21.2572  -32.0314  -37.4800 H         1 UNK         0.0828 
    110 H110       19.8923  -32.9677  -38.6571 H         1 UNK         0.2931 
    111 H111       19.0175  -34.5414  -39.8384 H         1 UNK         0.0412 
    112 H112       17.2507  -31.8197  -40.5563 H         1 UNK         0.3472 
    113 H113       16.0435  -32.6419  -41.5297 H         1 UNK         0.3472 
    114 H114       21.2204  -34.2583  -40.7659 H         1 UNK         0.0970 
    115 H115       20.1638  -34.9494  -41.9443 H         1 UNK         0.0970 
    116 H116       21.3764  -33.7542  -44.6373 H         1 UNK         0.0612 
    117 H117       19.8095  -34.2696  -44.0602 H         1 UNK         0.0612 
@<TRIPOS>BOND
     1    1    2 1    
     2    1   62 1    
     3    1   63 1    
     4    1   64 1    
     5    2    3 2    
     6    2    4 am   BACKBONE|DICT|INTERRES
     7    4    5 1    
     8    4   65 1    
     9    5    6 1    
    10    5   25 1    
    11    5   66 1    
    12    6    7 1    
    13    6   67 1    
    14    6   68 1    
    15    7    8 1    
    16    8    9 1    
    17    8   69 1    
    18    8   70 1    
    19    9   10 ar   
    20    9   14 ar   
    21   10   11 ar   
    22   10   71 1    
    23   11   12 ar   
    24   11   61 1    
    25   12   13 ar   
    26   12   72 1    
    27   13   14 ar   
    28   13   15 1    
    29   14   73 1    
    30   15   16 1    
    31   15   74 1    
    32   15   75 1    
    33   16   17 1    
    34   17   18 1    
    35   17   76 1    
    36   17   77 1    
    37   18   19 1    
    38   18   27 1    
    39   18   78 1    
    40   19   20 am   BACKBONE|DICT|INTERRES
    41   19   79 1    
    42   20   21 2    
    43   20   22 1    
    44   22   23 1    
    45   22   24 1    
    46   22   80 1    
    47   23   81 1    
    48   23   82 1    
    49   23   83 1    
    50   24   25 am   BACKBONE|DICT|INTERRES
    51   24   84 1    
    52   25   26 2    
    53   27   28 2    
    54   27   29 am   BACKBONE|DICT|INTERRES
    55   29   30 1    
    56   29   85 1    
    57   30   31 1    
    58   30   32 1    
    59   30   86 1    
    60   31   87 1    
    61   31   88 1    
    62   31   89 1    
    63   32   33 2    
    64   32   34 am   BACKBONE|DICT|INTERRES
    65   34   35 1    
    66   34   90 1    
    67   35   36 1    
    68   35   37 1    
    69   35   91 1    
    70   36   92 1    
    71   36   93 1    
    72   36   94 1    
    73   37   38 2    
    74   37   39 am   BACKBONE|DICT|INTERRES
    75   39   40 1    
    76   39   95 1    
    77   40   41 1    
    78   40   42 1    
    79   40   96 1    
    80   41   97 1    
    81   41   98 1    
    82   41   99 1    
    83   42   43 2    
    84   42   44 am   BACKBONE|DICT|INTERRES
    85   44   45 1    
    86   44  100 1    
    87   45   46 1    
    88   45   47 1    
    89   45  101 1    
    90   46  102 1    
    91   46  103 1    
    92   46  104 1    
    93   47   48 2    
    94   47   49 am   BACKBONE|DICT|INTERRES
    95   49   50 1    
    96   49  105 1    
    97   50   51 1    
    98   50   52 1    
    99   50  106 1    
   100   51  107 1    
   101   51  108 1    
   102   51  109 1    
   103   52   53 2    
   104   52   54 am   BACKBONE|DICT|INTERRES
   105   54   55 1    
   106   54  110 1    
   107   55   56 1    
   108   55   59 1    
   109   55  111 1    
   110   56   57 am   BACKBONE|DICT|INTERRES
   111   56   58 2    
   112   57  112 1    
   113   57  113 1    
   114   59   60 1    
   115   59  114 1    
   116   59  115 1    
   117   60   61 1    
   118   61  116 1    
   119   61  117 1    
@<TRIPOS>SUBSTRUCTURE
     1 UNK         1 GROUP             0       ****    0 ROOT    
