@<TRIPOS>MOLECULE
3R8
117   119    1
SMALL
USER_CHARGES


@<TRIPOS>ATOM
      1 CA         18.3013  -26.5370  -41.4315 C.3       0 UNK        -0.2013 
      2 C          17.5421  -25.8572  -42.5571 C.2       0 UNK         0.4866 
      3 O          17.3332  -24.6436  -42.5187 O.2       0 UNK        -0.5176 
      4 N          17.1465  -26.6239  -43.5806 N.am      1 UNK        -0.4884 
      5 CA         16.4524  -26.1418  -44.7831 C.3       1 UNK         0.0853 
      6 C6         15.5328  -27.2231  -45.4195 C.3       10 UNK        -0.0849 
      7 S7         14.5272  -28.1372  -44.1965 S.3       10 UNK        -0.2776 
      8 C8         15.1809  -29.8344  -44.3608 C.3       10 UNK         0.0316 
      9 C9         16.6815  -29.9295  -44.1019 C.ar      10 UNK        -0.0863 
     10 C10        17.1775  -29.9317  -42.7942 C.ar      10 UNK        -0.1009 
     11 C11        18.5497  -30.0659  -42.5569 C.ar      10 UNK        -0.0712 
     12 C12        19.4295  -30.1779  -43.6383 C.ar      10 UNK        -0.0894 
     13 C13        18.9469  -30.1788  -44.9494 C.ar      10 UNK        -0.0745 
     14 C14        17.5728  -30.0577  -45.1733 C.ar      10 UNK        -0.0972 
     15 C15        19.8997  -30.3618  -46.1240 C.3       10 UNK         0.0209 
     16 S16        20.4348  -28.7752  -46.8393 S.3       10 UNK        -0.2568 
     17 C17        21.6828  -28.2469  -45.6202 C.3       10 UNK        -0.0983 
     18 CA         22.3821  -26.9055  -45.9902 C.3       3 UNK         0.0876 
     19 N          21.4232  -25.8082  -46.2269 N.am      3 UNK        -0.4424 
     20 C          20.5859  -25.2845  -45.3190 C.2       2 UNK         0.4918 
     21 O          20.5946  -25.6037  -44.1274 O.2       2 UNK        -0.4875 
     22 CA         19.5906  -24.2020  -45.7819 C.3       2 UNK         0.0481 
     23 CB         19.6447  -23.8505  -47.2871 C.3       2 UNK        -0.1831 
     24 N          18.2487  -24.5769  -45.3303 N.am      2 UNK        -0.4498 
     25 C          17.5054  -25.6012  -45.7756 C.2       1 UNK         0.5027 
     26 O          17.6776  -26.1574  -46.8612 O.2       1 UNK        -0.4969 
     27 C          23.4739  -26.5463  -44.9495 C.2       3 UNK         0.5005 
     28 O          24.0780  -27.4464  -44.3624 O.2       3 UNK        -0.5279 
     29 N          23.6516  -25.2419  -44.6745 N.am      4 UNK        -0.4463 
     30 CA         24.4374  -24.6480  -43.5813 C.3       4 UNK         0.0283 
     31 CB         25.9455  -24.8648  -43.8273 C.3       4 UNK        -0.1875 
     32 C          24.0135  -25.1133  -42.1672 C.2       4 UNK         0.4949 
     33 O          24.7778  -24.9188  -41.2212 O.2       4 UNK        -0.5039 
     34 N          22.8310  -25.7451  -42.0511 N.am      5 UNK        -0.4663 
     35 CA         22.3296  -26.5023  -40.8953 C.3       5 UNK         0.0242 
     36 CB         21.8933  -25.5398  -39.7715 C.3       5 UNK        -0.1982 
     37 C          23.3121  -27.5946  -40.4102 C.2       5 UNK         0.5017 
     38 O          23.4214  -27.8254  -39.2046 O.2       5 UNK        -0.5012 
     39 N          24.0441  -28.2089  -41.3531 N.am      6 UNK        -0.4439 
     40 CA         25.1483  -29.1313  -41.0872 C.3       6 UNK         0.0297 
     41 CB         25.8952  -29.4113  -42.4009 C.3       6 UNK        -0.2006 
     42 C          24.7085  -30.4528  -40.4355 C.2       6 UNK         0.4892 
     43 O          23.7102  -31.0446  -40.8565 O.2       6 UNK        -0.5089 
     44 N          25.5194  -30.9066  -39.4667 N.am      7 UNK        -0.4243 
     45 CA         25.4448  -32.1898  -38.7578 C.3       7 UNK         0.0196 
     46 CB         25.9491  -33.3202  -39.6861 C.3       7 UNK        -0.2007 
     47 C          24.0542  -32.4512  -38.1428 C.2       7 UNK         0.5020 
     48 O          23.4874  -31.5523  -37.5199 O.2       7 UNK        -0.5147 
     49 N          23.5254  -33.6634  -38.3414 N.am      8 UNK        -0.4734 
     50 CA         22.1554  -34.0572  -38.0097 C.3       8 UNK         0.0238 
     51 CB         22.1898  -35.3922  -37.2407 C.3       8 UNK        -0.1912 
     52 C          21.3067  -34.1325  -39.2930 C.2       8 UNK         0.5038 
     53 O          20.5285  -35.0739  -39.4556 O.2       8 UNK        -0.5046 
     54 N          21.4972  -33.1555  -40.1922 N.am      9 UNK        -0.4200 
     55 CA         20.8458  -33.0341  -41.5081 C.3       9 UNK         0.0839 
     56 C          21.3364  -34.0628  -42.5713 C.2       9 UNK         0.5513 
     57 N          22.4450  -34.7610  -42.3566 N.am      9 UNK        -0.7519 
     58 O          20.7218  -34.2127  -43.6241 O.2       9 UNK        -0.4960 
     59 C59        19.2920  -32.9499  -41.4365 C.3       10 UNK        -0.0876 
     60 S60        18.6596  -31.6778  -40.2860 S.3       10 UNK        -0.2414 
     61 C61        19.0850  -30.1216  -41.1327 C.3       10 UNK         0.0169 
     62 H62        18.8304  -25.8017  -40.8260 H         1 UNK         0.0903 
     63 H63        17.6142  -27.0834  -40.7864 H         1 UNK         0.0903 
     64 H64        19.0383  -27.2294  -41.8359 H         1 UNK         0.0903 
     65 H65        17.3493  -27.6155  -43.5741 H         1 UNK         0.3096 
     66 H66        15.8116  -25.3024  -44.5029 H         1 UNK         0.1121 
     67 H67        14.8523  -26.7509  -46.1301 H         1 UNK         0.0849 
     68 H68        16.1063  -27.9383  -46.0079 H         1 UNK         0.0849 
     69 H69        14.6527  -30.4829  -43.6601 H         1 UNK         0.0865 
     70 H70        14.9404  -30.2123  -45.3558 H         1 UNK         0.0865 
     71 H71        16.4941  -29.8524  -41.9594 H         1 UNK         0.1346 
     72 H72        20.4904  -30.2881  -43.4608 H         1 UNK         0.1412 
     73 H73        17.1985  -30.0732  -46.1879 H         1 UNK         0.1426 
     74 H74        19.4070  -30.9446  -46.9036 H         1 UNK         0.0716 
     75 H75        20.7724  -30.9434  -45.8224 H         1 UNK         0.0716 
     76 H76        22.4168  -29.0506  -45.5365 H         1 UNK         0.0695 
     77 H77        21.2015  -28.1685  -44.6443 H         1 UNK         0.0695 
     78 H78        22.9137  -27.0567  -46.9310 H         1 UNK         0.0983 
     79 H79        21.3507  -25.4919  -47.1833 H         1 UNK         0.3095 
     80 H80        19.8485  -23.2977  -45.2291 H         1 UNK         0.0454 
     81 H81        19.4963  -24.7179  -47.9305 H         1 UNK         0.0851 
     82 H82        20.6059  -23.4077  -47.5503 H         1 UNK         0.0851 
     83 H83        18.8792  -23.1182  -47.5434 H         1 UNK         0.0851 
     84 H84        18.0226  -24.2599  -44.3918 H         1 UNK         0.2976 
     85 H85        23.0972  -24.5877  -45.2090 H         1 UNK         0.3116 
     86 H86        24.2450  -23.5748  -43.6154 H         1 UNK         0.0646 
     87 H87        26.2230  -25.9154  -43.7355 H         1 UNK         0.0847 
     88 H88        26.5459  -24.3076  -43.1072 H         1 UNK         0.0847 
     89 H89        26.2393  -24.5257  -44.8204 H         1 UNK         0.0847 
     90 H90        22.2465  -25.7956  -42.8798 H         1 UNK         0.3040 
     91 H91        21.4419  -27.0338  -41.2405 H         1 UNK         0.1015 
     92 H92        21.1880  -24.7949  -40.1397 H         1 UNK         0.0786 
     93 H93        22.7445  -25.0117  -39.3406 H         1 UNK         0.0786 
     94 H94        21.3999  -26.0795  -38.9622 H         1 UNK         0.0786 
     95 H95        23.9004  -27.9526  -42.3247 H         1 UNK         0.3172 
     96 H96        25.8369  -28.6203  -40.4107 H         1 UNK         0.0595 
     97 H97        25.2442  -29.8813  -43.1396 H         1 UNK         0.0839 
     98 H98        26.7414  -30.0803  -42.2384 H         1 UNK         0.0839 
     99 H99        26.2875  -28.4931  -42.8389 H         1 UNK         0.0839 
    100 H100       26.2856  -30.3106  -39.1858 H         1 UNK         0.2998 
    101 H101       26.1354  -32.1181  -37.9161 H         1 UNK         0.0822 
    102 H102       26.9397  -33.0885  -40.0779 H         1 UNK         0.0787 
    103 H103       26.0394  -34.2681  -39.1540 H         1 UNK         0.0787 
    104 H104       25.2890  -33.4718  -40.5415 H         1 UNK         0.0787 
    105 H105       24.0680  -34.3350  -38.8662 H         1 UNK         0.3055 
    106 H106       21.6854  -33.3099  -37.3662 H         1 UNK         0.1106 
    107 H107       21.1879  -35.6913  -36.9297 H         1 UNK         0.0828 
    108 H108       22.5980  -36.1998  -37.8495 H         1 UNK         0.0828 
    109 H109       22.7956  -35.3132  -36.3380 H         1 UNK         0.0828 
    110 H110       22.1924  -32.4445  -39.9989 H         1 UNK         0.2931 
    111 H111       21.1959  -32.0768  -41.8933 H         1 UNK         0.0412 
    112 H112       22.9691  -34.6361  -41.5070 H         1 UNK         0.3472 
    113 H113       22.7591  -35.4161  -43.0554 H         1 UNK         0.3472 
    114 H114       18.8768  -33.9110  -41.1305 H         1 UNK         0.0970 
    115 H115       18.8703  -32.7614  -42.4249 H         1 UNK         0.0970 
    116 H116       18.6710  -29.2966  -40.5537 H         1 UNK         0.0612 
    117 H117       20.1683  -29.9906  -41.1176 H         1 UNK         0.0612 
@<TRIPOS>BOND
     1    1    2 1    
     2    1   62 1    
     3    1   63 1    
     4    1   64 1    
     5    2    3 2    
     6    2    4 am   BACKBONE|DICT|INTERRES
     7    4    5 1    
     8    4   65 1    
     9    5    6 1    
    10    5   25 1    
    11    5   66 1    
    12    6    7 1    
    13    6   67 1    
    14    6   68 1    
    15    7    8 1    
    16    8    9 1    
    17    8   69 1    
    18    8   70 1    
    19    9   10 ar   
    20    9   14 ar   
    21   10   11 ar   
    22   10   71 1    
    23   11   12 ar   
    24   11   61 1    
    25   12   13 ar   
    26   12   72 1    
    27   13   14 ar   
    28   13   15 1    
    29   14   73 1    
    30   15   16 1    
    31   15   74 1    
    32   15   75 1    
    33   16   17 1    
    34   17   18 1    
    35   17   76 1    
    36   17   77 1    
    37   18   19 1    
    38   18   27 1    
    39   18   78 1    
    40   19   20 am   BACKBONE|DICT|INTERRES
    41   19   79 1    
    42   20   21 2    
    43   20   22 1    
    44   22   23 1    
    45   22   24 1    
    46   22   80 1    
    47   23   81 1    
    48   23   82 1    
    49   23   83 1    
    50   24   25 am   BACKBONE|DICT|INTERRES
    51   24   84 1    
    52   25   26 2    
    53   27   28 2    
    54   27   29 am   BACKBONE|DICT|INTERRES
    55   29   30 1    
    56   29   85 1    
    57   30   31 1    
    58   30   32 1    
    59   30   86 1    
    60   31   87 1    
    61   31   88 1    
    62   31   89 1    
    63   32   33 2    
    64   32   34 am   BACKBONE|DICT|INTERRES
    65   34   35 1    
    66   34   90 1    
    67   35   36 1    
    68   35   37 1    
    69   35   91 1    
    70   36   92 1    
    71   36   93 1    
    72   36   94 1    
    73   37   38 2    
    74   37   39 am   BACKBONE|DICT|INTERRES
    75   39   40 1    
    76   39   95 1    
    77   40   41 1    
    78   40   42 1    
    79   40   96 1    
    80   41   97 1    
    81   41   98 1    
    82   41   99 1    
    83   42   43 2    
    84   42   44 am   BACKBONE|DICT|INTERRES
    85   44   45 1    
    86   44  100 1    
    87   45   46 1    
    88   45   47 1    
    89   45  101 1    
    90   46  102 1    
    91   46  103 1    
    92   46  104 1    
    93   47   48 2    
    94   47   49 am   BACKBONE|DICT|INTERRES
    95   49   50 1    
    96   49  105 1    
    97   50   51 1    
    98   50   52 1    
    99   50  106 1    
   100   51  107 1    
   101   51  108 1    
   102   51  109 1    
   103   52   53 2    
   104   52   54 am   BACKBONE|DICT|INTERRES
   105   54   55 1    
   106   54  110 1    
   107   55   56 1    
   108   55   59 1    
   109   55  111 1    
   110   56   57 am   BACKBONE|DICT|INTERRES
   111   56   58 2    
   112   57  112 1    
   113   57  113 1    
   114   59   60 1    
   115   59  114 1    
   116   59  115 1    
   117   60   61 1    
   118   61  116 1    
   119   61  117 1    
@<TRIPOS>SUBSTRUCTURE
     1 UNK         1 GROUP             0       ****    0 ROOT    
