@<TRIPOS>MOLECULE
3R8
117   119    1
SMALL
USER_CHARGES


@<TRIPOS>ATOM
      1 CA         14.9006  -27.6645  -49.7036 C.3       0 UNK        -0.2013 
      2 C          16.2721  -27.3494  -49.1252 C.2       0 UNK         0.4866 
      3 O          17.1580  -26.9048  -49.8565 O.2       0 UNK        -0.5176 
      4 N          16.4578  -27.5847  -47.8207 N.am      1 UNK        -0.4884 
      5 CA         17.6954  -27.2987  -47.0877 C.3       1 UNK         0.0853 
      6 C6         17.6956  -27.9447  -45.6806 C.3       10 UNK        -0.0849 
      7 S7         17.5782  -29.7609  -45.6966 S.3       10 UNK        -0.2776 
      8 C8         16.6224  -30.0478  -44.1710 C.3       10 UNK         0.0316 
      9 C9         17.3392  -29.5224  -42.9318 C.ar      10 UNK        -0.0863 
     10 C10        18.4067  -30.2393  -42.3855 C.ar      10 UNK        -0.1009 
     11 C11        19.0466  -29.7906  -41.2265 C.ar      10 UNK        -0.0712 
     12 C12        18.6137  -28.6113  -40.6137 C.ar      10 UNK        -0.0894 
     13 C13        17.5524  -27.8770  -41.1545 C.ar      10 UNK        -0.0745 
     14 C14        16.9201  -28.3382  -42.3142 C.ar      10 UNK        -0.0972 
     15 C15        17.0532  -26.6173  -40.4557 C.3       10 UNK         0.0209 
     16 S16        18.3460  -25.3463  -40.2691 S.3       10 UNK        -0.2568 
     17 C17        18.5153  -24.7002  -41.9679 C.3       10 UNK        -0.0983 
     18 CA         19.7156  -25.3153  -42.7349 C.3       3 UNK         0.0876 
     19 N          19.6748  -25.0929  -44.1834 N.am      3 UNK        -0.4424 
     20 C          19.5229  -23.9422  -44.8593 C.2       2 UNK         0.4918 
     21 O          19.3141  -22.8439  -44.3441 O.2       2 UNK        -0.4875 
     22 CA         19.5988  -24.0446  -46.3975 C.3       2 UNK         0.0481 
     23 CB         21.0250  -23.7422  -46.8847 C.3       2 UNK        -0.1831 
     24 N          19.1855  -25.3659  -46.8850 N.am      2 UNK        -0.4498 
     25 C          17.9114  -25.7818  -46.9183 C.2       1 UNK         0.5027 
     26 O          16.9426  -25.0423  -46.7241 O.2       1 UNK        -0.4969 
     27 C          21.0884  -24.9128  -42.1547 C.2       3 UNK         0.5005 
     28 O          21.5774  -23.8076  -42.4007 O.2       3 UNK        -0.5279 
     29 N          21.6883  -25.8329  -41.3943 N.am      4 UNK        -0.4463 
     30 CA         22.9868  -25.7165  -40.7403 C.3       4 UNK         0.0283 
     31 CB         24.1208  -25.8222  -41.7812 C.3       4 UNK        -0.1875 
     32 C          23.0915  -26.8448  -39.7072 C.2       4 UNK         0.4949 
     33 O          22.2703  -27.7659  -39.7234 O.2       4 UNK        -0.5039 
     34 N          24.1111  -26.7710  -38.8440 N.am      5 UNK        -0.4663 
     35 CA         24.5041  -27.8707  -37.9610 C.3       5 UNK         0.0242 
     36 CB         25.4268  -27.3329  -36.8550 C.3       5 UNK        -0.1982 
     37 C          25.2108  -28.9680  -38.7752 C.2       5 UNK         0.5017 
     38 O          26.0322  -28.6398  -39.6357 O.2       5 UNK        -0.5012 
     39 N          24.8886  -30.2359  -38.4804 N.am      6 UNK        -0.4439 
     40 CA         25.3286  -31.4362  -39.2030 C.3       6 UNK         0.0297 
     41 CB         26.8420  -31.6838  -39.0037 C.3       6 UNK        -0.2006 
     42 C          24.8700  -31.3949  -40.6758 C.2       6 UNK         0.4892 
     43 O          23.6807  -31.1748  -40.9131 O.2       6 UNK        -0.5089 
     44 N          25.7902  -31.6184  -41.6276 N.am      7 UNK        -0.4243 
     45 CA         25.5648  -31.6466  -43.0787 C.3       7 UNK         0.0196 
     46 CB         25.2483  -30.2267  -43.6058 C.3       7 UNK        -0.2007 
     47 C          24.5122  -32.7082  -43.4486 C.2       7 UNK         0.5020 
     48 O          24.7812  -33.8983  -43.2808 O.2       7 UNK        -0.5147 
     49 N          23.3208  -32.2718  -43.8797 N.am      8 UNK        -0.4734 
     50 CA         22.1525  -33.1205  -44.1439 C.3       8 UNK         0.0238 
     51 CB         21.0351  -32.2568  -44.7530 C.3       8 UNK        -0.1912 
     52 C          21.6344  -33.8802  -42.9054 C.2       8 UNK         0.5038 
     53 O          21.0130  -34.9312  -43.0667 O.2       8 UNK        -0.5046 
     54 N          21.9117  -33.3499  -41.7081 N.am      9 UNK        -0.4200 
     55 CA         21.6247  -33.9718  -40.4083 C.3       9 UNK         0.0839 
     56 C          22.8079  -34.8269  -39.8662 C.2       9 UNK         0.5513 
     57 N          23.9193  -34.9783  -40.5791 N.am      9 UNK        -0.7519 
     58 O          22.7126  -35.3796  -38.7737 O.2       9 UNK        -0.4960 
     59 C59        21.1594  -32.9159  -39.3688 C.3       10 UNK        -0.0876 
     60 S60        19.5924  -32.1125  -39.8438 S.3       10 UNK        -0.2414 
     61 C61        20.1967  -30.5901  -40.6361 C.3       10 UNK         0.0169 
     62 H62        14.4524  -26.7621  -50.1186 H         1 UNK         0.0903 
     63 H63        14.9902  -28.3996  -50.5031 H         1 UNK         0.0903 
     64 H64        14.2220  -28.0645  -48.9503 H         1 UNK         0.0903 
     65 H65        15.6954  -27.9445  -47.2648 H         1 UNK         0.3096 
     66 H66        18.5289  -27.7076  -47.6638 H         1 UNK         0.1121 
     67 H67        18.6085  -27.6981  -45.1360 H         1 UNK         0.0849 
     68 H68        16.8725  -27.5378  -45.0900 H         1 UNK         0.0849 
     69 H69        15.6365  -29.5908  -44.2701 H         1 UNK         0.0865 
     70 H70        16.4474  -31.1191  -44.0608 H         1 UNK         0.0865 
     71 H71        18.7287  -31.1597  -42.8527 H         1 UNK         0.1346 
     72 H72        19.0991  -28.2661  -39.7105 H         1 UNK         0.1412 
     73 H73        16.0875  -27.7844  -42.7261 H         1 UNK         0.1426 
     74 H74        16.6947  -26.8933  -39.4631 H         1 UNK         0.0716 
     75 H75        16.1973  -26.1871  -40.9780 H         1 UNK         0.0716 
     76 H76        18.6094  -23.6147  -41.9088 H         1 UNK         0.0695 
     77 H77        17.5884  -24.8919  -42.5106 H         1 UNK         0.0695 
     78 H78        19.6288  -26.3991  -42.6365 H         1 UNK         0.0983 
     79 H79        19.8803  -25.9110  -44.7348 H         1 UNK         0.3095 
     80 H80        18.9306  -23.2901  -46.8183 H         1 UNK         0.0454 
     81 H81        21.7486  -24.4615  -46.4991 H         1 UNK         0.0851 
     82 H82        21.3455  -22.7524  -46.5564 H         1 UNK         0.0851 
     83 H83        21.0841  -23.7549  -47.9731 H         1 UNK         0.0851 
     84 H84        19.9240  -26.0223  -47.0975 H         1 UNK         0.2976 
     85 H85        21.2154  -26.7028  -41.1730 H         1 UNK         0.3116 
     86 H86        23.0416  -24.7583  -40.2197 H         1 UNK         0.0646 
     87 H87        24.0871  -26.7733  -42.3145 H         1 UNK         0.0847 
     88 H88        25.1009  -25.7515  -41.3082 H         1 UNK         0.0847 
     89 H89        24.0659  -25.0225  -42.5197 H         1 UNK         0.0847 
     90 H90        24.7597  -26.0005  -38.9197 H         1 UNK         0.3040 
     91 H91        23.6065  -28.2854  -37.4960 H         1 UNK         0.1015 
     92 H92        24.9311  -26.5623  -36.2642 H         1 UNK         0.0786 
     93 H93        26.3431  -26.9055  -37.2646 H         1 UNK         0.0786 
     94 H94        25.7177  -28.1296  -36.1690 H         1 UNK         0.0786 
     95 H95        24.1879  -30.3937  -37.7696 H         1 UNK         0.3172 
     96 H96        24.7990  -32.2760  -38.7504 H         1 UNK         0.0595 
     97 H97        27.4545  -30.9068  -39.4627 H         1 UNK         0.0839 
     98 H98        27.1452  -32.6425  -39.4266 H         1 UNK         0.0839 
     99 H99        27.0948  -31.7145  -37.9438 H         1 UNK         0.0839 
    100 H100       26.7345  -31.8167  -41.3292 H         1 UNK         0.2998 
    101 H101       26.5001  -31.9703  -43.5379 H         1 UNK         0.0822 
    102 H102       24.3508  -29.8022  -43.1544 H         1 UNK         0.0787 
    103 H103       26.0702  -29.5433  -43.3918 H         1 UNK         0.0787 
    104 H104       25.1103  -30.2288  -44.6879 H         1 UNK         0.0787 
    105 H105       23.1844  -31.2741  -43.9561 H         1 UNK         0.3055 
    106 H106       22.4472  -33.8734  -44.8782 H         1 UNK         0.1106 
    107 H107       20.7529  -31.4372  -44.0919 H         1 UNK         0.0828 
    108 H108       21.3411  -31.8264  -45.7066 H         1 UNK         0.0828 
    109 H109       20.1378  -32.8483  -44.9412 H         1 UNK         0.0828 
    110 H110       22.4635  -32.4981  -41.6636 H         1 UNK         0.2931 
    111 H111       20.8008  -34.6763  -40.5367 H         1 UNK         0.0412 
    112 H112       24.0193  -34.5656  -41.4990 H         1 UNK         0.3472 
    113 H113       24.6617  -35.5489  -40.2069 H         1 UNK         0.3472 
    114 H114       20.9898  -33.3858  -38.3983 H         1 UNK         0.0970 
    115 H115       21.9290  -32.1608  -39.2029 H         1 UNK         0.0970 
    116 H116       20.9046  -30.8341  -41.4281 H         1 UNK         0.0612 
    117 H117       20.7458  -29.9987  -39.9022 H         1 UNK         0.0612 
@<TRIPOS>BOND
     1    1    2 1    
     2    1   62 1    
     3    1   63 1    
     4    1   64 1    
     5    2    3 2    
     6    2    4 am   BACKBONE|DICT|INTERRES
     7    4    5 1    
     8    4   65 1    
     9    5    6 1    
    10    5   25 1    
    11    5   66 1    
    12    6    7 1    
    13    6   67 1    
    14    6   68 1    
    15    7    8 1    
    16    8    9 1    
    17    8   69 1    
    18    8   70 1    
    19    9   10 ar   
    20    9   14 ar   
    21   10   11 ar   
    22   10   71 1    
    23   11   12 ar   
    24   11   61 1    
    25   12   13 ar   
    26   12   72 1    
    27   13   14 ar   
    28   13   15 1    
    29   14   73 1    
    30   15   16 1    
    31   15   74 1    
    32   15   75 1    
    33   16   17 1    
    34   17   18 1    
    35   17   76 1    
    36   17   77 1    
    37   18   19 1    
    38   18   27 1    
    39   18   78 1    
    40   19   20 am   BACKBONE|DICT|INTERRES
    41   19   79 1    
    42   20   21 2    
    43   20   22 1    
    44   22   23 1    
    45   22   24 1    
    46   22   80 1    
    47   23   81 1    
    48   23   82 1    
    49   23   83 1    
    50   24   25 am   BACKBONE|DICT|INTERRES
    51   24   84 1    
    52   25   26 2    
    53   27   28 2    
    54   27   29 am   BACKBONE|DICT|INTERRES
    55   29   30 1    
    56   29   85 1    
    57   30   31 1    
    58   30   32 1    
    59   30   86 1    
    60   31   87 1    
    61   31   88 1    
    62   31   89 1    
    63   32   33 2    
    64   32   34 am   BACKBONE|DICT|INTERRES
    65   34   35 1    
    66   34   90 1    
    67   35   36 1    
    68   35   37 1    
    69   35   91 1    
    70   36   92 1    
    71   36   93 1    
    72   36   94 1    
    73   37   38 2    
    74   37   39 am   BACKBONE|DICT|INTERRES
    75   39   40 1    
    76   39   95 1    
    77   40   41 1    
    78   40   42 1    
    79   40   96 1    
    80   41   97 1    
    81   41   98 1    
    82   41   99 1    
    83   42   43 2    
    84   42   44 am   BACKBONE|DICT|INTERRES
    85   44   45 1    
    86   44  100 1    
    87   45   46 1    
    88   45   47 1    
    89   45  101 1    
    90   46  102 1    
    91   46  103 1    
    92   46  104 1    
    93   47   48 2    
    94   47   49 am   BACKBONE|DICT|INTERRES
    95   49   50 1    
    96   49  105 1    
    97   50   51 1    
    98   50   52 1    
    99   50  106 1    
   100   51  107 1    
   101   51  108 1    
   102   51  109 1    
   103   52   53 2    
   104   52   54 am   BACKBONE|DICT|INTERRES
   105   54   55 1    
   106   54  110 1    
   107   55   56 1    
   108   55   59 1    
   109   55  111 1    
   110   56   57 am   BACKBONE|DICT|INTERRES
   111   56   58 2    
   112   57  112 1    
   113   57  113 1    
   114   59   60 1    
   115   59  114 1    
   116   59  115 1    
   117   60   61 1    
   118   61  116 1    
   119   61  117 1    
@<TRIPOS>SUBSTRUCTURE
     1 UNK         1 GROUP             0       ****    0 ROOT    
