@<TRIPOS>MOLECULE
3R8
117   119    1
SMALL
USER_CHARGES


@<TRIPOS>ATOM
      1 CA         15.3943  -23.1051  -44.9424 C.3       0 UNK        -0.2013 
      2 C          15.5478  -24.6234  -44.9102 C.2       0 UNK         0.4866 
      3 O          14.6875  -25.3038  -44.3560 O.2       0 UNK        -0.5176 
      4 N          16.6074  -25.2099  -45.4867 N.am      1 UNK        -0.4884 
      5 CA         17.7556  -24.5585  -46.1356 C.3       1 UNK         0.0853 
      6 C6         18.5904  -25.5775  -46.9603 C.3       10 UNK        -0.0849 
      7 S7         19.3383  -26.9243  -45.9681 S.3       10 UNK        -0.2776 
      8 C8         18.2093  -28.3103  -46.2994 C.3       10 UNK         0.0316 
      9 C9         18.3914  -29.3941  -45.2504 C.ar      10 UNK        -0.0863 
     10 C10        19.2472  -30.4735  -45.4907 C.ar      10 UNK        -0.1009 
     11 C11        19.4362  -31.4599  -44.5179 C.ar      10 UNK        -0.0712 
     12 C12        18.7685  -31.3471  -43.2926 C.ar      10 UNK        -0.0894 
     13 C13        17.9020  -30.2797  -43.0448 C.ar      10 UNK        -0.0745 
     14 C14        17.7131  -29.3071  -44.0303 C.ar      10 UNK        -0.0972 
     15 C15        17.1715  -30.1864  -41.7127 C.3       10 UNK         0.0209 
     16 S16        18.2760  -29.6503  -40.3675 S.3       10 UNK        -0.2568 
     17 C17        18.5275  -27.8870  -40.7612 C.3       10 UNK        -0.0983 
     18 CA         19.8052  -27.6228  -41.6010 C.3       3 UNK         0.0876 
     19 N          19.7735  -26.3358  -42.3095 N.am      3 UNK        -0.4424 
     20 C          19.6496  -25.1048  -41.7855 C.2       2 UNK         0.4918 
     21 O          19.5863  -24.8722  -40.5787 O.2       2 UNK        -0.4875 
     22 CA         19.5841  -23.9392  -42.7817 C.3       2 UNK         0.0481 
     23 CB         21.0209  -23.5399  -43.1804 C.3       2 UNK        -0.1831 
     24 N          18.7682  -24.3512  -43.9264 N.am      2 UNK        -0.4498 
     25 C          18.6426  -23.7860  -45.1341 C.2       1 UNK         0.5027 
     26 O          19.1625  -22.7233  -45.4735 O.2       1 UNK        -0.4969 
     27 C          21.1077  -27.8446  -40.8053 C.2       3 UNK         0.5005 
     28 O          21.7870  -28.8473  -41.0301 O.2       3 UNK        -0.5279 
     29 N          21.4732  -26.8906  -39.9385 N.am      4 UNK        -0.4463 
     30 CA         22.7133  -26.8917  -39.1560 C.3       4 UNK         0.0283 
     31 CB         22.6961  -25.7229  -38.1590 C.3       4 UNK        -0.1875 
     32 C          23.9723  -26.8365  -40.0372 C.2       4 UNK         0.4949 
     33 O          24.9409  -27.5415  -39.7579 O.2       4 UNK        -0.5039 
     34 N          23.9117  -26.0529  -41.1242 N.am      5 UNK        -0.4663 
     35 CA         24.9637  -25.9600  -42.1444 C.3       5 UNK         0.0242 
     36 CB         24.6878  -24.7485  -43.0486 C.3       5 UNK        -0.1982 
     37 C          25.1081  -27.2395  -42.9910 C.2       5 UNK         0.5017 
     38 O          26.1769  -27.4696  -43.5563 O.2       5 UNK        -0.5012 
     39 N          24.0431  -28.0510  -43.0435 N.am      6 UNK        -0.4439 
     40 CA         24.0056  -29.3699  -43.6770 C.3       6 UNK         0.0297 
     41 CB         22.6387  -29.5481  -44.3634 C.3       6 UNK        -0.2006 
     42 C          24.2689  -30.5034  -42.6647 C.2       6 UNK         0.4892 
     43 O          24.1135  -31.6702  -43.0275 O.2       6 UNK        -0.5089 
     44 N          24.6226  -30.1526  -41.4151 N.am      7 UNK        -0.4243 
     45 CA         24.8915  -31.0338  -40.2714 C.3       7 UNK         0.0196 
     46 CB         26.2168  -31.7946  -40.4873 C.3       7 UNK        -0.2007 
     47 C          23.7194  -31.9749  -39.9282 C.2       7 UNK         0.5020 
     48 O          23.9528  -33.1047  -39.4954 O.2       7 UNK        -0.5147 
     49 N          22.4810  -31.5189  -40.1783 N.am      8 UNK        -0.4734 
     50 CA         21.2266  -32.2814  -40.0908 C.3       8 UNK         0.0238 
     51 CB         20.8563  -32.5481  -38.6174 C.3       8 UNK        -0.1912 
     52 C          21.2233  -33.5637  -40.9541 C.2       8 UNK         0.5038 
     53 O          20.5766  -34.5473  -40.5909 O.2       8 UNK        -0.5046 
     54 N          21.9613  -33.5195  -42.0714 N.am      9 UNK        -0.4200 
     55 CA         22.2357  -34.6138  -43.0159 C.3       9 UNK         0.0839 
     56 C          23.2531  -35.6669  -42.4794 C.2       9 UNK         0.5513 
     57 N          23.9323  -35.4424  -41.3599 N.am      9 UNK        -0.7519 
     58 O          23.4558  -36.7035  -43.1070 O.2       9 UNK        -0.4960 
     59 C59        20.9641  -35.2840  -43.6224 C.3       10 UNK        -0.0876 
     60 S60        19.6387  -34.2293  -44.3278 S.3       10 UNK        -0.2414 
     61 C61        20.3866  -32.6232  -44.7802 C.3       10 UNK         0.0169 
     62 H62        16.0785  -22.6325  -44.2383 H         1 UNK         0.0903 
     63 H63        15.5759  -22.7020  -45.9376 H         1 UNK         0.0903 
     64 H64        14.3809  -22.8220  -44.6585 H         1 UNK         0.0903 
     65 H65        16.6562  -26.2170  -45.4593 H         1 UNK         0.3096 
     66 H66        17.3676  -23.8233  -46.8433 H         1 UNK         0.1121 
     67 H67        19.3962  -25.0606  -47.4855 H         1 UNK         0.0849 
     68 H68        17.9708  -26.0111  -47.7471 H         1 UNK         0.0849 
     69 H69        17.1737  -27.9685  -46.2983 H         1 UNK         0.0865 
     70 H70        18.4013  -28.7037  -47.2990 H         1 UNK         0.0865 
     71 H71        19.7751  -30.5385  -46.4325 H         1 UNK         0.1346 
     72 H72        18.9171  -32.0975  -42.5289 H         1 UNK         0.1412 
     73 H73        17.0499  -28.4740  -43.8414 H         1 UNK         0.1426 
     74 H74        16.3172  -29.5109  -41.7799 H         1 UNK         0.0716 
     75 H75        16.7633  -31.1660  -41.4597 H         1 UNK         0.0716 
     76 H76        18.5506  -27.3242  -39.8265 H         1 UNK         0.0695 
     77 H77        17.6478  -27.5283  -41.2975 H         1 UNK         0.0695 
     78 H78        19.8287  -28.3637  -42.4009 H         1 UNK         0.0983 
     79 H79        19.8844  -26.4070  -43.3123 H         1 UNK         0.3095 
     80 H80        19.0934  -23.0953  -42.2939 H         1 UNK         0.0454 
     81 H81        21.0419  -22.5854  -43.7052 H         1 UNK         0.0851 
     82 H82        21.4809  -24.2868  -43.8273 H         1 UNK         0.0851 
     83 H83        21.6583  -23.4230  -42.3027 H         1 UNK         0.0851 
     84 H84        18.2235  -25.1890  -43.7719 H         1 UNK         0.2976 
     85 H85        20.8575  -26.0863  -39.8465 H         1 UNK         0.3116 
     86 H86        22.7471  -27.8250  -38.5897 H         1 UNK         0.0646 
     87 H87        21.8538  -25.8010  -37.4714 H         1 UNK         0.0847 
     88 H88        23.6048  -25.7116  -37.5554 H         1 UNK         0.0847 
     89 H89        22.6279  -24.7586  -38.6642 H         1 UNK         0.0847 
     90 H90        23.0798  -25.5008  -41.2705 H         1 UNK         0.3040 
     91 H91        25.9161  -25.7984  -41.6339 H         1 UNK         0.1015 
     92 H92        23.7730  -24.8767  -43.6268 H         1 UNK         0.0786 
     93 H93        25.5013  -24.6035  -43.7609 H         1 UNK         0.0786 
     94 H94        24.5988  -23.8285  -42.4703 H         1 UNK         0.0786 
     95 H95        23.2275  -27.8035  -42.5000 H         1 UNK         0.3172 
     96 H96        24.7797  -29.4329  -44.4442 H         1 UNK         0.0595 
     97 H97        21.8241  -29.6144  -43.6413 H         1 UNK         0.0839 
     98 H98        22.6197  -30.4617  -44.9580 H         1 UNK         0.0839 
     99 H99        22.4186  -28.7228  -45.0409 H         1 UNK         0.0839 
    100 H100       24.6897  -29.1641  -41.2063 H         1 UNK         0.2998 
    101 H101       25.0179  -30.3818  -39.4059 H         1 UNK         0.0822 
    102 H102       26.5003  -32.3523  -39.5939 H         1 UNK         0.0787 
    103 H103       26.1414  -32.5098  -41.3075 H         1 UNK         0.0787 
    104 H104       27.0347  -31.1103  -40.7126 H         1 UNK         0.0787 
    105 H105       22.3829  -30.5678  -40.5327 H         1 UNK         0.3055 
    106 H106       20.4551  -31.6384  -40.5149 H         1 UNK         0.1106 
    107 H107       19.8649  -32.9957  -38.5376 H         1 UNK         0.0828 
    108 H108       21.5614  -33.2293  -38.1402 H         1 UNK         0.0828 
    109 H109       20.8381  -31.6231  -38.0412 H         1 UNK         0.0828 
    110 H110       22.5129  -32.6852  -42.2410 H         1 UNK         0.2931 
    111 H111       22.7667  -34.1399  -43.8415 H         1 UNK         0.0412 
    112 H112       24.5914  -36.1345  -41.0411 H         1 UNK         0.3472 
    113 H113       23.7964  -34.5944  -40.8196 H         1 UNK         0.3472 
    114 H114       20.4942  -35.9200  -42.8705 H         1 UNK         0.0970 
    115 H115       21.2649  -35.9655  -44.4201 H         1 UNK         0.0970 
    116 H116       20.6589  -32.6666  -45.8356 H         1 UNK         0.0612 
    117 H117       21.3083  -32.4199  -44.2450 H         1 UNK         0.0612 
@<TRIPOS>BOND
     1    1    2 1    
     2    1   62 1    
     3    1   63 1    
     4    1   64 1    
     5    2    3 2    
     6    2    4 am   BACKBONE|DICT|INTERRES
     7    4    5 1    
     8    4   65 1    
     9    5    6 1    
    10    5   25 1    
    11    5   66 1    
    12    6    7 1    
    13    6   67 1    
    14    6   68 1    
    15    7    8 1    
    16    8    9 1    
    17    8   69 1    
    18    8   70 1    
    19    9   10 ar   
    20    9   14 ar   
    21   10   11 ar   
    22   10   71 1    
    23   11   12 ar   
    24   11   61 1    
    25   12   13 ar   
    26   12   72 1    
    27   13   14 ar   
    28   13   15 1    
    29   14   73 1    
    30   15   16 1    
    31   15   74 1    
    32   15   75 1    
    33   16   17 1    
    34   17   18 1    
    35   17   76 1    
    36   17   77 1    
    37   18   19 1    
    38   18   27 1    
    39   18   78 1    
    40   19   20 am   BACKBONE|DICT|INTERRES
    41   19   79 1    
    42   20   21 2    
    43   20   22 1    
    44   22   23 1    
    45   22   24 1    
    46   22   80 1    
    47   23   81 1    
    48   23   82 1    
    49   23   83 1    
    50   24   25 am   BACKBONE|DICT|INTERRES
    51   24   84 1    
    52   25   26 2    
    53   27   28 2    
    54   27   29 am   BACKBONE|DICT|INTERRES
    55   29   30 1    
    56   29   85 1    
    57   30   31 1    
    58   30   32 1    
    59   30   86 1    
    60   31   87 1    
    61   31   88 1    
    62   31   89 1    
    63   32   33 2    
    64   32   34 am   BACKBONE|DICT|INTERRES
    65   34   35 1    
    66   34   90 1    
    67   35   36 1    
    68   35   37 1    
    69   35   91 1    
    70   36   92 1    
    71   36   93 1    
    72   36   94 1    
    73   37   38 2    
    74   37   39 am   BACKBONE|DICT|INTERRES
    75   39   40 1    
    76   39   95 1    
    77   40   41 1    
    78   40   42 1    
    79   40   96 1    
    80   41   97 1    
    81   41   98 1    
    82   41   99 1    
    83   42   43 2    
    84   42   44 am   BACKBONE|DICT|INTERRES
    85   44   45 1    
    86   44  100 1    
    87   45   46 1    
    88   45   47 1    
    89   45  101 1    
    90   46  102 1    
    91   46  103 1    
    92   46  104 1    
    93   47   48 2    
    94   47   49 am   BACKBONE|DICT|INTERRES
    95   49   50 1    
    96   49  105 1    
    97   50   51 1    
    98   50   52 1    
    99   50  106 1    
   100   51  107 1    
   101   51  108 1    
   102   51  109 1    
   103   52   53 2    
   104   52   54 am   BACKBONE|DICT|INTERRES
   105   54   55 1    
   106   54  110 1    
   107   55   56 1    
   108   55   59 1    
   109   55  111 1    
   110   56   57 am   BACKBONE|DICT|INTERRES
   111   56   58 2    
   112   57  112 1    
   113   57  113 1    
   114   59   60 1    
   115   59  114 1    
   116   59  115 1    
   117   60   61 1    
   118   61  116 1    
   119   61  117 1    
@<TRIPOS>SUBSTRUCTURE
     1 UNK         1 GROUP             0       ****    0 ROOT    
