@<TRIPOS>MOLECULE
3R8
117   119    1
SMALL
USER_CHARGES


@<TRIPOS>ATOM
      1 CA         15.2178  -25.0542  -41.7050 C.3       0 UNK        -0.2013 
      2 C          16.5806  -25.2736  -41.0533 C.2       0 UNK         0.4866 
      3 O          16.6966  -25.1444  -39.8362 O.2       0 UNK        -0.5176 
      4 N          17.6366  -25.5934  -41.8094 N.am      1 UNK        -0.4884 
      5 CA         17.6815  -25.7349  -43.2637 C.3       1 UNK         0.0853 
      6 C6         17.1922  -27.1289  -43.7380 C.3       10 UNK        -0.0849 
      7 S7         16.4614  -27.0482  -45.4044 S.3       10 UNK        -0.2776 
      8 C8         15.8587  -28.7537  -45.6049 C.3       10 UNK         0.0316 
      9 C9         17.0004  -29.7587  -45.6615 C.ar      10 UNK        -0.0863 
     10 C10        17.1978  -30.6666  -44.6147 C.ar      10 UNK        -0.1009 
     11 C11        18.2291  -31.6088  -44.6794 C.ar      10 UNK        -0.0712 
     12 C12        19.0612  -31.6373  -45.8014 C.ar      10 UNK        -0.0894 
     13 C13        18.9026  -30.7065  -46.8326 C.ar      10 UNK        -0.0745 
     14 C14        17.8579  -29.7813  -46.7663 C.ar      10 UNK        -0.0972 
     15 C15        19.8816  -30.6872  -47.9999 C.3       10 UNK         0.0209 
     16 S16        21.0676  -29.2999  -47.8990 S.3       10 UNK        -0.2568 
     17 C17        21.8441  -29.5581  -46.2625 C.3       10 UNK        -0.0983 
     18 CA         22.2486  -28.2565  -45.5176 C.3       3 UNK         0.0876 
     19 N          21.3224  -27.1344  -45.7080 N.am      3 UNK        -0.4424 
     20 C          21.6626  -25.8539  -45.5046 C.2       2 UNK         0.4918 
     21 O          22.7910  -25.4854  -45.1781 O.2       2 UNK        -0.4875 
     22 CA         20.5505  -24.8051  -45.6685 C.3       2 UNK         0.0481 
     23 CB         20.3089  -24.5015  -47.1559 C.3       2 UNK        -0.1831 
     24 N          19.2841  -25.1761  -45.0294 N.am      2 UNK        -0.4498 
     25 C          19.1202  -25.4432  -43.7261 C.2       1 UNK         0.5027 
     26 O          20.0433  -25.4807  -42.9070 O.2       1 UNK        -0.4969 
     27 C          22.4225  -28.5450  -44.0150 C.2       3 UNK         0.5005 
     28 O          23.5487  -28.7181  -43.5479 O.2       3 UNK        -0.5279 
     29 N          21.2938  -28.5723  -43.2862 N.am      4 UNK        -0.4463 
     30 CA         21.1858  -28.8916  -41.8585 C.3       4 UNK         0.0283 
     31 CB         19.7112  -28.8675  -41.4310 C.3       4 UNK        -0.1875 
     32 C          22.0243  -27.9914  -40.9398 C.2       4 UNK         0.4949 
     33 O          22.4698  -28.4611  -39.8952 O.2       4 UNK        -0.5039 
     34 N          22.2818  -26.7479  -41.3656 N.am      5 UNK        -0.4663 
     35 CA         23.2085  -25.8109  -40.7242 C.3       5 UNK         0.0242 
     36 CB         23.1756  -24.4787  -41.4899 C.3       5 UNK        -0.1982 
     37 C          24.6569  -26.3316  -40.6099 C.2       5 UNK         0.5017 
     38 O          25.3703  -25.9013  -39.7027 O.2       5 UNK        -0.5012 
     39 N          25.0568  -27.2437  -41.5079 N.am      6 UNK        -0.4439 
     40 CA         26.3448  -27.9375  -41.4855 C.3       6 UNK         0.0297 
     41 CB         27.0336  -27.7695  -42.8501 C.3       6 UNK        -0.2006 
     42 C          26.1753  -29.4288  -41.1517 C.2       6 UNK         0.4892 
     43 O          26.9661  -29.9628  -40.3735 O.2       6 UNK        -0.5089 
     44 N          25.1713  -30.0809  -41.7556 N.am      7 UNK        -0.4243 
     45 CA         24.9399  -31.5253  -41.6681 C.3       7 UNK         0.0196 
     46 CB         24.0462  -31.9590  -42.8429 C.3       7 UNK        -0.2007 
     47 C          24.3307  -31.9973  -40.3373 C.2       7 UNK         0.5020 
     48 O          24.4747  -33.1752  -40.0100 O.2       7 UNK        -0.5147 
     49 N          23.6384  -31.1017  -39.6159 N.am      8 UNK        -0.4734 
     50 CA         22.9037  -31.3431  -38.3629 C.3       8 UNK         0.0238 
     51 CB         23.8671  -31.7452  -37.2253 C.3       8 UNK        -0.1912 
     52 C          21.7115  -32.3151  -38.5037 C.2       8 UNK         0.5038 
     53 O          21.2646  -32.8754  -37.5007 O.2       8 UNK        -0.5046 
     54 N          21.2166  -32.4997  -39.7344 N.am      9 UNK        -0.4200 
     55 CA         20.0562  -33.3347  -40.0687 C.3       9 UNK         0.0839 
     56 C          18.6980  -32.7151  -39.6325 C.2       9 UNK         0.5513 
     57 N          17.6407  -33.5151  -39.5960 N.am      9 UNK        -0.7519 
     58 O          18.5844  -31.5257  -39.3439 O.2       9 UNK        -0.4960 
     59 C59        20.0786  -33.7561  -41.5626 C.3       10 UNK        -0.0876 
     60 S60        20.0638  -32.3622  -42.7439 S.3       10 UNK        -0.2414 
     61 C61        18.4479  -32.6043  -43.5487 C.3       10 UNK         0.0169 
     62 H62        14.4350  -25.0216  -40.9475 H         1 UNK         0.0903 
     63 H63        15.2014  -24.1061  -42.2417 H         1 UNK         0.0903 
     64 H64        14.9653  -25.8527  -42.4005 H         1 UNK         0.0903 
     65 H65        18.5529  -25.6601  -41.3822 H         1 UNK         0.3096 
     66 H66        17.0522  -24.9514  -43.6919 H         1 UNK         0.1121 
     67 H67        16.4301  -27.5241  -43.0654 H         1 UNK         0.0849 
     68 H68        17.9967  -27.8663  -43.7264 H         1 UNK         0.0849 
     69 H69        15.1660  -28.9912  -44.7959 H         1 UNK         0.0865 
     70 H70        15.2807  -28.8178  -46.5279 H         1 UNK         0.0865 
     71 H71        16.5453  -30.6445  -43.7525 H         1 UNK         0.1346 
     72 H72        19.8639  -32.3609  -45.8477 H         1 UNK         0.1412 
     73 H73        17.7240  -29.0649  -47.5657 H         1 UNK         0.1426 
     74 H74        19.3274  -30.6111  -48.9364 H         1 UNK         0.0716 
     75 H75        20.4380  -31.6245  -48.0506 H         1 UNK         0.0716 
     76 H76        22.7246  -30.1875  -46.4038 H         1 UNK         0.0695 
     77 H77        21.1737  -30.1475  -45.6419 H         1 UNK         0.0695 
     78 H78        23.2232  -27.9518  -45.9064 H         1 UNK         0.0983 
     79 H79        20.3886  -27.3583  -46.0189 H         1 UNK         0.3095 
     80 H80        20.8953  -23.8864  -45.1895 H         1 UNK         0.0454 
     81 H81        19.9160  -25.3680  -47.6895 H         1 UNK         0.0851 
     82 H82        21.2365  -24.2086  -47.6498 H         1 UNK         0.0851 
     83 H83        19.6041  -23.6800  -47.2845 H         1 UNK         0.0851 
     84 H84        18.4706  -25.2078  -45.6288 H         1 UNK         0.2976 
     85 H85        20.4255  -28.4027  -43.7695 H         1 UNK         0.3116 
     86 H86        21.5566  -29.9092  -41.7310 H         1 UNK         0.0646 
     87 H87        19.1070  -29.5519  -42.0266 H         1 UNK         0.0847 
     88 H88        19.2820  -27.8707  -41.5186 H         1 UNK         0.0847 
     89 H89        19.6059  -29.1735  -40.3893 H         1 UNK         0.0847 
     90 H90        21.8047  -26.4194  -42.1982 H         1 UNK         0.3040 
     91 H91        22.8474  -25.6366  -39.7084 H         1 UNK         0.1015 
     92 H92        23.8332  -23.7427  -41.0253 H         1 UNK         0.0786 
     93 H93        22.1716  -24.0535  -41.5032 H         1 UNK         0.0786 
     94 H94        23.4997  -24.6018  -42.5243 H         1 UNK         0.0786 
     95 H95        24.3924  -27.5485  -42.2134 H         1 UNK         0.3172 
     96 H96        26.9989  -27.5045  -40.7260 H         1 UNK         0.0595 
     97 H97        26.4295  -28.1742  -43.6633 H         1 UNK         0.0839 
     98 H98        27.9951  -28.2845  -42.8687 H         1 UNK         0.0839 
     99 H99        27.2250  -26.7187  -43.0682 H         1 UNK         0.0839 
    100 H100       24.5796  -29.5713  -42.4109 H         1 UNK         0.2998 
    101 H101       25.9037  -32.0278  -41.7755 H         1 UNK         0.0822 
    102 H102       24.5050  -31.7148  -43.8011 H         1 UNK         0.0787 
    103 H103       23.8760  -33.0366  -42.8309 H         1 UNK         0.0787 
    104 H104       23.0698  -31.4759  -42.8096 H         1 UNK         0.0787 
    105 H105       23.5630  -30.1513  -39.9661 H         1 UNK         0.3055 
    106 H106       22.4610  -30.3856  -38.0846 H         1 UNK         0.1106 
    107 H107       24.2883  -32.7386  -37.3810 H         1 UNK         0.0828 
    108 H108       23.3533  -31.7597  -36.2633 H         1 UNK         0.0828 
    109 H109       24.6933  -31.0396  -37.1376 H         1 UNK         0.0828 
    110 H110       21.6220  -31.9836  -40.4992 H         1 UNK         0.2931 
    111 H111       20.1639  -34.2525  -39.4868 H         1 UNK         0.0412 
    112 H112       17.7158  -34.4949  -39.8207 H         1 UNK         0.3472 
    113 H113       16.7494  -33.1326  -39.3207 H         1 UNK         0.3472 
    114 H114       19.2543  -34.4375  -41.7797 H         1 UNK         0.0970 
    115 H115       20.9823  -34.3362  -41.7559 H         1 UNK         0.0970 
    116 H116       17.6610  -32.5197  -42.7975 H         1 UNK         0.0612 
    117 H117       18.3913  -33.6163  -43.9522 H         1 UNK         0.0612 
@<TRIPOS>BOND
     1    1    2 1    
     2    1   62 1    
     3    1   63 1    
     4    1   64 1    
     5    2    3 2    
     6    2    4 am   BACKBONE|DICT|INTERRES
     7    4    5 1    
     8    4   65 1    
     9    5    6 1    
    10    5   25 1    
    11    5   66 1    
    12    6    7 1    
    13    6   67 1    
    14    6   68 1    
    15    7    8 1    
    16    8    9 1    
    17    8   69 1    
    18    8   70 1    
    19    9   10 ar   
    20    9   14 ar   
    21   10   11 ar   
    22   10   71 1    
    23   11   12 ar   
    24   11   61 1    
    25   12   13 ar   
    26   12   72 1    
    27   13   14 ar   
    28   13   15 1    
    29   14   73 1    
    30   15   16 1    
    31   15   74 1    
    32   15   75 1    
    33   16   17 1    
    34   17   18 1    
    35   17   76 1    
    36   17   77 1    
    37   18   19 1    
    38   18   27 1    
    39   18   78 1    
    40   19   20 am   BACKBONE|DICT|INTERRES
    41   19   79 1    
    42   20   21 2    
    43   20   22 1    
    44   22   23 1    
    45   22   24 1    
    46   22   80 1    
    47   23   81 1    
    48   23   82 1    
    49   23   83 1    
    50   24   25 am   BACKBONE|DICT|INTERRES
    51   24   84 1    
    52   25   26 2    
    53   27   28 2    
    54   27   29 am   BACKBONE|DICT|INTERRES
    55   29   30 1    
    56   29   85 1    
    57   30   31 1    
    58   30   32 1    
    59   30   86 1    
    60   31   87 1    
    61   31   88 1    
    62   31   89 1    
    63   32   33 2    
    64   32   34 am   BACKBONE|DICT|INTERRES
    65   34   35 1    
    66   34   90 1    
    67   35   36 1    
    68   35   37 1    
    69   35   91 1    
    70   36   92 1    
    71   36   93 1    
    72   36   94 1    
    73   37   38 2    
    74   37   39 am   BACKBONE|DICT|INTERRES
    75   39   40 1    
    76   39   95 1    
    77   40   41 1    
    78   40   42 1    
    79   40   96 1    
    80   41   97 1    
    81   41   98 1    
    82   41   99 1    
    83   42   43 2    
    84   42   44 am   BACKBONE|DICT|INTERRES
    85   44   45 1    
    86   44  100 1    
    87   45   46 1    
    88   45   47 1    
    89   45  101 1    
    90   46  102 1    
    91   46  103 1    
    92   46  104 1    
    93   47   48 2    
    94   47   49 am   BACKBONE|DICT|INTERRES
    95   49   50 1    
    96   49  105 1    
    97   50   51 1    
    98   50   52 1    
    99   50  106 1    
   100   51  107 1    
   101   51  108 1    
   102   51  109 1    
   103   52   53 2    
   104   52   54 am   BACKBONE|DICT|INTERRES
   105   54   55 1    
   106   54  110 1    
   107   55   56 1    
   108   55   59 1    
   109   55  111 1    
   110   56   57 am   BACKBONE|DICT|INTERRES
   111   56   58 2    
   112   57  112 1    
   113   57  113 1    
   114   59   60 1    
   115   59  114 1    
   116   59  115 1    
   117   60   61 1    
   118   61  116 1    
   119   61  117 1    
@<TRIPOS>SUBSTRUCTURE
     1 UNK         1 GROUP             0       ****    0 ROOT    
