@<TRIPOS>MOLECULE
3R8
117   119    1
SMALL
USER_CHARGES


@<TRIPOS>ATOM
      1 CA         15.8353  -25.6534  -46.3661 C.3       0 UNK        -0.2013 
      2 C          15.7372  -24.5334  -45.3341 C.2       0 UNK         0.4866 
      3 O          15.3994  -23.4084  -45.6970 O.2       0 UNK        -0.5176 
      4 N          16.0196  -24.7751  -44.0483 N.am      1 UNK        -0.4884 
      5 CA         16.4789  -26.0329  -43.4595 C.3       1 UNK         0.0853 
      6 C6         15.4100  -26.6685  -42.5312 C.3       10 UNK        -0.0849 
      7 S7         14.2672  -27.7205  -43.4863 S.3       10 UNK        -0.2776 
      8 C8         14.9465  -29.3865  -43.1719 C.3       10 UNK         0.0316 
      9 C9         16.4327  -29.4861  -43.4987 C.ar      10 UNK        -0.0863 
     10 C10        17.3733  -29.5943  -42.4690 C.ar      10 UNK        -0.1009 
     11 C11        18.7379  -29.6790  -42.7578 C.ar      10 UNK        -0.0712 
     12 C12        19.1612  -29.6554  -44.0891 C.ar      10 UNK        -0.0894 
     13 C13        18.2336  -29.5359  -45.1284 C.ar      10 UNK        -0.0745 
     14 C14        16.8695  -29.4617  -44.8270 C.ar      10 UNK        -0.0972 
     15 C15        18.6976  -29.4981  -46.5773 C.3       10 UNK         0.0209 
     16 S16        19.3165  -27.8509  -47.0495 S.3       10 UNK        -0.2568 
     17 C17        21.1137  -28.0431  -46.7804 C.3       10 UNK        -0.0983 
     18 CA         21.8078  -26.7370  -46.3022 C.3       3 UNK         0.0876 
     19 N          21.1677  -26.1636  -45.1046 N.am      3 UNK        -0.4424 
     20 C          21.1931  -26.6593  -43.8575 C.2       2 UNK         0.4918 
     21 O          21.8783  -27.6179  -43.5048 O.2       2 UNK        -0.4875 
     22 CA         20.2697  -25.9830  -42.8442 C.3       2 UNK         0.0481 
     23 CB         20.7246  -24.5405  -42.5449 C.3       2 UNK        -0.1831 
     24 N          18.9091  -26.0455  -43.3698 N.am      2 UNK        -0.4498 
     25 C          17.7862  -25.7336  -42.7147 C.2       1 UNK         0.5027 
     26 O          17.7486  -25.2228  -41.5944 O.2       1 UNK        -0.4969 
     27 C          23.3417  -26.9187  -46.1656 C.2       3 UNK         0.5005 
     28 O          23.9106  -27.8111  -46.7960 O.2       3 UNK        -0.5279 
     29 N          23.9742  -26.1027  -45.3056 N.am      4 UNK        -0.4463 
     30 CA         25.3695  -26.1727  -44.8399 C.3       4 UNK         0.0283 
     31 CB         26.3644  -26.0127  -46.0086 C.3       4 UNK        -0.1875 
     32 C          25.7021  -27.4060  -43.9680 C.2       4 UNK         0.4949 
     33 O          26.8431  -27.5276  -43.5212 O.2       4 UNK        -0.5039 
     34 N          24.7186  -28.2782  -43.7103 N.am      5 UNK        -0.4663 
     35 CA         24.8228  -29.4334  -42.8184 C.3       5 UNK         0.0242 
     36 CB         23.8870  -30.5430  -43.3240 C.3       5 UNK        -0.1982 
     37 C          24.4732  -29.0501  -41.3735 C.2       5 UNK         0.5017 
     38 O          25.1011  -29.5632  -40.4462 O.2       5 UNK        -0.5012 
     39 N          23.4838  -28.1566  -41.2167 N.am      6 UNK        -0.4439 
     40 CA         22.9671  -27.5407  -39.9871 C.3       6 UNK         0.0297 
     41 CB         24.0388  -26.6650  -39.3081 C.3       6 UNK        -0.2006 
     42 C          22.3317  -28.5337  -38.9977 C.2       6 UNK         0.4892 
     43 O          21.1343  -28.4357  -38.7303 O.2       6 UNK        -0.5089 
     44 N          23.1445  -29.4578  -38.4777 N.am      7 UNK        -0.4243 
     45 CA         22.7556  -30.5326  -37.5644 C.3       7 UNK         0.0196 
     46 CB         23.3538  -30.2485  -36.1762 C.3       7 UNK        -0.2007 
     47 C          23.1978  -31.9149  -38.0746 C.2       7 UNK         0.5020 
     48 O          22.7518  -32.9193  -37.5211 O.2       7 UNK        -0.5147 
     49 N          24.0535  -31.9668  -39.1083 N.am      8 UNK        -0.4734 
     50 CA         24.5470  -33.2098  -39.7143 C.3       8 UNK         0.0238 
     51 CB         25.8822  -32.9216  -40.4224 C.3       8 UNK        -0.1912 
     52 C          23.5458  -33.8642  -40.6863 C.2       8 UNK         0.5038 
     53 O          23.7888  -34.9891  -41.1258 O.2       8 UNK        -0.5046 
     54 N          22.4638  -33.1514  -41.0233 N.am      9 UNK        -0.4200 
     55 CA         21.3601  -33.6164  -41.8723 C.3       9 UNK         0.0839 
     56 C          20.5519  -34.7948  -41.2572 C.2       9 UNK         0.5513 
     57 N          19.9108  -35.6012  -42.0916 N.am      9 UNK        -0.7519 
     58 O          20.4762  -34.9710  -40.0433 O.2       9 UNK        -0.4960 
     59 C59        20.4436  -32.4386  -42.2992 C.3       10 UNK        -0.0876 
     60 S60        19.7999  -31.4476  -40.9032 S.3       10 UNK        -0.2414 
     61 C61        19.7531  -29.7801  -41.6284 C.3       10 UNK         0.0169 
     62 H62        15.2297  -26.5108  -46.0751 H         1 UNK         0.0903 
     63 H63        15.4751  -25.3117  -47.3361 H         1 UNK         0.0903 
     64 H64        16.8685  -25.9753  -46.4915 H         1 UNK         0.0903 
     65 H65        15.9770  -24.0043  -43.3949 H         1 UNK         0.3096 
     66 H66        16.7322  -26.7571  -44.2329 H         1 UNK         0.1121 
     67 H67        14.8372  -25.8995  -42.0098 H         1 UNK         0.0849 
     68 H68        15.8619  -27.2759  -41.7447 H         1 UNK         0.0849 
     69 H69        14.7623  -29.6541  -42.1301 H         1 UNK         0.0865 
     70 H70        14.3961  -30.1127  -43.7718 H         1 UNK         0.0865 
     71 H71        17.0476  -29.6131  -41.4379 H         1 UNK         0.1346 
     72 H72        20.2161  -29.7214  -44.3119 H         1 UNK         0.1412 
     73 H73        16.1445  -29.3713  -45.6248 H         1 UNK         0.1426 
     74 H74        17.8709  -29.7564  -47.2407 H         1 UNK         0.0716 
     75 H75        19.4639  -30.2558  -46.7482 H         1 UNK         0.0716 
     76 H76        21.5409  -28.3788  -47.7270 H         1 UNK         0.0695 
     77 H77        21.2987  -28.8462  -46.0671 H         1 UNK         0.0695 
     78 H78        21.6805  -25.9956  -47.0927 H         1 UNK         0.0983 
     79 H79        20.5964  -25.3491  -45.2796 H         1 UNK         0.3095 
     80 H80        20.3038  -26.5638  -41.9204 H         1 UNK         0.0454 
     81 H81        20.1624  -24.1079  -41.7179 H         1 UNK         0.0851 
     82 H82        20.6021  -23.8837  -43.4064 H         1 UNK         0.0851 
     83 H83        21.7766  -24.5143  -42.2577 H         1 UNK         0.0851 
     84 H84        18.8301  -26.4885  -44.2759 H         1 UNK         0.2976 
     85 H85        23.4076  -25.4033  -44.8461 H         1 UNK         0.3116 
     86 H86        25.4999  -25.3098  -44.1854 H         1 UNK         0.0646 
     87 H87        26.3585  -26.8780  -46.6714 H         1 UNK         0.0847 
     88 H88        26.1386  -25.1295  -46.6056 H         1 UNK         0.0847 
     89 H89        27.3845  -25.8997  -45.6395 H         1 UNK         0.0847 
     90 H90        23.7982  -28.0843  -44.0866 H         1 UNK         0.3040 
     91 H91        25.8469  -29.8136  -42.8282 H         1 UNK         0.1015 
     92 H92        23.9517  -31.4291  -42.6938 H         1 UNK         0.0786 
     93 H93        24.1506  -30.8488  -44.3365 H         1 UNK         0.0786 
     94 H94        22.8454  -30.2216  -43.3351 H         1 UNK         0.0786 
     95 H95        22.9907  -27.8840  -42.0640 H         1 UNK         0.3172 
     96 H96        22.1678  -26.8723  -40.3105 H         1 UNK         0.0595 
     97 H97        24.9072  -27.2432  -38.9912 H         1 UNK         0.0839 
     98 H98        23.6356  -26.1735  -38.4216 H         1 UNK         0.0839 
     99 H99        24.3897  -25.8815  -39.9798 H         1 UNK         0.0839 
    100 H100       24.1040  -29.4574  -38.8102 H         1 UNK         0.2998 
    101 H101       21.6682  -30.5698  -37.4726 H         1 UNK         0.0822 
    102 H102       23.0713  -31.0221  -35.4605 H         1 UNK         0.0787 
    103 H103       22.9981  -29.2974  -35.7807 H         1 UNK         0.0787 
    104 H104       24.4432  -30.2129  -36.2069 H         1 UNK         0.0787 
    105 H105       24.3960  -31.1057  -39.5222 H         1 UNK         0.3055 
    106 H106       24.7360  -33.9350  -38.9194 H         1 UNK         0.1106 
    107 H107       26.6182  -32.5140  -39.7293 H         1 UNK         0.0828 
    108 H108       26.3076  -33.8337  -40.8433 H         1 UNK         0.0828 
    109 H109       25.7646  -32.2107  -41.2402 H         1 UNK         0.0828 
    110 H110       22.3196  -32.2632  -40.5685 H         1 UNK         0.2931 
    111 H111       21.8242  -34.0033  -42.7820 H         1 UNK         0.0412 
    112 H112       19.3715  -36.3662  -41.7162 H         1 UNK         0.3472 
    113 H113       19.9614  -35.4680  -43.0894 H         1 UNK         0.3472 
    114 H114       19.5989  -32.7936  -42.8926 H         1 UNK         0.0970 
    115 H115       21.0058  -31.7832  -42.9644 H         1 UNK         0.0970 
    116 H116       19.4929  -29.0633  -40.8486 H         1 UNK         0.0612 
    117 H117       20.7518  -29.5074  -41.9704 H         1 UNK         0.0612 
@<TRIPOS>BOND
     1    1    2 1    
     2    1   62 1    
     3    1   63 1    
     4    1   64 1    
     5    2    3 2    
     6    2    4 am   BACKBONE|DICT|INTERRES
     7    4    5 1    
     8    4   65 1    
     9    5    6 1    
    10    5   25 1    
    11    5   66 1    
    12    6    7 1    
    13    6   67 1    
    14    6   68 1    
    15    7    8 1    
    16    8    9 1    
    17    8   69 1    
    18    8   70 1    
    19    9   10 ar   
    20    9   14 ar   
    21   10   11 ar   
    22   10   71 1    
    23   11   12 ar   
    24   11   61 1    
    25   12   13 ar   
    26   12   72 1    
    27   13   14 ar   
    28   13   15 1    
    29   14   73 1    
    30   15   16 1    
    31   15   74 1    
    32   15   75 1    
    33   16   17 1    
    34   17   18 1    
    35   17   76 1    
    36   17   77 1    
    37   18   19 1    
    38   18   27 1    
    39   18   78 1    
    40   19   20 am   BACKBONE|DICT|INTERRES
    41   19   79 1    
    42   20   21 2    
    43   20   22 1    
    44   22   23 1    
    45   22   24 1    
    46   22   80 1    
    47   23   81 1    
    48   23   82 1    
    49   23   83 1    
    50   24   25 am   BACKBONE|DICT|INTERRES
    51   24   84 1    
    52   25   26 2    
    53   27   28 2    
    54   27   29 am   BACKBONE|DICT|INTERRES
    55   29   30 1    
    56   29   85 1    
    57   30   31 1    
    58   30   32 1    
    59   30   86 1    
    60   31   87 1    
    61   31   88 1    
    62   31   89 1    
    63   32   33 2    
    64   32   34 am   BACKBONE|DICT|INTERRES
    65   34   35 1    
    66   34   90 1    
    67   35   36 1    
    68   35   37 1    
    69   35   91 1    
    70   36   92 1    
    71   36   93 1    
    72   36   94 1    
    73   37   38 2    
    74   37   39 am   BACKBONE|DICT|INTERRES
    75   39   40 1    
    76   39   95 1    
    77   40   41 1    
    78   40   42 1    
    79   40   96 1    
    80   41   97 1    
    81   41   98 1    
    82   41   99 1    
    83   42   43 2    
    84   42   44 am   BACKBONE|DICT|INTERRES
    85   44   45 1    
    86   44  100 1    
    87   45   46 1    
    88   45   47 1    
    89   45  101 1    
    90   46  102 1    
    91   46  103 1    
    92   46  104 1    
    93   47   48 2    
    94   47   49 am   BACKBONE|DICT|INTERRES
    95   49   50 1    
    96   49  105 1    
    97   50   51 1    
    98   50   52 1    
    99   50  106 1    
   100   51  107 1    
   101   51  108 1    
   102   51  109 1    
   103   52   53 2    
   104   52   54 am   BACKBONE|DICT|INTERRES
   105   54   55 1    
   106   54  110 1    
   107   55   56 1    
   108   55   59 1    
   109   55  111 1    
   110   56   57 am   BACKBONE|DICT|INTERRES
   111   56   58 2    
   112   57  112 1    
   113   57  113 1    
   114   59   60 1    
   115   59  114 1    
   116   59  115 1    
   117   60   61 1    
   118   61  116 1    
   119   61  117 1    
@<TRIPOS>SUBSTRUCTURE
     1 UNK         1 GROUP             0       ****    0 ROOT    
