@<TRIPOS>MOLECULE
3R8
117   119    1
SMALL
USER_CHARGES


@<TRIPOS>ATOM
      1 CA         19.1393  -24.0688  -39.0605 C.3       0 UNK        -0.2013 
      2 C          18.5134  -24.7456  -40.2713 C.2       0 UNK         0.4866 
      3 O          17.2903  -24.7288  -40.4102 O.2       0 UNK        -0.5176 
      4 N          19.3383  -25.3350  -41.1427 N.am      1 UNK        -0.4884 
      5 CA         18.9240  -26.0210  -42.3676 C.3       1 UNK         0.0853 
      6 C6         18.9432  -27.5646  -42.2047 C.3       10 UNK        -0.0849 
      7 S7         17.3799  -28.2309  -41.5450 S.3       10 UNK        -0.2776 
      8 C8         16.4585  -28.6197  -43.0744 C.3       10 UNK         0.0316 
      9 C9         16.9888  -29.8585  -43.7891 C.ar      10 UNK        -0.0863 
     10 C10        16.5662  -31.1327  -43.3964 C.ar      10 UNK        -0.1009 
     11 C11        17.0397  -32.2740  -44.0532 C.ar      10 UNK        -0.0712 
     12 C12        17.9483  -32.1355  -45.1063 C.ar      10 UNK        -0.0894 
     13 C13        18.3855  -30.8694  -45.5027 C.ar      10 UNK        -0.0745 
     14 C14        17.8829  -29.7346  -44.8579 C.ar      10 UNK        -0.0972 
     15 C15        19.4019  -30.7325  -46.6279 C.3       10 UNK         0.0209 
     16 S16        21.1006  -31.0929  -46.0681 S.3       10 UNK        -0.2568 
     17 C17        21.4574  -29.6657  -44.9924 C.3       10 UNK        -0.0983 
     18 CA         22.2624  -28.5553  -45.7287 C.3       3 UNK         0.0876 
     19 N          21.6300  -27.2481  -45.5859 N.am      3 UNK        -0.4424 
     20 C          20.7080  -26.7265  -46.3979 C.2       2 UNK         0.4918 
     21 O          20.2908  -27.2860  -47.4125 O.2       2 UNK        -0.4875 
     22 CA         20.1181  -25.3715  -45.9616 C.3       2 UNK         0.0481 
     23 CB         19.2143  -24.7438  -47.0388 C.3       2 UNK        -0.1831 
     24 N          19.3467  -25.5371  -44.7273 N.am      2 UNK        -0.4498 
     25 C          19.8758  -25.6049  -43.4984 C.2       1 UNK         0.5027 
     26 O          21.0733  -25.4288  -43.2639 O.2       1 UNK        -0.4969 
     27 C          23.7003  -28.4434  -45.1993 C.2       3 UNK         0.5005 
     28 O          24.0064  -27.5118  -44.4487 O.2       3 UNK        -0.5279 
     29 N          24.5493  -29.4160  -45.5597 N.am      4 UNK        -0.4463 
     30 CA         25.9702  -29.4833  -45.1867 C.3       4 UNK         0.0283 
     31 CB         26.6197  -30.6878  -45.8870 C.3       4 UNK        -0.1875 
     32 C          26.2375  -29.5394  -43.6695 C.2       4 UNK         0.4949 
     33 O          27.3149  -29.1365  -43.2315 O.2       4 UNK        -0.5039 
     34 N          25.2529  -30.0171  -42.8973 N.am      5 UNK        -0.4663 
     35 CA         25.2744  -30.0477  -41.4341 C.3       5 UNK         0.0242 
     36 CB         24.2308  -31.0677  -40.9506 C.3       5 UNK        -0.1982 
     37 C          25.0263  -28.6751  -40.7769 C.2       5 UNK         0.5017 
     38 O          25.2457  -28.5554  -39.5717 O.2       5 UNK        -0.5012 
     39 N          24.5464  -27.6817  -41.5446 N.am      6 UNK        -0.4439 
     40 CA         24.1681  -26.3104  -41.1593 C.3       6 UNK         0.0297 
     41 CB         25.3537  -25.5405  -40.5460 C.3       6 UNK        -0.2006 
     42 C          22.9139  -26.2028  -40.2689 C.2       6 UNK         0.4892 
     43 O          22.1675  -25.2334  -40.4030 O.2       6 UNK        -0.5089 
     44 N          22.6777  -27.1900  -39.4034 N.am      7 UNK        -0.4243 
     45 CA         21.4526  -27.3912  -38.6425 C.3       7 UNK         0.0196 
     46 CB         21.6399  -26.8975  -37.1992 C.3       7 UNK        -0.2007 
     47 C          21.1447  -28.8889  -38.6951 C.2       7 UNK         0.5020 
     48 O          22.0593  -29.6957  -38.5125 O.2       7 UNK        -0.5147 
     49 N          19.8738  -29.2214  -38.9560 N.am      8 UNK        -0.4734 
     50 CA         19.3583  -30.5621  -39.2660 C.3       8 UNK         0.0238 
     51 CB         19.5780  -31.5340  -38.0839 C.3       8 UNK        -0.1912 
     52 C          19.8987  -31.1134  -40.6043 C.2       8 UNK         0.5038 
     53 O          20.5674  -30.3991  -41.3554 O.2       8 UNK        -0.5046 
     54 N          19.5440  -32.3667  -40.9024 N.am      9 UNK        -0.4200 
     55 CA         19.8743  -33.0521  -42.1568 C.3       9 UNK         0.0839 
     56 C          21.3891  -33.3658  -42.2738 C.2       9 UNK         0.5513 
     57 N          22.0019  -33.0898  -43.4166 N.am      9 UNK        -0.7519 
     58 O          21.9968  -33.9069  -41.3527 O.2       9 UNK        -0.4960 
     59 C59        19.0283  -34.3412  -42.3525 C.3       10 UNK        -0.0876 
     60 S60        17.2457  -34.1290  -41.9991 S.3       10 UNK        -0.2414 
     61 C61        16.5740  -33.6572  -43.6229 C.3       10 UNK         0.0169 
     62 H62        20.2262  -24.0390  -39.1226 H         1 UNK         0.0903 
     63 H63        18.7803  -23.0435  -38.9758 H         1 UNK         0.0903 
     64 H64        18.8661  -24.6021  -38.1505 H         1 UNK         0.0903 
     65 H65        20.3486  -25.2620  -41.0185 H         1 UNK         0.3096 
     66 H66        17.9220  -25.6932  -42.6545 H         1 UNK         0.1121 
     67 H67        19.7588  -27.8640  -41.5451 H         1 UNK         0.0849 
     68 H68        19.1513  -28.0726  -43.1444 H         1 UNK         0.0849 
     69 H69        16.4751  -27.7561  -43.7407 H         1 UNK         0.0865 
     70 H70        15.4098  -28.7751  -42.8163 H         1 UNK         0.0865 
     71 H71        15.8721  -31.2390  -42.5739 H         1 UNK         0.1346 
     72 H72        18.3305  -33.0135  -45.6089 H         1 UNK         0.1412 
     73 H73        18.2052  -28.7541  -45.1802 H         1 UNK         0.1426 
     74 H74        19.3653  -29.7338  -47.0633 H         1 UNK         0.0716 
     75 H75        19.1446  -31.4222  -47.4329 H         1 UNK         0.0716 
     76 H76        21.9734  -30.0380  -44.1045 H         1 UNK         0.0695 
     77 H77        20.5200  -29.2744  -44.6042 H         1 UNK         0.0695 
     78 H78        22.3360  -28.7776  -46.7960 H         1 UNK         0.0983 
     79 H79        21.9525  -26.7067  -44.7892 H         1 UNK         0.3095 
     80 H80        20.9495  -24.6858  -45.7839 H         1 UNK         0.0454 
     81 H81        18.3513  -25.3718  -47.2637 H         1 UNK         0.0851 
     82 H82        19.7626  -24.5987  -47.9705 H         1 UNK         0.0851 
     83 H83        18.8456  -23.7667  -46.7267 H         1 UNK         0.0851 
     84 H84        18.3595  -25.7149  -44.8454 H         1 UNK         0.2976 
     85 H85        24.2060  -30.1575  -46.1550 H         1 UNK         0.3116 
     86 H86        26.4467  -28.5747  -45.5607 H         1 UNK         0.0646 
     87 H87        26.1639  -31.6293  -45.5777 H         1 UNK         0.0847 
     88 H88        27.6834  -30.7493  -45.6522 H         1 UNK         0.0847 
     89 H89        26.5353  -30.6121  -46.9713 H         1 UNK         0.0847 
     90 H90        24.4082  -30.3385  -43.3467 H         1 UNK         0.3040 
     91 H91        26.2606  -30.3860  -41.1080 H         1 UNK         0.1015 
     92 H92        24.4324  -32.0645  -41.3430 H         1 UNK         0.0786 
     93 H93        23.2218  -30.7857  -41.2531 H         1 UNK         0.0786 
     94 H94        24.2295  -31.1444  -39.8623 H         1 UNK         0.0786 
     95 H95        24.3997  -27.8818  -42.5304 H         1 UNK         0.3172 
     96 H96        23.9127  -25.8158  -42.0981 H         1 UNK         0.0595 
     97 H97        25.6512  -25.9473  -39.5793 H         1 UNK         0.0839 
     98 H98        25.0929  -24.4933  -40.3871 H         1 UNK         0.0839 
     99 H99        26.2231  -25.5621  -41.2030 H         1 UNK         0.0839 
    100 H100       23.3516  -27.9482  -39.3411 H         1 UNK         0.2998 
    101 H101       20.6300  -26.8437  -39.1052 H         1 UNK         0.0822 
    102 H102       21.8655  -25.8312  -37.1735 H         1 UNK         0.0787 
    103 H103       20.7334  -27.0537  -36.6132 H         1 UNK         0.0787 
    104 H104       22.4517  -27.4245  -36.6960 H         1 UNK         0.0787 
    105 H105       19.2115  -28.4734  -39.1088 H         1 UNK         0.3055 
    106 H106       18.2824  -30.4403  -39.4035 H         1 UNK         0.1106 
    107 H107       18.9838  -32.4409  -38.1975 H         1 UNK         0.0828 
    108 H108       19.2834  -31.0800  -37.1378 H         1 UNK         0.0828 
    109 H109       20.6212  -31.8396  -37.9966 H         1 UNK         0.0828 
    110 H110       18.9916  -32.8966  -40.2462 H         1 UNK         0.2931 
    111 H111       19.6194  -32.3600  -42.9598 H         1 UNK         0.0412 
    112 H112       21.5115  -32.6425  -44.1777 H         1 UNK         0.3472 
    113 H113       22.9768  -33.3224  -43.5152 H         1 UNK         0.3472 
    114 H114       19.3907  -35.1331  -41.6938 H         1 UNK         0.0970 
    115 H115       19.1499  -34.7211  -43.3684 H         1 UNK         0.0970 
    116 H116       16.8466  -34.4126  -44.3615 H         1 UNK         0.0612 
    117 H117       15.4846  -33.6639  -43.5663 H         1 UNK         0.0612 
@<TRIPOS>BOND
     1    1    2 1    
     2    1   62 1    
     3    1   63 1    
     4    1   64 1    
     5    2    3 2    
     6    2    4 am   BACKBONE|DICT|INTERRES
     7    4    5 1    
     8    4   65 1    
     9    5    6 1    
    10    5   25 1    
    11    5   66 1    
    12    6    7 1    
    13    6   67 1    
    14    6   68 1    
    15    7    8 1    
    16    8    9 1    
    17    8   69 1    
    18    8   70 1    
    19    9   10 ar   
    20    9   14 ar   
    21   10   11 ar   
    22   10   71 1    
    23   11   12 ar   
    24   11   61 1    
    25   12   13 ar   
    26   12   72 1    
    27   13   14 ar   
    28   13   15 1    
    29   14   73 1    
    30   15   16 1    
    31   15   74 1    
    32   15   75 1    
    33   16   17 1    
    34   17   18 1    
    35   17   76 1    
    36   17   77 1    
    37   18   19 1    
    38   18   27 1    
    39   18   78 1    
    40   19   20 am   BACKBONE|DICT|INTERRES
    41   19   79 1    
    42   20   21 2    
    43   20   22 1    
    44   22   23 1    
    45   22   24 1    
    46   22   80 1    
    47   23   81 1    
    48   23   82 1    
    49   23   83 1    
    50   24   25 am   BACKBONE|DICT|INTERRES
    51   24   84 1    
    52   25   26 2    
    53   27   28 2    
    54   27   29 am   BACKBONE|DICT|INTERRES
    55   29   30 1    
    56   29   85 1    
    57   30   31 1    
    58   30   32 1    
    59   30   86 1    
    60   31   87 1    
    61   31   88 1    
    62   31   89 1    
    63   32   33 2    
    64   32   34 am   BACKBONE|DICT|INTERRES
    65   34   35 1    
    66   34   90 1    
    67   35   36 1    
    68   35   37 1    
    69   35   91 1    
    70   36   92 1    
    71   36   93 1    
    72   36   94 1    
    73   37   38 2    
    74   37   39 am   BACKBONE|DICT|INTERRES
    75   39   40 1    
    76   39   95 1    
    77   40   41 1    
    78   40   42 1    
    79   40   96 1    
    80   41   97 1    
    81   41   98 1    
    82   41   99 1    
    83   42   43 2    
    84   42   44 am   BACKBONE|DICT|INTERRES
    85   44   45 1    
    86   44  100 1    
    87   45   46 1    
    88   45   47 1    
    89   45  101 1    
    90   46  102 1    
    91   46  103 1    
    92   46  104 1    
    93   47   48 2    
    94   47   49 am   BACKBONE|DICT|INTERRES
    95   49   50 1    
    96   49  105 1    
    97   50   51 1    
    98   50   52 1    
    99   50  106 1    
   100   51  107 1    
   101   51  108 1    
   102   51  109 1    
   103   52   53 2    
   104   52   54 am   BACKBONE|DICT|INTERRES
   105   54   55 1    
   106   54  110 1    
   107   55   56 1    
   108   55   59 1    
   109   55  111 1    
   110   56   57 am   BACKBONE|DICT|INTERRES
   111   56   58 2    
   112   57  112 1    
   113   57  113 1    
   114   59   60 1    
   115   59  114 1    
   116   59  115 1    
   117   60   61 1    
   118   61  116 1    
   119   61  117 1    
@<TRIPOS>SUBSTRUCTURE
     1 UNK         1 GROUP             0       ****    0 ROOT    
