@<TRIPOS>MOLECULE
3R8
117   119    1
SMALL
USER_CHARGES


@<TRIPOS>ATOM
      1 CA         13.3599  -23.4374  -43.9913 C.3       0 UNK        -0.2013 
      2 C          14.3627  -23.9246  -45.0264 C.2       0 UNK         0.4866 
      3 O          14.7611  -23.1555  -45.9014 O.2       0 UNK        -0.5176 
      4 N          14.7732  -25.1970  -44.9348 N.am      1 UNK        -0.4884 
      5 CA         15.7462  -25.8288  -45.8384 C.3       1 UNK         0.0853 
      6 C6         15.6443  -27.3767  -45.7693 C.3       10 UNK        -0.0849 
      7 S7         16.0849  -28.1797  -47.3491 S.3       10 UNK        -0.2776 
      8 C8         16.5206  -29.8700  -46.8153 C.3       10 UNK         0.0316 
      9 C9         17.7483  -29.8922  -45.9148 C.ar      10 UNK        -0.0863 
     10 C10        17.6381  -30.2910  -44.5784 C.ar      10 UNK        -0.1009 
     11 C11        18.7521  -30.2601  -43.7337 C.ar      10 UNK        -0.0712 
     12 C12        19.9814  -29.8261  -44.2400 C.ar      10 UNK        -0.0894 
     13 C13        20.1108  -29.4441  -45.5777 C.ar      10 UNK        -0.0745 
     14 C14        18.9917  -29.4920  -46.4133 C.ar      10 UNK        -0.0972 
     15 C15        21.4473  -28.9576  -46.1195 C.3       10 UNK         0.0209 
     16 S16        21.4288  -27.1573  -46.3879 S.3       10 UNK        -0.2568 
     17 C17        22.7172  -26.5556  -45.2415 C.3       10 UNK        -0.0983 
     18 CA         22.2637  -26.1815  -43.7960 C.3       3 UNK         0.0876 
     19 N          21.0879  -25.2869  -43.7496 N.am      3 UNK        -0.4424 
     20 C          19.7807  -25.6002  -43.7620 C.2       2 UNK         0.4918 
     21 O          19.3416  -26.7432  -43.6464 O.2       2 UNK        -0.4875 
     22 CA         18.7809  -24.4272  -43.8532 C.3       2 UNK         0.0481 
     23 CB         19.3176  -23.2100  -44.6410 C.3       2 UNK        -0.1831 
     24 N          17.4750  -24.8608  -44.3706 N.am      2 UNK        -0.4498 
     25 C          17.1929  -25.3303  -45.5991 C.2       1 UNK         0.5027 
     26 O          18.0007  -25.3580  -46.5286 O.2       1 UNK        -0.4969 
     27 C          22.2934  -27.3672  -42.7962 C.2       3 UNK         0.5005 
     28 O          23.0604  -28.3151  -42.9900 O.2       3 UNK        -0.5279 
     29 N          21.5140  -27.2815  -41.7082 N.am      4 UNK        -0.4463 
     30 CA         21.3473  -28.3301  -40.6973 C.3       4 UNK         0.0283 
     31 CB         20.2589  -27.9101  -39.6972 C.3       4 UNK        -0.1875 
     32 C          22.6382  -28.7057  -39.9587 C.2       4 UNK         0.4949 
     33 O          22.8311  -29.8805  -39.6491 O.2       4 UNK        -0.5039 
     34 N          23.5043  -27.7143  -39.7146 N.am      5 UNK        -0.4663 
     35 CA         24.8115  -27.9022  -39.0816 C.3       5 UNK         0.0242 
     36 CB         25.3195  -26.5475  -38.5621 C.3       5 UNK        -0.1982 
     37 C          25.8507  -28.5413  -40.0191 C.2       5 UNK         0.5017 
     38 O          26.7695  -29.1988  -39.5306 O.2       5 UNK        -0.5012 
     39 N          25.6959  -28.3371  -41.3352 N.am      6 UNK        -0.4439 
     40 CA         26.5796  -28.8853  -42.3652 C.3       6 UNK         0.0297 
     41 CB         26.5209  -28.0082  -43.6266 C.3       6 UNK        -0.2006 
     42 C          26.2216  -30.3414  -42.6917 C.2       6 UNK         0.4892 
     43 O          27.1197  -31.1788  -42.7834 O.2       6 UNK        -0.5089 
     44 N          24.9189  -30.6187  -42.8429 N.am      7 UNK        -0.4243 
     45 CA         24.3892  -31.9623  -43.0938 C.3       7 UNK         0.0196 
     46 CB         22.9888  -31.8360  -43.7049 C.3       7 UNK        -0.2007 
     47 C          24.3378  -32.8479  -41.8358 C.2       7 UNK         0.5020 
     48 O          24.2320  -34.0667  -41.9743 O.2       7 UNK        -0.5147 
     49 N          24.3983  -32.2266  -40.6483 N.am      8 UNK        -0.4734 
     50 CA         24.2570  -32.8243  -39.3155 C.3       8 UNK         0.0238 
     51 CB         25.3951  -33.8258  -39.0219 C.3       8 UNK        -0.1912 
     52 C          22.8487  -33.4114  -39.1027 C.2       8 UNK         0.5038 
     53 O          22.7112  -34.5757  -38.7209 O.2       8 UNK        -0.5046 
     54 N          21.8281  -32.5836  -39.3643 N.am      9 UNK        -0.4200 
     55 CA         20.4048  -32.9198  -39.1830 C.3       9 UNK         0.0839 
     56 C          19.9548  -33.0282  -37.6962 C.2       9 UNK         0.5513 
     57 N          20.7184  -32.5332  -36.7289 N.am      9 UNK        -0.7519 
     58 O          18.8909  -33.5749  -37.4173 O.2       9 UNK        -0.4960 
     59 C59        19.4694  -31.9545  -39.9582 C.3       10 UNK        -0.0876 
     60 S60        19.7586  -31.9538  -41.7573 S.3       10 UNK        -0.2414 
     61 C61        18.6112  -30.6312  -42.2626 C.3       10 UNK         0.0169 
     62 H62        13.0898  -24.2205  -43.2830 H         1 UNK         0.0903 
     63 H63        13.7764  -22.6014  -43.4300 H         1 UNK         0.0903 
     64 H64        12.4489  -23.0972  -44.4832 H         1 UNK         0.0903 
     65 H65        14.4041  -25.7848  -44.2000 H         1 UNK         0.3096 
     66 H66        15.4773  -25.5166  -46.8507 H         1 UNK         0.1121 
     67 H67        16.2534  -27.7718  -44.9541 H         1 UNK         0.0849 
     68 H68        14.6199  -27.6809  -45.5480 H         1 UNK         0.0849 
     69 H69        15.6605  -30.3203  -46.3172 H         1 UNK         0.0865 
     70 H70        16.7162  -30.4806  -47.6979 H         1 UNK         0.0865 
     71 H71        16.6782  -30.6000  -44.1879 H         1 UNK         0.1346 
     72 H72        20.8341  -29.7635  -43.5825 H         1 UNK         0.1412 
     73 H73        19.0799  -29.1762  -47.4441 H         1 UNK         0.1426 
     74 H74        21.6578  -29.4555  -47.0669 H         1 UNK         0.0716 
     75 H75        22.2591  -29.2290  -45.4450 H         1 UNK         0.0716 
     76 H76        23.5543  -27.2546  -45.2410 H         1 UNK         0.0695 
     77 H77        23.1212  -25.6557  -45.7073 H         1 UNK         0.0695 
     78 H78        23.0669  -25.5522  -43.4089 H         1 UNK         0.0983 
     79 H79        21.3150  -24.3045  -43.8020 H         1 UNK         0.3095 
     80 H80        18.5991  -24.1017  -42.8282 H         1 UNK         0.0454 
     81 H81        20.1388  -22.7231  -44.1146 H         1 UNK         0.0851 
     82 H82        19.6813  -23.4925  -45.6299 H         1 UNK         0.0851 
     83 H83        18.5419  -22.4563  -44.7775 H         1 UNK         0.0851 
     84 H84        16.7308  -24.8966  -43.6891 H         1 UNK         0.2976 
     85 H85        20.9039  -26.4806  -41.6349 H         1 UNK         0.3116 
     86 H86        21.0132  -29.2285  -41.2159 H         1 UNK         0.0646 
     87 H87        20.1161  -28.6699  -38.9279 H         1 UNK         0.0847 
     88 H88        19.2983  -27.7664  -40.1922 H         1 UNK         0.0847 
     89 H89        20.5157  -26.9807  -39.1877 H         1 UNK         0.0847 
     90 H90        23.2548  -26.7765  -39.9940 H         1 UNK         0.3040 
     91 H91        24.6883  -28.5719  -38.2269 H         1 UNK         0.1015 
     92 H92        24.6274  -26.1150  -37.8392 H         1 UNK         0.0786 
     93 H93        25.4556  -25.8282  -39.3706 H         1 UNK         0.0786 
     94 H94        26.2816  -26.6586  -38.0597 H         1 UNK         0.0786 
     95 H95        24.8717  -27.8462  -41.6538 H         1 UNK         0.3172 
     96 H96        27.6071  -28.8654  -41.9948 H         1 UNK         0.0595 
     97 H97        27.2059  -28.3805  -44.3895 H         1 UNK         0.0839 
     98 H98        26.8083  -26.9794  -43.4089 H         1 UNK         0.0839 
     99 H99        25.5245  -27.9925  -44.0672 H         1 UNK         0.0839 
    100 H100       24.2457  -29.8574  -42.7971 H         1 UNK         0.2998 
    101 H101       25.0336  -32.4631  -43.8197 H         1 UNK         0.0822 
    102 H102       23.0146  -31.2982  -44.6515 H         1 UNK         0.0787 
    103 H103       22.5499  -32.8155  -43.8997 H         1 UNK         0.0787 
    104 H104       22.3205  -31.3079  -43.0273 H         1 UNK         0.0787 
    105 H105       24.4210  -31.2152  -40.6599 H         1 UNK         0.3055 
    106 H106       24.3549  -32.0050  -38.6010 H         1 UNK         0.1106 
    107 H107       25.3390  -34.7090  -39.6586 H         1 UNK         0.0828 
    108 H108       26.3731  -33.3676  -39.1687 H         1 UNK         0.0828 
    109 H109       25.3504  -34.1709  -37.9883 H         1 UNK         0.0828 
    110 H110       22.0425  -31.6304  -39.6421 H         1 UNK         0.2931 
    111 H111       20.2601  -33.9151  -39.6082 H         1 UNK         0.0412 
    112 H112       21.5888  -32.0758  -36.9472 H         1 UNK         0.3472 
    113 H113       20.4159  -32.6135  -35.7706 H         1 UNK         0.3472 
    114 H114       18.4235  -32.2240  -39.7968 H         1 UNK         0.0970 
    115 H115       19.5840  -30.9376  -39.5811 H         1 UNK         0.0970 
    116 H116       17.5928  -30.9549  -42.0425 H         1 UNK         0.0612 
    117 H117       18.7853  -29.7389  -41.6621 H         1 UNK         0.0612 
@<TRIPOS>BOND
     1    1    2 1    
     2    1   62 1    
     3    1   63 1    
     4    1   64 1    
     5    2    3 2    
     6    2    4 am   BACKBONE|DICT|INTERRES
     7    4    5 1    
     8    4   65 1    
     9    5    6 1    
    10    5   25 1    
    11    5   66 1    
    12    6    7 1    
    13    6   67 1    
    14    6   68 1    
    15    7    8 1    
    16    8    9 1    
    17    8   69 1    
    18    8   70 1    
    19    9   10 ar   
    20    9   14 ar   
    21   10   11 ar   
    22   10   71 1    
    23   11   12 ar   
    24   11   61 1    
    25   12   13 ar   
    26   12   72 1    
    27   13   14 ar   
    28   13   15 1    
    29   14   73 1    
    30   15   16 1    
    31   15   74 1    
    32   15   75 1    
    33   16   17 1    
    34   17   18 1    
    35   17   76 1    
    36   17   77 1    
    37   18   19 1    
    38   18   27 1    
    39   18   78 1    
    40   19   20 am   BACKBONE|DICT|INTERRES
    41   19   79 1    
    42   20   21 2    
    43   20   22 1    
    44   22   23 1    
    45   22   24 1    
    46   22   80 1    
    47   23   81 1    
    48   23   82 1    
    49   23   83 1    
    50   24   25 am   BACKBONE|DICT|INTERRES
    51   24   84 1    
    52   25   26 2    
    53   27   28 2    
    54   27   29 am   BACKBONE|DICT|INTERRES
    55   29   30 1    
    56   29   85 1    
    57   30   31 1    
    58   30   32 1    
    59   30   86 1    
    60   31   87 1    
    61   31   88 1    
    62   31   89 1    
    63   32   33 2    
    64   32   34 am   BACKBONE|DICT|INTERRES
    65   34   35 1    
    66   34   90 1    
    67   35   36 1    
    68   35   37 1    
    69   35   91 1    
    70   36   92 1    
    71   36   93 1    
    72   36   94 1    
    73   37   38 2    
    74   37   39 am   BACKBONE|DICT|INTERRES
    75   39   40 1    
    76   39   95 1    
    77   40   41 1    
    78   40   42 1    
    79   40   96 1    
    80   41   97 1    
    81   41   98 1    
    82   41   99 1    
    83   42   43 2    
    84   42   44 am   BACKBONE|DICT|INTERRES
    85   44   45 1    
    86   44  100 1    
    87   45   46 1    
    88   45   47 1    
    89   45  101 1    
    90   46  102 1    
    91   46  103 1    
    92   46  104 1    
    93   47   48 2    
    94   47   49 am   BACKBONE|DICT|INTERRES
    95   49   50 1    
    96   49  105 1    
    97   50   51 1    
    98   50   52 1    
    99   50  106 1    
   100   51  107 1    
   101   51  108 1    
   102   51  109 1    
   103   52   53 2    
   104   52   54 am   BACKBONE|DICT|INTERRES
   105   54   55 1    
   106   54  110 1    
   107   55   56 1    
   108   55   59 1    
   109   55  111 1    
   110   56   57 am   BACKBONE|DICT|INTERRES
   111   56   58 2    
   112   57  112 1    
   113   57  113 1    
   114   59   60 1    
   115   59  114 1    
   116   59  115 1    
   117   60   61 1    
   118   61  116 1    
   119   61  117 1    
@<TRIPOS>SUBSTRUCTURE
     1 UNK         1 GROUP             0       ****    0 ROOT    
