@<TRIPOS>MOLECULE
3R8
117   119    1
SMALL
USER_CHARGES


@<TRIPOS>ATOM
      1 CA         15.5389  -23.0599  -42.4165 C.3       0 UNK        -0.2013 
      2 C          16.5562  -23.8805  -43.1958 C.2       0 UNK         0.4866 
      3 O          17.5300  -24.3476  -42.6062 O.2       0 UNK        -0.5176 
      4 N          16.3172  -24.0581  -44.5044 N.am      1 UNK        -0.4884 
      5 CA         17.1460  -24.7643  -45.4972 C.3       1 UNK         0.0853 
      6 C6         17.5609  -26.2017  -45.0854 C.3       10 UNK        -0.0849 
      7 S7         16.1850  -27.3000  -44.6008 S.3       10 UNK        -0.2776 
      8 C8         16.8267  -28.0155  -43.0461 C.3       10 UNK         0.0316 
      9 C9         17.7948  -29.1759  -43.2739 C.ar      10 UNK        -0.0863 
     10 C10        17.5032  -30.4476  -42.7710 C.ar      10 UNK        -0.1009 
     11 C11        18.4103  -31.5013  -42.9280 C.ar      10 UNK        -0.0712 
     12 C12        19.6053  -31.2891  -43.6233 C.ar      10 UNK        -0.0894 
     13 C13        19.9154  -30.0239  -44.1254 C.ar      10 UNK        -0.0745 
     14 C14        19.0093  -28.9777  -43.9370 C.ar      10 UNK        -0.0972 
     15 C15        21.2570  -29.7692  -44.8020 C.3       10 UNK         0.0209 
     16 S16        21.0963  -28.7450  -46.3035 S.3       10 UNK        -0.2568 
     17 C17        22.6397  -27.7735  -46.2462 C.3       10 UNK        -0.0983 
     18 CA         22.4631  -26.3187  -45.7318 C.3       3 UNK         0.0876 
     19 N          21.4124  -25.5979  -46.4636 N.am      3 UNK        -0.4424 
     20 C          21.4521  -24.3008  -46.8004 C.2       2 UNK         0.4918 
     21 O          22.3833  -23.5467  -46.5200 O.2       2 UNK        -0.4875 
     22 CA         20.2346  -23.7488  -47.5651 C.3       2 UNK         0.0481 
     23 CB         20.3710  -24.0320  -49.0697 C.3       2 UNK        -0.1831 
     24 N          18.9645  -24.2946  -47.0731 N.am      2 UNK        -0.4498 
     25 C          18.4068  -23.9639  -45.8985 C.2       1 UNK         0.5027 
     26 O          18.8833  -23.1118  -45.1456 O.2       1 UNK        -0.4969 
     27 C          22.3087  -26.2296  -44.1941 C.2       3 UNK         0.5005 
     28 O          23.1125  -26.8280  -43.4789 O.2       3 UNK        -0.5279 
     29 N          21.3036  -25.4823  -43.7062 N.am      4 UNK        -0.4463 
     30 CA         21.1140  -25.0308  -42.3172 C.3       4 UNK         0.0283 
     31 CB         22.1451  -23.9292  -41.9927 C.3       4 UNK        -0.1875 
     32 C          21.0945  -26.1380  -41.2390 C.2       4 UNK         0.4949 
     33 O          21.4806  -25.8792  -40.0981 O.2       4 UNK        -0.5039 
     34 N          20.6555  -27.3475  -41.6166 N.am      5 UNK        -0.4663 
     35 CA         20.6155  -28.5712  -40.8012 C.3       5 UNK         0.0242 
     36 CB         19.5916  -28.4427  -39.6537 C.3       5 UNK        -0.1982 
     37 C          22.0047  -29.0486  -40.3284 C.2       5 UNK         0.5017 
     38 O          22.1103  -29.6606  -39.2645 O.2       5 UNK        -0.5012 
     39 N          23.0448  -28.7712  -41.1274 N.am      6 UNK        -0.4439 
     40 CA         24.4176  -29.2250  -40.9003 C.3       6 UNK         0.0297 
     41 CB         25.3569  -28.4137  -41.8101 C.3       6 UNK        -0.2006 
     42 C          24.5994  -30.7362  -41.1453 C.2       6 UNK         0.4892 
     43 O          23.7221  -31.3936  -41.7140 O.2       6 UNK        -0.5089 
     44 N          25.7770  -31.2358  -40.7428 N.am      7 UNK        -0.4243 
     45 CA         26.2669  -32.6073  -40.9126 C.3       7 UNK         0.0196 
     46 CB         26.4996  -32.9228  -42.4096 C.3       7 UNK        -0.2007 
     47 C          25.3862  -33.6307  -40.1712 C.2       7 UNK         0.5020 
     48 O          25.1135  -33.4393  -38.9847 O.2       7 UNK        -0.5147 
     49 N          24.9676  -34.6990  -40.8638 N.am      8 UNK        -0.4734 
     50 CA         24.2011  -35.8283  -40.3221 C.3       8 UNK         0.0238 
     51 CB         24.0555  -36.9025  -41.4129 C.3       8 UNK        -0.1912 
     52 C          22.8221  -35.4635  -39.7413 C.2       8 UNK         0.5038 
     53 O          22.2934  -36.2351  -38.9395 O.2       8 UNK        -0.5046 
     54 N          22.2720  -34.3093  -40.1404 N.am      9 UNK        -0.4200 
     55 CA         21.0408  -33.7381  -39.5763 C.3       9 UNK         0.0839 
     56 C          21.2259  -33.0901  -38.1698 C.2       9 UNK         0.5513 
     57 N          22.4436  -32.9079  -37.6695 N.am      9 UNK        -0.7519 
     58 O          20.2439  -32.7695  -37.5058 O.2       9 UNK        -0.4960 
     59 C59        20.3601  -32.7742  -40.5850 C.3       10 UNK        -0.0876 
     60 S60        18.5367  -32.8780  -40.5390 S.3       10 UNK        -0.2414 
     61 C61        18.1130  -32.8587  -42.3106 C.3       10 UNK         0.0169 
     62 H62        15.1170  -23.6570  -41.6084 H         1 UNK         0.0903 
     63 H63        16.0202  -22.1857  -41.9788 H         1 UNK         0.0903 
     64 H64        14.7193  -22.7159  -43.0471 H         1 UNK         0.0903 
     65 H65        15.4925  -23.6232  -44.8947 H         1 UNK         0.3096 
     66 H66        16.5239  -24.8395  -46.3909 H         1 UNK         0.1121 
     67 H67        18.0854  -26.6983  -45.9039 H         1 UNK         0.0849 
     68 H68        18.2729  -26.1345  -44.2633 H         1 UNK         0.0849 
     69 H69        17.3127  -27.2430  -42.4479 H         1 UNK         0.0865 
     70 H70        15.9726  -28.3511  -42.4560 H         1 UNK         0.0865 
     71 H71        16.5825  -30.6161  -42.2291 H         1 UNK         0.1346 
     72 H72        20.3091  -32.1008  -43.7459 H         1 UNK         0.1412 
     73 H73        19.2745  -28.0036  -44.3061 H         1 UNK         0.1426 
     74 H74        21.9106  -29.2815  -44.0783 H         1 UNK         0.0716 
     75 H75        21.7424  -30.7082  -45.0724 H         1 UNK         0.0716 
     76 H76        23.4010  -28.3087  -45.6751 H         1 UNK         0.0695 
     77 H77        23.0266  -27.7384  -47.2658 H         1 UNK         0.0695 
     78 H78        23.4118  -25.8157  -45.9331 H         1 UNK         0.0983 
     79 H79        20.6251  -26.1572  -46.7577 H         1 UNK         0.3095 
     80 H80        20.2183  -22.6652  -47.4290 H         1 UNK         0.0454 
     81 H81        19.5547  -23.5806  -49.6339 H         1 UNK         0.0851 
     82 H82        21.3003  -23.6159  -49.4613 H         1 UNK         0.0851 
     83 H83        20.3777  -25.1011  -49.2855 H         1 UNK         0.0851 
     84 H84        18.5130  -24.9855  -47.6564 H         1 UNK         0.2976 
     85 H85        20.6970  -25.0383  -44.3809 H         1 UNK         0.3116 
     86 H86        20.1269  -24.5697  -42.2846 H         1 UNK         0.0646 
     87 H87        21.9409  -23.4680  -41.0256 H         1 UNK         0.0847 
     88 H88        22.1232  -23.1329  -42.7368 H         1 UNK         0.0847 
     89 H89        23.1596  -24.3281  -41.9568 H         1 UNK         0.0847 
     90 H90        20.3782  -27.4574  -42.5801 H         1 UNK         0.3040 
     91 H91        20.2543  -29.3665  -41.4512 H         1 UNK         0.1015 
     92 H92        19.9088  -27.7162  -38.9054 H         1 UNK         0.0786 
     93 H93        19.4559  -29.3977  -39.1439 H         1 UNK         0.0786 
     94 H94        18.6147  -28.1380  -40.0288 H         1 UNK         0.0786 
     95 H95        22.8866  -28.2226  -41.9667 H         1 UNK         0.3172 
     96 H96        24.6751  -29.0164  -39.8598 H         1 UNK         0.0595 
     97 H97        25.1623  -28.6117  -42.8652 H         1 UNK         0.0839 
     98 H98        26.4041  -28.6525  -41.6220 H         1 UNK         0.0839 
     99 H99        25.2394  -27.3421  -41.6463 H         1 UNK         0.0839 
    100 H100       26.4067  -30.6155  -40.2530 H         1 UNK         0.2998 
    101 H101       27.2391  -32.6445  -40.4186 H         1 UNK         0.0822 
    102 H102       27.1489  -32.1763  -42.8675 H         1 UNK         0.0787 
    103 H103       26.9904  -33.8880  -42.5415 H         1 UNK         0.0787 
    104 H104       25.5694  -32.9383  -42.9791 H         1 UNK         0.0787 
    105 H105       25.2290  -34.7591  -41.8377 H         1 UNK         0.3055 
    106 H106       24.7830  -36.2516  -39.5003 H         1 UNK         0.1106 
    107 H107       23.5167  -37.7731  -41.0356 H         1 UNK         0.0828 
    108 H108       23.5043  -36.5285  -42.2767 H         1 UNK         0.0828 
    109 H109       25.0278  -37.2536  -41.7590 H         1 UNK         0.0828 
    110 H110       22.7964  -33.7190  -40.7712 H         1 UNK         0.2931 
    111 H111       20.3641  -34.5811  -39.4221 H         1 UNK         0.0412 
    112 H112       22.5400  -32.4891  -36.7584 H         1 UNK         0.3472 
    113 H113       23.2728  -33.1547  -38.1987 H         1 UNK         0.3472 
    114 H114       20.6826  -33.0187  -41.5970 H         1 UNK         0.0970 
    115 H115       20.6682  -31.7403  -40.4255 H         1 UNK         0.0970 
    116 H116       18.6543  -33.6517  -42.8291 H         1 UNK         0.0612 
    117 H117       17.0523  -33.0880  -42.4226 H         1 UNK         0.0612 
@<TRIPOS>BOND
     1    1    2 1    
     2    1   62 1    
     3    1   63 1    
     4    1   64 1    
     5    2    3 2    
     6    2    4 am   BACKBONE|DICT|INTERRES
     7    4    5 1    
     8    4   65 1    
     9    5    6 1    
    10    5   25 1    
    11    5   66 1    
    12    6    7 1    
    13    6   67 1    
    14    6   68 1    
    15    7    8 1    
    16    8    9 1    
    17    8   69 1    
    18    8   70 1    
    19    9   10 ar   
    20    9   14 ar   
    21   10   11 ar   
    22   10   71 1    
    23   11   12 ar   
    24   11   61 1    
    25   12   13 ar   
    26   12   72 1    
    27   13   14 ar   
    28   13   15 1    
    29   14   73 1    
    30   15   16 1    
    31   15   74 1    
    32   15   75 1    
    33   16   17 1    
    34   17   18 1    
    35   17   76 1    
    36   17   77 1    
    37   18   19 1    
    38   18   27 1    
    39   18   78 1    
    40   19   20 am   BACKBONE|DICT|INTERRES
    41   19   79 1    
    42   20   21 2    
    43   20   22 1    
    44   22   23 1    
    45   22   24 1    
    46   22   80 1    
    47   23   81 1    
    48   23   82 1    
    49   23   83 1    
    50   24   25 am   BACKBONE|DICT|INTERRES
    51   24   84 1    
    52   25   26 2    
    53   27   28 2    
    54   27   29 am   BACKBONE|DICT|INTERRES
    55   29   30 1    
    56   29   85 1    
    57   30   31 1    
    58   30   32 1    
    59   30   86 1    
    60   31   87 1    
    61   31   88 1    
    62   31   89 1    
    63   32   33 2    
    64   32   34 am   BACKBONE|DICT|INTERRES
    65   34   35 1    
    66   34   90 1    
    67   35   36 1    
    68   35   37 1    
    69   35   91 1    
    70   36   92 1    
    71   36   93 1    
    72   36   94 1    
    73   37   38 2    
    74   37   39 am   BACKBONE|DICT|INTERRES
    75   39   40 1    
    76   39   95 1    
    77   40   41 1    
    78   40   42 1    
    79   40   96 1    
    80   41   97 1    
    81   41   98 1    
    82   41   99 1    
    83   42   43 2    
    84   42   44 am   BACKBONE|DICT|INTERRES
    85   44   45 1    
    86   44  100 1    
    87   45   46 1    
    88   45   47 1    
    89   45  101 1    
    90   46  102 1    
    91   46  103 1    
    92   46  104 1    
    93   47   48 2    
    94   47   49 am   BACKBONE|DICT|INTERRES
    95   49   50 1    
    96   49  105 1    
    97   50   51 1    
    98   50   52 1    
    99   50  106 1    
   100   51  107 1    
   101   51  108 1    
   102   51  109 1    
   103   52   53 2    
   104   52   54 am   BACKBONE|DICT|INTERRES
   105   54   55 1    
   106   54  110 1    
   107   55   56 1    
   108   55   59 1    
   109   55  111 1    
   110   56   57 am   BACKBONE|DICT|INTERRES
   111   56   58 2    
   112   57  112 1    
   113   57  113 1    
   114   59   60 1    
   115   59  114 1    
   116   59  115 1    
   117   60   61 1    
   118   61  116 1    
   119   61  117 1    
@<TRIPOS>SUBSTRUCTURE
     1 UNK         1 GROUP             0       ****    0 ROOT    
