@<TRIPOS>MOLECULE
3R8
117   119    1
SMALL
USER_CHARGES


@<TRIPOS>ATOM
      1 CA         21.1789  -23.7418  -40.8977 C.3       0 UNK        -0.2013 
      2 C          19.7650  -24.0772  -41.3476 C.2       0 UNK         0.4866 
      3 O          18.8374  -24.0441  -40.5389 O.2       0 UNK        -0.5176 
      4 N          19.5977  -24.4054  -42.6299 N.am      1 UNK        -0.4884 
      5 CA         18.3391  -24.7975  -43.2599 C.3       1 UNK         0.0853 
      6 C6         18.1057  -26.3214  -43.0640 C.3       10 UNK        -0.0849 
      7 S7         16.4340  -26.9087  -43.4942 S.3       10 UNK        -0.2776 
      8 C8         16.5454  -28.6677  -43.0038 C.3       10 UNK         0.0316 
      9 C9         17.6030  -29.4872  -43.7484 C.ar      10 UNK        -0.0863 
     10 C10        18.2097  -30.5678  -43.0973 C.ar      10 UNK        -0.1009 
     11 C11        19.1552  -31.3605  -43.7561 C.ar      10 UNK        -0.0712 
     12 C12        19.5043  -31.0602  -45.0749 C.ar      10 UNK        -0.0894 
     13 C13        18.9221  -29.9756  -45.7359 C.ar      10 UNK        -0.0745 
     14 C14        17.9567  -29.2096  -45.0756 C.ar      10 UNK        -0.0972 
     15 C15        19.3255  -29.6290  -47.1647 C.3       10 UNK         0.0209 
     16 S16        21.1277  -29.4311  -47.4008 S.3       10 UNK        -0.2568 
     17 C17        21.6356  -28.3156  -46.0462 C.3       10 UNK        -0.0983 
     18 CA         21.5383  -26.8163  -46.4237 C.3       3 UNK         0.0876 
     19 N          20.1421  -26.4040  -46.5363 N.am      3 UNK        -0.4424 
     20 C          19.6460  -25.4935  -47.3818 C.2       2 UNK         0.4918 
     21 O          20.2730  -25.0052  -48.3220 O.2       2 UNK        -0.4875 
     22 CA         18.2030  -25.0264  -47.0955 C.3       2 UNK         0.0481 
     23 CB         17.1890  -25.8508  -47.9039 C.3       2 UNK        -0.1831 
     24 N          17.8827  -25.1165  -45.6655 N.am      2 UNK        -0.4498 
     25 C          18.4111  -24.3191  -44.7269 C.2       1 UNK         0.5027 
     26 O          18.9847  -23.2591  -44.9940 O.2       1 UNK        -0.4969 
     27 C          22.2293  -25.9412  -45.3541 C.2       3 UNK         0.5005 
     28 O          21.5633  -25.2189  -44.6065 O.2       3 UNK        -0.5279 
     29 N          23.5623  -26.0432  -45.2683 N.am      4 UNK        -0.4463 
     30 CA         24.4011  -25.3106  -44.3097 C.3       4 UNK         0.0283 
     31 CB         25.8762  -25.4783  -44.7117 C.3       4 UNK        -0.1875 
     32 C          24.2008  -25.7055  -42.8303 C.2       4 UNK         0.4949 
     33 O          24.6871  -24.9912  -41.9531 O.2       4 UNK        -0.5039 
     34 N          23.5078  -26.8190  -42.5706 N.am      5 UNK        -0.4663 
     35 CA         23.1832  -27.3373  -41.2457 C.3       5 UNK         0.0242 
     36 CB         24.3374  -28.2309  -40.7484 C.3       5 UNK        -0.1982 
     37 C          21.8621  -28.1159  -41.3190 C.2       5 UNK         0.5017 
     38 O          21.3279  -28.3208  -42.4111 O.2       5 UNK        -0.5012 
     39 N          21.3845  -28.5526  -40.1510 N.am      6 UNK        -0.4439 
     40 CA         20.2759  -29.4825  -39.9656 C.3       6 UNK         0.0297 
     41 CB         18.9906  -28.7075  -39.6369 C.3       6 UNK        -0.2006 
     42 C          20.6535  -30.4178  -38.8125 C.2       6 UNK         0.4892 
     43 O          21.4897  -30.0436  -37.9844 O.2       6 UNK        -0.5089 
     44 N          20.0447  -31.6122  -38.7818 N.am      7 UNK        -0.4243 
     45 CA         20.2035  -32.7036  -37.8015 C.3       7 UNK         0.0196 
     46 CB         19.8011  -32.2513  -36.3840 C.3       7 UNK        -0.2007 
     47 C          21.5910  -33.3765  -37.7915 C.2       7 UNK         0.5020 
     48 O          21.6669  -34.5997  -37.6855 O.2       7 UNK        -0.5147 
     49 N          22.6574  -32.5833  -37.9399 N.am      8 UNK        -0.4734 
     50 CA         24.0533  -33.0131  -38.0716 C.3       8 UNK         0.0238 
     51 CB         24.9625  -31.8220  -37.7214 C.3       8 UNK        -0.1912 
     52 C          24.4021  -33.5737  -39.4663 C.2       8 UNK         0.5038 
     53 O          25.5447  -33.9853  -39.6731 O.2       8 UNK        -0.5046 
     54 N          23.4332  -33.5554  -40.3919 N.am      9 UNK        -0.4200 
     55 CA         23.5018  -34.0661  -41.7680 C.3       9 UNK         0.0839 
     56 C          24.0044  -35.5341  -41.8612 C.2       9 UNK         0.5513 
     57 N          24.8639  -35.8365  -42.8245 N.am      9 UNK        -0.7519 
     58 O          23.5817  -36.4046  -41.1031 O.2       9 UNK        -0.4960 
     59 C59        22.1239  -33.9429  -42.4682 C.3       10 UNK        -0.0876 
     60 S60        21.4952  -32.2324  -42.5492 S.3       10 UNK        -0.2414 
     61 C61        19.7825  -32.5632  -43.0681 C.3       10 UNK         0.0169 
     62 H62        21.4831  -24.4051  -40.0887 H         1 UNK         0.0903 
     63 H63        21.8986  -23.8468  -41.7099 H         1 UNK         0.0903 
     64 H64        21.2246  -22.7157  -40.5339 H         1 UNK         0.0903 
     65 H65        20.3915  -24.4151  -43.2696 H         1 UNK         0.3096 
     66 H66        17.5191  -24.2466  -42.7936 H         1 UNK         0.1121 
     67 H67        18.8603  -26.9017  -43.5984 H         1 UNK         0.0849 
     68 H68        18.2507  -26.5602  -42.0119 H         1 UNK         0.0849 
     69 H69        16.7267  -28.7106  -41.9288 H         1 UNK         0.0865 
     70 H70        15.5732  -29.1339  -43.1682 H         1 UNK         0.0865 
     71 H71        17.9345  -30.8026  -42.0785 H         1 UNK         0.1346 
     72 H72        20.2419  -31.6654  -45.5842 H         1 UNK         0.1412 
     73 H73        17.4806  -28.3941  -45.5994 H         1 UNK         0.1426 
     74 H74        18.9728  -30.4190  -47.8287 H         1 UNK         0.0716 
     75 H75        18.8332  -28.7149  -47.4962 H         1 UNK         0.0716 
     76 H76        21.0655  -28.5290  -45.1408 H         1 UNK         0.0695 
     77 H77        22.6654  -28.5877  -45.8085 H         1 UNK         0.0695 
     78 H78        22.0499  -26.6491  -47.3743 H         1 UNK         0.0983 
     79 H79        19.5570  -26.6936  -45.7698 H         1 UNK         0.3095 
     80 H80        18.1194  -23.9832  -47.4075 H         1 UNK         0.0454 
     81 H81        16.1744  -25.4783  -47.7620 H         1 UNK         0.0851 
     82 H82        17.4061  -25.7954  -48.9715 H         1 UNK         0.0851 
     83 H83        17.2004  -26.9039  -47.6238 H         1 UNK         0.0851 
     84 H84        17.3516  -25.9201  -45.3537 H         1 UNK         0.2976 
     85 H85        24.0457  -26.6628  -45.9035 H         1 UNK         0.3116 
     86 H86        24.1469  -24.2516  -44.3905 H         1 UNK         0.0646 
     87 H87        26.5301  -24.9110  -44.0477 H         1 UNK         0.0847 
     88 H88        26.0577  -25.1166  -45.7239 H         1 UNK         0.0847 
     89 H89        26.1915  -26.5213  -44.6635 H         1 UNK         0.0847 
     90 H90        23.0566  -27.3119  -43.3305 H         1 UNK         0.3040 
     91 H91        23.0401  -26.5027  -40.5557 H         1 UNK         0.1015 
     92 H92        24.4806  -29.0970  -41.3961 H         1 UNK         0.0786 
     93 H93        24.1501  -28.6038  -39.7409 H         1 UNK         0.0786 
     94 H94        25.2782  -27.6811  -40.7144 H         1 UNK         0.0786 
     95 H95        21.9189  -28.3971  -39.3043 H         1 UNK         0.3172 
     96 H96        20.1313  -30.0766  -40.8698 H         1 UNK         0.0595 
     97 H97        19.0959  -28.1171  -38.7257 H         1 UNK         0.0839 
     98 H98        18.1469  -29.3838  -39.4948 H         1 UNK         0.0839 
     99 H99        18.7276  -28.0290  -40.4440 H         1 UNK         0.0839 
    100 H100       19.3934  -31.8146  -39.5275 H         1 UNK         0.2998 
    101 H101       19.4936  -33.4740  -38.1080 H         1 UNK         0.0822 
    102 H102       18.7917  -31.8402  -36.3707 H         1 UNK         0.0787 
    103 H103       19.8177  -33.0920  -35.6891 H         1 UNK         0.0787 
    104 H104       20.4773  -31.4930  -35.9880 H         1 UNK         0.0787 
    105 H105       22.4762  -31.5819  -37.9786 H         1 UNK         0.3055 
    106 H106       24.2380  -33.8135  -37.3516 H         1 UNK         0.1106 
    107 H107       26.0151  -32.1063  -37.7547 H         1 UNK         0.0828 
    108 H108       24.8260  -30.9931  -38.4173 H         1 UNK         0.0828 
    109 H109       24.7621  -31.4519  -36.7157 H         1 UNK         0.0828 
    110 H110       22.5387  -33.1839  -40.1137 H         1 UNK         0.2931 
    111 H111       24.2124  -33.4287  -42.2979 H         1 UNK         0.0412 
    112 H112       25.1878  -36.7874  -42.9125 H         1 UNK         0.3472 
    113 H113       25.2063  -35.1306  -43.4583 H         1 UNK         0.3472 
    114 H114       22.1852  -34.3184  -43.4918 H         1 UNK         0.0970 
    115 H115       21.3847  -34.5654  -41.9592 H         1 UNK         0.0970 
    116 H116       19.7657  -33.4091  -43.7572 H         1 UNK         0.0612 
    117 H117       19.1968  -32.8635  -42.1981 H         1 UNK         0.0612 
@<TRIPOS>BOND
     1    1    2 1    
     2    1   62 1    
     3    1   63 1    
     4    1   64 1    
     5    2    3 2    
     6    2    4 am   BACKBONE|DICT|INTERRES
     7    4    5 1    
     8    4   65 1    
     9    5    6 1    
    10    5   25 1    
    11    5   66 1    
    12    6    7 1    
    13    6   67 1    
    14    6   68 1    
    15    7    8 1    
    16    8    9 1    
    17    8   69 1    
    18    8   70 1    
    19    9   10 ar   
    20    9   14 ar   
    21   10   11 ar   
    22   10   71 1    
    23   11   12 ar   
    24   11   61 1    
    25   12   13 ar   
    26   12   72 1    
    27   13   14 ar   
    28   13   15 1    
    29   14   73 1    
    30   15   16 1    
    31   15   74 1    
    32   15   75 1    
    33   16   17 1    
    34   17   18 1    
    35   17   76 1    
    36   17   77 1    
    37   18   19 1    
    38   18   27 1    
    39   18   78 1    
    40   19   20 am   BACKBONE|DICT|INTERRES
    41   19   79 1    
    42   20   21 2    
    43   20   22 1    
    44   22   23 1    
    45   22   24 1    
    46   22   80 1    
    47   23   81 1    
    48   23   82 1    
    49   23   83 1    
    50   24   25 am   BACKBONE|DICT|INTERRES
    51   24   84 1    
    52   25   26 2    
    53   27   28 2    
    54   27   29 am   BACKBONE|DICT|INTERRES
    55   29   30 1    
    56   29   85 1    
    57   30   31 1    
    58   30   32 1    
    59   30   86 1    
    60   31   87 1    
    61   31   88 1    
    62   31   89 1    
    63   32   33 2    
    64   32   34 am   BACKBONE|DICT|INTERRES
    65   34   35 1    
    66   34   90 1    
    67   35   36 1    
    68   35   37 1    
    69   35   91 1    
    70   36   92 1    
    71   36   93 1    
    72   36   94 1    
    73   37   38 2    
    74   37   39 am   BACKBONE|DICT|INTERRES
    75   39   40 1    
    76   39   95 1    
    77   40   41 1    
    78   40   42 1    
    79   40   96 1    
    80   41   97 1    
    81   41   98 1    
    82   41   99 1    
    83   42   43 2    
    84   42   44 am   BACKBONE|DICT|INTERRES
    85   44   45 1    
    86   44  100 1    
    87   45   46 1    
    88   45   47 1    
    89   45  101 1    
    90   46  102 1    
    91   46  103 1    
    92   46  104 1    
    93   47   48 2    
    94   47   49 am   BACKBONE|DICT|INTERRES
    95   49   50 1    
    96   49  105 1    
    97   50   51 1    
    98   50   52 1    
    99   50  106 1    
   100   51  107 1    
   101   51  108 1    
   102   51  109 1    
   103   52   53 2    
   104   52   54 am   BACKBONE|DICT|INTERRES
   105   54   55 1    
   106   54  110 1    
   107   55   56 1    
   108   55   59 1    
   109   55  111 1    
   110   56   57 am   BACKBONE|DICT|INTERRES
   111   56   58 2    
   112   57  112 1    
   113   57  113 1    
   114   59   60 1    
   115   59  114 1    
   116   59  115 1    
   117   60   61 1    
   118   61  116 1    
   119   61  117 1    
@<TRIPOS>SUBSTRUCTURE
     1 UNK         1 GROUP             0       ****    0 ROOT    
