@<TRIPOS>MOLECULE
3R8
117   119    1
SMALL
USER_CHARGES


@<TRIPOS>ATOM
      1 CA         19.3529  -27.3387  -42.0125 C.3       0 UNK        -0.2013 
      2 C          18.5347  -26.2746  -42.7244 C.2       0 UNK         0.4866 
      3 O          18.8242  -25.0872  -42.5834 O.2       0 UNK        -0.5176 
      4 N          17.5116  -26.6826  -43.4886 N.am      1 UNK        -0.4884 
      5 CA         16.6310  -25.7706  -44.2331 C.3       1 UNK         0.0853 
      6 C6         15.2421  -26.4035  -44.5069 C.3       10 UNK        -0.0849 
      7 S7         15.1887  -27.7012  -45.7945 S.3       10 UNK        -0.2776 
      8 C8         15.3061  -29.2483  -44.8311 C.3       10 UNK         0.0316 
      9 C9         16.7358  -29.7257  -44.5758 C.ar      10 UNK        -0.0863 
     10 C10        17.0309  -30.4084  -43.3917 C.ar      10 UNK        -0.1009 
     11 C11        18.3048  -30.9418  -43.1751 C.ar      10 UNK        -0.0712 
     12 C12        19.2998  -30.7686  -44.1427 C.ar      10 UNK        -0.0894 
     13 C13        19.0286  -30.0746  -45.3278 C.ar      10 UNK        -0.0745 
     14 C14        17.7412  -29.5710  -45.5387 C.ar      10 UNK        -0.0972 
     15 C15        20.0725  -29.9040  -46.4323 C.3       10 UNK         0.0209 
     16 S16        21.8145  -29.7762  -45.8909 S.3       10 UNK        -0.2568 
     17 C17        21.8070  -28.3956  -44.7013 C.3       10 UNK        -0.0983 
     18 CA         22.1444  -27.0169  -45.3374 C.3       3 UNK         0.0876 
     19 N          20.9330  -26.3472  -45.7978 N.am      3 UNK        -0.4424 
     20 C          20.4716  -26.2759  -47.0486 C.2       2 UNK         0.4918 
     21 O          21.0581  -26.7405  -48.0265 O.2       2 UNK        -0.4875 
     22 CA         19.0911  -25.6149  -47.2096 C.3       2 UNK         0.0481 
     23 CB         18.3787  -26.0140  -48.5162 C.3       2 UNK        -0.1831 
     24 N          18.2542  -25.9623  -46.0608 N.am      2 UNK        -0.4498 
     25 C          17.3033  -25.2025  -45.5043 C.2       1 UNK         0.5027 
     26 O          16.9651  -24.0985  -45.9341 O.2       1 UNK        -0.4969 
     27 C          22.8036  -26.0851  -44.3038 C.2       3 UNK         0.5005 
     28 O          22.1594  -25.1525  -43.8117 O.2       3 UNK        -0.5279 
     29 N          24.0681  -26.3715  -43.9671 N.am      4 UNK        -0.4463 
     30 CA         24.7788  -25.7628  -42.8380 C.3       4 UNK         0.0283 
     31 CB         26.2796  -26.0769  -42.9622 C.3       4 UNK        -0.1875 
     32 C          24.2147  -26.2455  -41.4860 C.2       4 UNK         0.4949 
     33 O          23.4651  -27.2238  -41.4479 O.2       4 UNK        -0.5039 
     34 N          24.5899  -25.5471  -40.4048 N.am      5 UNK        -0.4663 
     35 CA         24.1310  -25.7524  -39.0242 C.3       5 UNK         0.0242 
     36 CB         24.9119  -24.8080  -38.0931 C.3       5 UNK        -0.1982 
     37 C          24.2318  -27.2149  -38.5456 C.2       5 UNK         0.5017 
     38 O          25.3246  -27.6746  -38.2092 O.2       5 UNK        -0.5012 
     39 N          23.0838  -27.9085  -38.5628 N.am      6 UNK        -0.4439 
     40 CA         22.8699  -29.3224  -38.2291 C.3       6 UNK         0.0297 
     41 CB         23.1792  -29.5932  -36.7416 C.3       6 UNK        -0.2006 
     42 C          23.5759  -30.3298  -39.1632 C.2       6 UNK         0.4892 
     43 O          23.6450  -31.5126  -38.8186 O.2       6 UNK        -0.5089 
     44 N          24.0620  -29.8780  -40.3297 N.am      7 UNK        -0.4243 
     45 CA         24.6875  -30.7269  -41.3453 C.3       7 UNK         0.0196 
     46 CB         25.3960  -29.8566  -42.3924 C.3       7 UNK        -0.2007 
     47 C          23.6330  -31.6289  -41.9970 C.2       7 UNK         0.5020 
     48 O          22.5750  -31.1365  -42.3871 O.2       7 UNK        -0.5147 
     49 N          23.9121  -32.9381  -42.0341 N.am      8 UNK        -0.4734 
     50 CA         23.0227  -34.0487  -42.4161 C.3       8 UNK         0.0238 
     51 CB         22.5075  -33.9012  -43.8626 C.3       8 UNK        -0.1912 
     52 C          21.8601  -34.3050  -41.4337 C.2       8 UNK         0.5038 
     53 O          21.4295  -35.4530  -41.3172 O.2       8 UNK        -0.5046 
     54 N          21.3819  -33.2623  -40.7436 N.am      9 UNK        -0.4200 
     55 CA         20.3300  -33.3208  -39.7199 C.3       9 UNK         0.0839 
     56 C          20.7599  -34.1002  -38.4473 C.2       9 UNK         0.5513 
     57 N          22.0002  -33.9566  -37.9938 N.am      9 UNK        -0.7519 
     58 O          19.9624  -34.8338  -37.8692 O.2       9 UNK        -0.4960 
     59 C59        19.8037  -31.9125  -39.3246 C.3       10 UNK        -0.0876 
     60 S60        19.4970  -30.7372  -40.6915 S.3       10 UNK        -0.2414 
     61 C61        18.6004  -31.7404  -41.9152 C.3       10 UNK         0.0169 
     62 H62        19.1802  -28.3260  -42.4367 H         1 UNK         0.0903 
     63 H63        20.4178  -27.1182  -42.0915 H         1 UNK         0.0903 
     64 H64        19.0911  -27.3718  -40.9555 H         1 UNK         0.0903 
     65 H65        17.3077  -27.6696  -43.5801 H         1 UNK         0.3096 
     66 H66        16.4495  -24.9065  -43.5888 H         1 UNK         0.1121 
     67 H67        14.8200  -26.7913  -43.5785 H         1 UNK         0.0849 
     68 H68        14.5522  -25.6184  -44.8221 H         1 UNK         0.0849 
     69 H69        14.7592  -29.1365  -43.8937 H         1 UNK         0.0865 
     70 H70        14.7902  -30.0318  -45.3877 H         1 UNK         0.0865 
     71 H71        16.2588  -30.5563  -42.6485 H         1 UNK         0.1346 
     72 H72        20.2843  -31.1811  -43.9687 H         1 UNK         0.1412 
     73 H73        17.5153  -29.0775  -46.4742 H         1 UNK         0.1426 
     74 H74        19.8367  -29.0301  -47.0376 H         1 UNK         0.0716 
     75 H75        19.9932  -30.7599  -47.1033 H         1 UNK         0.0716 
     76 H76        22.5342  -28.6729  -43.9357 H         1 UNK         0.0695 
     77 H77        20.8524  -28.3626  -44.1792 H         1 UNK         0.0695 
     78 H78        22.8466  -27.1382  -46.1654 H         1 UNK         0.0983 
     79 H79        20.4664  -25.8154  -45.0736 H         1 UNK         0.3095 
     80 H80        19.2601  -24.5364  -47.2188 H         1 UNK         0.0454 
     81 H81        18.9698  -25.7319  -49.3883 H         1 UNK         0.0851 
     82 H82        17.4121  -25.5189  -48.6085 H         1 UNK         0.0851 
     83 H83        18.2096  -27.0901  -48.5675 H         1 UNK         0.0851 
     84 H84        18.4540  -26.8511  -45.6235 H         1 UNK         0.2976 
     85 H85        24.5147  -27.1663  -44.4007 H         1 UNK         0.3116 
     86 H86        24.6456  -24.6800  -42.8909 H         1 UNK         0.0646 
     87 H87        26.4751  -27.1482  -42.9453 H         1 UNK         0.0847 
     88 H88        26.6899  -25.6793  -43.8907 H         1 UNK         0.0847 
     89 H89        26.8487  -25.6305  -42.1460 H         1 UNK         0.0847 
     90 H90        25.2276  -24.7761  -40.5417 H         1 UNK         0.3040 
     91 H91        23.0814  -25.4530  -38.9874 H         1 UNK         0.1015 
     92 H92        25.9857  -24.9964  -38.1339 H         1 UNK         0.0786 
     93 H93        24.7442  -23.7627  -38.3534 H         1 UNK         0.0786 
     94 H94        24.5987  -24.9354  -37.0558 H         1 UNK         0.0786 
     95 H95        22.2675  -27.4345  -38.9252 H         1 UNK         0.3172 
     96 H96        21.8025  -29.4893  -38.3738 H         1 UNK         0.0595 
     97 H97        24.2453  -29.5097  -36.5285 H         1 UNK         0.0839 
     98 H98        22.8700  -30.5988  -36.4532 H         1 UNK         0.0839 
     99 H99        22.6503  -28.8963  -36.0916 H         1 UNK         0.0839 
    100 H100       23.8840  -28.9121  -40.5920 H         1 UNK         0.2998 
    101 H101       25.4390  -31.3466  -40.8513 H         1 UNK         0.0822 
    102 H102       25.8833  -30.4735  -43.1484 H         1 UNK         0.0787 
    103 H103       26.1654  -29.2400  -41.9287 H         1 UNK         0.0787 
    104 H104       24.6963  -29.1994  -42.9085 H         1 UNK         0.0787 
    105 H105       24.8041  -33.2296  -41.6568 H         1 UNK         0.3055 
    106 H106       23.6448  -34.9449  -42.3839 H         1 UNK         0.1106 
    107 H107       21.8261  -33.0579  -43.9731 H         1 UNK         0.0828 
    108 H108       23.3291  -33.7619  -44.5650 H         1 UNK         0.0828 
    109 H109       21.9635  -34.7943  -44.1724 H         1 UNK         0.0828 
    110 H110       21.7500  -32.3434  -40.9602 H         1 UNK         0.2931 
    111 H111       19.4956  -33.8714  -40.1584 H         1 UNK         0.0412 
    112 H112       22.2881  -34.4605  -37.1701 H         1 UNK         0.3472 
    113 H113       22.6346  -33.2969  -38.4308 H         1 UNK         0.3472 
    114 H114       18.8767  -32.0130  -38.7571 H         1 UNK         0.0970 
    115 H115       20.5088  -31.4271  -38.6485 H         1 UNK         0.0970 
    116 H116       19.1878  -32.6159  -42.1908 H         1 UNK         0.0612 
    117 H117       17.6778  -32.1130  -41.4678 H         1 UNK         0.0612 
@<TRIPOS>BOND
     1    1    2 1    
     2    1   62 1    
     3    1   63 1    
     4    1   64 1    
     5    2    3 2    
     6    2    4 am   BACKBONE|DICT|INTERRES
     7    4    5 1    
     8    4   65 1    
     9    5    6 1    
    10    5   25 1    
    11    5   66 1    
    12    6    7 1    
    13    6   67 1    
    14    6   68 1    
    15    7    8 1    
    16    8    9 1    
    17    8   69 1    
    18    8   70 1    
    19    9   10 ar   
    20    9   14 ar   
    21   10   11 ar   
    22   10   71 1    
    23   11   12 ar   
    24   11   61 1    
    25   12   13 ar   
    26   12   72 1    
    27   13   14 ar   
    28   13   15 1    
    29   14   73 1    
    30   15   16 1    
    31   15   74 1    
    32   15   75 1    
    33   16   17 1    
    34   17   18 1    
    35   17   76 1    
    36   17   77 1    
    37   18   19 1    
    38   18   27 1    
    39   18   78 1    
    40   19   20 am   BACKBONE|DICT|INTERRES
    41   19   79 1    
    42   20   21 2    
    43   20   22 1    
    44   22   23 1    
    45   22   24 1    
    46   22   80 1    
    47   23   81 1    
    48   23   82 1    
    49   23   83 1    
    50   24   25 am   BACKBONE|DICT|INTERRES
    51   24   84 1    
    52   25   26 2    
    53   27   28 2    
    54   27   29 am   BACKBONE|DICT|INTERRES
    55   29   30 1    
    56   29   85 1    
    57   30   31 1    
    58   30   32 1    
    59   30   86 1    
    60   31   87 1    
    61   31   88 1    
    62   31   89 1    
    63   32   33 2    
    64   32   34 am   BACKBONE|DICT|INTERRES
    65   34   35 1    
    66   34   90 1    
    67   35   36 1    
    68   35   37 1    
    69   35   91 1    
    70   36   92 1    
    71   36   93 1    
    72   36   94 1    
    73   37   38 2    
    74   37   39 am   BACKBONE|DICT|INTERRES
    75   39   40 1    
    76   39   95 1    
    77   40   41 1    
    78   40   42 1    
    79   40   96 1    
    80   41   97 1    
    81   41   98 1    
    82   41   99 1    
    83   42   43 2    
    84   42   44 am   BACKBONE|DICT|INTERRES
    85   44   45 1    
    86   44  100 1    
    87   45   46 1    
    88   45   47 1    
    89   45  101 1    
    90   46  102 1    
    91   46  103 1    
    92   46  104 1    
    93   47   48 2    
    94   47   49 am   BACKBONE|DICT|INTERRES
    95   49   50 1    
    96   49  105 1    
    97   50   51 1    
    98   50   52 1    
    99   50  106 1    
   100   51  107 1    
   101   51  108 1    
   102   51  109 1    
   103   52   53 2    
   104   52   54 am   BACKBONE|DICT|INTERRES
   105   54   55 1    
   106   54  110 1    
   107   55   56 1    
   108   55   59 1    
   109   55  111 1    
   110   56   57 am   BACKBONE|DICT|INTERRES
   111   56   58 2    
   112   57  112 1    
   113   57  113 1    
   114   59   60 1    
   115   59  114 1    
   116   59  115 1    
   117   60   61 1    
   118   61  116 1    
   119   61  117 1    
@<TRIPOS>SUBSTRUCTURE
     1 UNK         1 GROUP             0       ****    0 ROOT    
