@<TRIPOS>MOLECULE
3R8
117   119    1
SMALL
USER_CHARGES


@<TRIPOS>ATOM
      1 CA         15.1179  -29.6340  -39.7158 C.3       0 UNK        -0.2013 
      2 C          15.6872  -28.5965  -40.6712 C.2       0 UNK         0.4866 
      3 O          16.0076  -27.4837  -40.2511 O.2       0 UNK        -0.5176 
      4 N          15.8175  -28.9501  -41.9552 N.am      1 UNK        -0.4884 
      5 CA         16.3960  -28.1234  -43.0188 C.3       1 UNK         0.0853 
      6 C6         15.8771  -28.5307  -44.4321 C.3       10 UNK        -0.0849 
      7 S7         15.7517  -30.3324  -44.7481 S.3       10 UNK        -0.2776 
      8 C8         16.5183  -30.5071  -46.3979 C.3       10 UNK         0.0316 
      9 C9         18.0349  -30.4040  -46.3305 C.ar      10 UNK        -0.0863 
     10 C10        18.7639  -31.3709  -45.6354 C.ar      10 UNK        -0.1009 
     11 C11        20.1445  -31.2394  -45.4608 C.ar      10 UNK        -0.0712 
     12 C12        20.8088  -30.1610  -46.0574 C.ar      10 UNK        -0.0894 
     13 C13        20.0971  -29.2148  -46.8041 C.ar      10 UNK        -0.0745 
     14 C14        18.7092  -29.3376  -46.9309 C.ar      10 UNK        -0.0972 
     15 C15        20.8140  -28.0561  -47.4805 C.3       10 UNK         0.0209 
     16 S16        20.6467  -26.5145  -46.5277 S.3       10 UNK        -0.2568 
     17 C17        22.2810  -26.3868  -45.7309 C.3       10 UNK        -0.0983 
     18 CA         22.2295  -25.5475  -44.4244 C.3       3 UNK         0.0876 
     19 N          21.5826  -26.2889  -43.3365 N.am      3 UNK        -0.4424 
     20 C          20.3563  -26.0616  -42.8589 C.2       2 UNK         0.4918 
     21 O          19.6310  -25.1308  -43.2184 O.2       2 UNK        -0.4875 
     22 CA         19.8697  -27.0255  -41.7619 C.3       2 UNK         0.0481 
     23 CB         20.1270  -26.4378  -40.3654 C.3       2 UNK        -0.1831 
     24 N          18.4435  -27.3212  -41.9131 N.am      2 UNK        -0.4498 
     25 C          17.9355  -28.0669  -42.9036 C.2       1 UNK         0.5027 
     26 O          18.6383  -28.7005  -43.6838 O.2       1 UNK        -0.4969 
     27 C          23.6275  -25.0503  -43.9930 C.2       3 UNK         0.5005 
     28 O          24.4522  -24.7373  -44.8540 O.2       3 UNK        -0.5279 
     29 N          23.8913  -24.9975  -42.6765 N.am      4 UNK        -0.4463 
     30 CA         25.1328  -24.5981  -41.9905 C.3       4 UNK         0.0283 
     31 CB         25.5347  -23.1478  -42.3229 C.3       4 UNK        -0.1875 
     32 C          26.3103  -25.5678  -42.2016 C.2       4 UNK         0.4949 
     33 O          26.9500  -25.9596  -41.2260 O.2       4 UNK        -0.5039 
     34 N          26.5518  -25.9716  -43.4552 N.am      5 UNK        -0.4663 
     35 CA         27.4895  -27.0326  -43.8406 C.3       5 UNK         0.0242 
     36 CB         27.7271  -26.9646  -45.3575 C.3       5 UNK        -0.1982 
     37 C          26.9961  -28.4343  -43.4329 C.2       5 UNK         0.5017 
     38 O          27.8111  -29.3425  -43.2683 O.2       5 UNK        -0.5012 
     39 N          25.6777  -28.5689  -43.2600 N.am      6 UNK        -0.4439 
     40 CA         24.9854  -29.7049  -42.6706 C.3       6 UNK         0.0297 
     41 CB         24.3988  -30.5907  -43.7803 C.3       6 UNK        -0.2006 
     42 C          23.8796  -29.1275  -41.7822 C.2       6 UNK         0.4892 
     43 O          23.3277  -28.0726  -42.1109 O.2       6 UNK        -0.5089 
     44 N          23.5751  -29.8163  -40.6823 N.am      7 UNK        -0.4243 
     45 CA         22.5622  -29.4299  -39.7071 C.3       7 UNK         0.0196 
     46 CB         23.1603  -28.4418  -38.6888 C.3       7 UNK        -0.2007 
     47 C          22.0251  -30.6915  -39.0273 C.2       7 UNK         0.5020 
     48 O          22.6636  -31.7446  -39.1024 O.2       7 UNK        -0.5147 
     49 N          20.8550  -30.5541  -38.3867 N.am      8 UNK        -0.4734 
     50 CA         20.0687  -31.6232  -37.7513 C.3       8 UNK         0.0238 
     51 CB         20.8157  -32.2191  -36.5378 C.3       8 UNK        -0.1912 
     52 C          19.5949  -32.6967  -38.7544 C.2       8 UNK         0.5038 
     53 O          19.4868  -33.8708  -38.3960 O.2       8 UNK        -0.5046 
     54 N          19.3186  -32.2660  -39.9933 N.am      9 UNK        -0.4200 
     55 CA         18.8624  -33.1119  -41.1064 C.3       9 UNK         0.0839 
     56 C          17.4058  -33.6474  -40.9663 C.2       9 UNK         0.5513 
     57 N          16.5974  -33.1567  -40.0339 N.am      9 UNK        -0.7519 
     58 O          17.0042  -34.5304  -41.7197 O.2       9 UNK        -0.4960 
     59 C59        19.0511  -32.4092  -42.4762 C.3       10 UNK        -0.0876 
     60 S60        20.7740  -31.9066  -42.8295 S.3       10 UNK        -0.2414 
     61 C61        20.9079  -32.2551  -44.6184 C.3       10 UNK         0.0169 
     62 H62        15.8324  -29.8433  -38.9204 H         1 UNK         0.0903 
     63 H63        14.2009  -29.2608  -39.2607 H         1 UNK         0.0903 
     64 H64        14.8880  -30.5716  -40.2220 H         1 UNK         0.0903 
     65 H65        15.5515  -29.8797  -42.2511 H         1 UNK         0.3096 
     66 H66        16.0565  -27.0967  -42.8609 H         1 UNK         0.1121 
     67 H67        16.4768  -28.0573  -45.2121 H         1 UNK         0.0849 
     68 H68        14.8731  -28.1249  -44.5637 H         1 UNK         0.0849 
     69 H69        16.2487  -31.4804  -46.8103 H         1 UNK         0.0865 
     70 H70        16.1001  -29.7617  -47.0763 H         1 UNK         0.0865 
     71 H71        18.2355  -32.1999  -45.1901 H         1 UNK         0.1346 
     72 H72        21.8772  -30.0545  -45.9378 H         1 UNK         0.1412 
     73 H73        18.1552  -28.5885  -47.4798 H         1 UNK         0.1426 
     74 H74        20.3860  -27.8990  -48.4716 H         1 UNK         0.0716 
     75 H75        21.8669  -28.2913  -47.6437 H         1 UNK         0.0716 
     76 H76        22.9462  -25.9416  -46.4728 H         1 UNK         0.0695 
     77 H77        22.6729  -27.3848  -45.5251 H         1 UNK         0.0695 
     78 H78        21.6687  -24.6334  -44.6310 H         1 UNK         0.0983 
     79 H79        22.1295  -27.0566  -42.9442 H         1 UNK         0.3095 
     80 H80        20.4199  -27.9641  -41.8521 H         1 UNK         0.0454 
     81 H81        21.1912  -26.2571  -40.2084 H         1 UNK         0.0851 
     82 H82        19.7951  -27.1168  -39.5802 H         1 UNK         0.0851 
     83 H83        19.6102  -25.4872  -40.2268 H         1 UNK         0.0851 
     84 H84        17.7994  -26.8728  -41.2721 H         1 UNK         0.2976 
     85 H85        23.1561  -25.3174  -42.0612 H         1 UNK         0.3116 
     86 H86        24.8950  -24.6293  -40.9258 H         1 UNK         0.0646 
     87 H87        25.8157  -23.0270  -43.3693 H         1 UNK         0.0847 
     88 H88        24.7222  -22.4529  -42.1117 H         1 UNK         0.0847 
     89 H89        26.3909  -22.8366  -41.7230 H         1 UNK         0.0847 
     90 H90        25.9674  -25.5715  -44.1872 H         1 UNK         0.3040 
     91 H91        28.4390  -26.8565  -43.3301 H         1 UNK         0.1015 
     92 H92        28.4361  -27.7300  -45.6767 H         1 UNK         0.0786 
     93 H93        28.1398  -25.9992  -45.6511 H         1 UNK         0.0786 
     94 H94        26.8040  -27.1195  -45.9179 H         1 UNK         0.0786 
     95 H95        25.0996  -27.7443  -43.3544 H         1 UNK         0.3172 
     96 H96        25.6737  -30.2871  -42.0540 H         1 UNK         0.0595 
     97 H97        23.6760  -30.0455  -44.3874 H         1 UNK         0.0839 
     98 H98        23.8863  -31.4554  -43.3572 H         1 UNK         0.0839 
     99 H99        25.1788  -30.9664  -44.4426 H         1 UNK         0.0839 
    100 H100       24.0042  -30.7161  -40.5023 H         1 UNK         0.2998 
    101 H101       21.7292  -28.9570  -40.2280 H         1 UNK         0.0822 
    102 H102       22.4170  -28.1327  -37.9531 H         1 UNK         0.0787 
    103 H103       23.9957  -28.8843  -38.1448 H         1 UNK         0.0787 
    104 H104       23.5225  -27.5379  -39.1792 H         1 UNK         0.0787 
    105 H105       20.4303  -29.6367  -38.3661 H         1 UNK         0.3055 
    106 H106       19.1598  -31.1528  -37.3721 H         1 UNK         0.1106 
    107 H107       21.1347  -31.4399  -35.8458 H         1 UNK         0.0828 
    108 H108       20.1733  -32.9017  -35.9802 H         1 UNK         0.0828 
    109 H109       21.6991  -32.7824  -36.8397 H         1 UNK         0.0828 
    110 H110       19.4538  -31.2901  -40.2071 H         1 UNK         0.2931 
    111 H111       19.5025  -33.9965  -41.1092 H         1 UNK         0.0412 
    112 H112       16.9221  -32.4511  -39.3943 H         1 UNK         0.3472 
    113 H113       15.6619  -33.5228  -39.9523 H         1 UNK         0.3472 
    114 H114       18.7304  -33.0931  -43.2620 H         1 UNK         0.0970 
    115 H115       18.4118  -31.5271  -42.5552 H         1 UNK         0.0970 
    116 H116       21.9629  -32.2480  -44.8950 H         1 UNK         0.0612 
    117 H117       20.5489  -33.2640  -44.8269 H         1 UNK         0.0612 
@<TRIPOS>BOND
     1    1    2 1    
     2    1   62 1    
     3    1   63 1    
     4    1   64 1    
     5    2    3 2    
     6    2    4 am   BACKBONE|DICT|INTERRES
     7    4    5 1    
     8    4   65 1    
     9    5    6 1    
    10    5   25 1    
    11    5   66 1    
    12    6    7 1    
    13    6   67 1    
    14    6   68 1    
    15    7    8 1    
    16    8    9 1    
    17    8   69 1    
    18    8   70 1    
    19    9   10 ar   
    20    9   14 ar   
    21   10   11 ar   
    22   10   71 1    
    23   11   12 ar   
    24   11   61 1    
    25   12   13 ar   
    26   12   72 1    
    27   13   14 ar   
    28   13   15 1    
    29   14   73 1    
    30   15   16 1    
    31   15   74 1    
    32   15   75 1    
    33   16   17 1    
    34   17   18 1    
    35   17   76 1    
    36   17   77 1    
    37   18   19 1    
    38   18   27 1    
    39   18   78 1    
    40   19   20 am   BACKBONE|DICT|INTERRES
    41   19   79 1    
    42   20   21 2    
    43   20   22 1    
    44   22   23 1    
    45   22   24 1    
    46   22   80 1    
    47   23   81 1    
    48   23   82 1    
    49   23   83 1    
    50   24   25 am   BACKBONE|DICT|INTERRES
    51   24   84 1    
    52   25   26 2    
    53   27   28 2    
    54   27   29 am   BACKBONE|DICT|INTERRES
    55   29   30 1    
    56   29   85 1    
    57   30   31 1    
    58   30   32 1    
    59   30   86 1    
    60   31   87 1    
    61   31   88 1    
    62   31   89 1    
    63   32   33 2    
    64   32   34 am   BACKBONE|DICT|INTERRES
    65   34   35 1    
    66   34   90 1    
    67   35   36 1    
    68   35   37 1    
    69   35   91 1    
    70   36   92 1    
    71   36   93 1    
    72   36   94 1    
    73   37   38 2    
    74   37   39 am   BACKBONE|DICT|INTERRES
    75   39   40 1    
    76   39   95 1    
    77   40   41 1    
    78   40   42 1    
    79   40   96 1    
    80   41   97 1    
    81   41   98 1    
    82   41   99 1    
    83   42   43 2    
    84   42   44 am   BACKBONE|DICT|INTERRES
    85   44   45 1    
    86   44  100 1    
    87   45   46 1    
    88   45   47 1    
    89   45  101 1    
    90   46  102 1    
    91   46  103 1    
    92   46  104 1    
    93   47   48 2    
    94   47   49 am   BACKBONE|DICT|INTERRES
    95   49   50 1    
    96   49  105 1    
    97   50   51 1    
    98   50   52 1    
    99   50  106 1    
   100   51  107 1    
   101   51  108 1    
   102   51  109 1    
   103   52   53 2    
   104   52   54 am   BACKBONE|DICT|INTERRES
   105   54   55 1    
   106   54  110 1    
   107   55   56 1    
   108   55   59 1    
   109   55  111 1    
   110   56   57 am   BACKBONE|DICT|INTERRES
   111   56   58 2    
   112   57  112 1    
   113   57  113 1    
   114   59   60 1    
   115   59  114 1    
   116   59  115 1    
   117   60   61 1    
   118   61  116 1    
   119   61  117 1    
@<TRIPOS>SUBSTRUCTURE
     1 UNK         1 GROUP             0       ****    0 ROOT    
