@<TRIPOS>MOLECULE
3R8
117   119    1
SMALL
USER_CHARGES


@<TRIPOS>ATOM
      1 CA         14.7330  -27.6464  -40.0208 C.3       0 UNK        -0.2013 
      2 C          14.7637  -27.4587  -41.5301 C.2       0 UNK         0.4866 
      3 O          13.8629  -26.8303  -42.0864 O.2       0 UNK        -0.5176 
      4 N          15.7927  -27.9975  -42.1973 N.am      1 UNK        -0.4884 
      5 CA         15.9883  -27.9128  -43.6507 C.3       1 UNK         0.0853 
      6 C6         16.9948  -28.9881  -44.1417 C.3       10 UNK        -0.0849 
      7 S7         16.7247  -29.4595  -45.8852 S.3       10 UNK        -0.2776 
      8 C8         17.6674  -31.0157  -46.0107 C.3       10 UNK         0.0316 
      9 C9         19.1468  -30.8138  -45.7138 C.ar      10 UNK        -0.0863 
     10 C10        19.7241  -31.3962  -44.5811 C.ar      10 UNK        -0.1009 
     11 C11        21.0729  -31.1806  -44.2848 C.ar      10 UNK        -0.0712 
     12 C12        21.8415  -30.3717  -45.1244 C.ar      10 UNK        -0.0894 
     13 C13        21.2731  -29.7685  -46.2489 C.ar      10 UNK        -0.0745 
     14 C14        19.9323  -30.0213  -46.5574 C.ar      10 UNK        -0.0972 
     15 C15        22.0973  -28.7841  -47.0729 C.3       10 UNK         0.0209 
     16 S16        21.3084  -27.1416  -47.2560 S.3       10 UNK        -0.2568 
     17 C17        20.5330  -26.8555  -45.6250 C.3       10 UNK        -0.0983 
     18 CA         20.8105  -25.4536  -45.0253 C.3       3 UNK         0.0876 
     19 N          19.7113  -25.0715  -44.1438 N.am      3 UNK        -0.4424 
     20 C          18.6374  -24.3607  -44.4939 C.2       2 UNK         0.4918 
     21 O          18.4970  -23.8088  -45.5869 O.2       2 UNK        -0.4875 
     22 CA         17.5098  -24.3342  -43.4449 C.3       2 UNK         0.0481 
     23 CB         16.3843  -23.3352  -43.7876 C.3       2 UNK        -0.1831 
     24 N          16.9725  -25.6855  -43.2194 N.am      2 UNK        -0.4498 
     25 C          16.3860  -26.4932  -44.1228 C.2       1 UNK         0.5027 
     26 O          16.1437  -26.1607  -45.2837 O.2       1 UNK        -0.4969 
     27 C          22.1279  -25.4082  -44.2271 C.2       3 UNK         0.5005 
     28 O          22.1194  -25.0713  -43.0383 O.2       3 UNK        -0.5279 
     29 N          23.2373  -25.7627  -44.8887 N.am      4 UNK        -0.4463 
     30 CA         24.5519  -25.9541  -44.2718 C.3       4 UNK         0.0283 
     31 CB         25.5996  -26.1868  -45.3719 C.3       4 UNK        -0.1875 
     32 C          24.5333  -27.1392  -43.2921 C.2       4 UNK         0.4949 
     33 O          23.9471  -28.1760  -43.6079 O.2       4 UNK        -0.5039 
     34 N          25.1837  -26.9728  -42.1344 N.am      5 UNK        -0.4663 
     35 CA         25.2085  -27.9338  -41.0271 C.3       5 UNK         0.0242 
     36 CB         25.6025  -27.1923  -39.7359 C.3       5 UNK        -0.1982 
     37 C          26.1084  -29.1546  -41.3054 C.2       5 UNK         0.5017 
     38 O          27.1080  -29.3606  -40.6146 O.2       5 UNK        -0.5012 
     39 N          25.7331  -29.9465  -42.3169 N.am      6 UNK        -0.4439 
     40 CA         26.3536  -31.2293  -42.6654 C.3       6 UNK         0.0297 
     41 CB         25.8997  -31.6371  -44.0762 C.3       6 UNK        -0.2006 
     42 C          26.0405  -32.3458  -41.6482 C.2       6 UNK         0.4892 
     43 O          26.7874  -33.3215  -41.5682 O.2       6 UNK        -0.5089 
     44 N          24.9528  -32.1735  -40.8917 N.am      7 UNK        -0.4243 
     45 CA         24.4927  -33.0110  -39.7907 C.3       7 UNK         0.0196 
     46 CB         23.6801  -34.2024  -40.3417 C.3       7 UNK        -0.2007 
     47 C          23.6984  -32.1016  -38.8365 C.2       7 UNK         0.5020 
     48 O          23.9969  -30.9074  -38.7543 O.2       7 UNK        -0.5147 
     49 N          22.6862  -32.6520  -38.1514 N.am      8 UNK        -0.4734 
     50 CA         21.7186  -31.8740  -37.3661 C.3       8 UNK         0.0238 
     51 CB         20.8984  -32.8159  -36.4693 C.3       8 UNK        -0.1912 
     52 C          20.7953  -31.0259  -38.2616 C.2       8 UNK         0.5038 
     53 O          20.5219  -29.8721  -37.9300 O.2       8 UNK        -0.5046 
     54 N          20.3683  -31.6166  -39.3877 N.am      9 UNK        -0.4200 
     55 CA         19.6140  -30.9859  -40.4863 C.3       9 UNK         0.0839 
     56 C          18.2008  -30.4517  -40.1059 C.2       9 UNK         0.5513 
     57 N          17.5783  -30.9445  -39.0425 N.am      9 UNK        -0.7519 
     58 O          17.6460  -29.6014  -40.7975 O.2       9 UNK        -0.4960 
     59 C59        20.4548  -29.9434  -41.2809 C.3       10 UNK        -0.0876 
     60 S60        22.1030  -30.5468  -41.7882 S.3       10 UNK        -0.2414 
     61 C61        21.7018  -31.7993  -43.0472 C.3       10 UNK         0.0169 
     62 H62        14.6594  -26.6796  -39.5235 H         1 UNK         0.0903 
     63 H63        13.8681  -28.2441  -39.7347 H         1 UNK         0.0903 
     64 H64        15.6286  -28.1468  -39.6536 H         1 UNK         0.0903 
     65 H65        16.4933  -28.5336  -41.6839 H         1 UNK         0.3096 
     66 H66        15.0182  -28.1276  -44.1054 H         1 UNK         0.1121 
     67 H67        18.0285  -28.6630  -44.0046 H         1 UNK         0.0849 
     68 H68        16.8877  -29.8963  -43.5459 H         1 UNK         0.0849 
     69 H69        17.2295  -31.7553  -45.3385 H         1 UNK         0.0865 
     70 H70        17.5572  -31.4167  -47.0192 H         1 UNK         0.0865 
     71 H71        19.1216  -32.0065  -43.9224 H         1 UNK         0.1346 
     72 H72        22.8753  -30.1796  -44.8730 H         1 UNK         0.1412 
     73 H73        19.4827  -29.5490  -47.4204 H         1 UNK         0.1426 
     74 H74        22.2742  -29.2061  -48.0629 H         1 UNK         0.0716 
     75 H75        23.0795  -28.6383  -46.6199 H         1 UNK         0.0716 
     76 H76        19.4616  -26.9918  -45.7864 H         1 UNK         0.0695 
     77 H77        20.8115  -27.6275  -44.9063 H         1 UNK         0.0695 
     78 H78        20.8946  -24.7166  -45.8273 H         1 UNK         0.0983 
     79 H79        19.7987  -25.4092  -43.1951 H         1 UNK         0.3095 
     80 H80        17.9570  -24.0128  -42.5030 H         1 UNK         0.0454 
     81 H81        15.9003  -23.5694  -44.7360 H         1 UNK         0.0851 
     82 H82        15.6161  -23.3242  -43.0146 H         1 UNK         0.0851 
     83 H83        16.7781  -22.3216  -43.8689 H         1 UNK         0.0851 
     84 H84        17.1068  -26.0639  -42.2921 H         1 UNK         0.2976 
     85 H85        23.1358  -26.0738  -45.8452 H         1 UNK         0.3116 
     86 H86        24.8086  -25.0421  -43.7286 H         1 UNK         0.0646 
     87 H87        25.3831  -27.0851  -45.9521 H         1 UNK         0.0847 
     88 H88        26.5950  -26.3097  -44.9430 H         1 UNK         0.0847 
     89 H89        25.6472  -25.3440  -46.0617 H         1 UNK         0.0847 
     90 H90        25.6720  -26.1024  -41.9779 H         1 UNK         0.3040 
     91 H91        24.1949  -28.3172  -40.8843 H         1 UNK         0.1015 
     92 H92        24.9044  -26.3853  -39.5127 H         1 UNK         0.0786 
     93 H93        26.6034  -26.7639  -39.8031 H         1 UNK         0.0786 
     94 H94        25.5929  -27.8701  -38.8807 H         1 UNK         0.0786 
     95 H95        24.9326  -29.6416  -42.8672 H         1 UNK         0.3172 
     96 H96        27.4367  -31.0919  -42.6808 H         1 UNK         0.0595 
     97 H97        26.1792  -30.8863  -44.8156 H         1 UNK         0.0839 
     98 H98        24.8198  -31.7741  -44.1302 H         1 UNK         0.0839 
     99 H99        26.3632  -32.5772  -44.3787 H         1 UNK         0.0839 
    100 H100       24.4337  -31.3102  -40.9953 H         1 UNK         0.2998 
    101 H101       25.3586  -33.3852  -39.2408 H         1 UNK         0.0822 
    102 H102       24.2577  -34.7681  -41.0731 H         1 UNK         0.0787 
    103 H103       23.4067  -34.9014  -39.5509 H         1 UNK         0.0787 
    104 H104       22.7632  -33.8721  -40.8317 H         1 UNK         0.0787 
    105 H105       22.5142  -33.6425  -38.2482 H         1 UNK         0.3055 
    106 H106       22.2727  -31.1864  -36.7224 H         1 UNK         0.1106 
    107 H107       20.3340  -33.5458  -37.0508 H         1 UNK         0.0828 
    108 H108       21.5400  -33.3618  -35.7774 H         1 UNK         0.0828 
    109 H109       20.1820  -32.2541  -35.8680 H         1 UNK         0.0828 
    110 H110       20.6436  -32.5732  -39.5482 H         1 UNK         0.2931 
    111 H111       19.3966  -31.8019  -41.1748 H         1 UNK         0.0412 
    112 H112       16.6601  -30.6053  -38.8048 H         1 UNK         0.3472 
    113 H113       18.0214  -31.6455  -38.4710 H         1 UNK         0.3472 
    114 H114       20.6025  -29.0468  -40.6767 H         1 UNK         0.0970 
    115 H115       19.9208  -29.6153  -42.1744 H         1 UNK         0.0970 
    116 H116       22.6201  -32.3135  -43.3317 H         1 UNK         0.0612 
    117 H117       21.0542  -32.5626  -42.6154 H         1 UNK         0.0612 
@<TRIPOS>BOND
     1    1    2 1    
     2    1   62 1    
     3    1   63 1    
     4    1   64 1    
     5    2    3 2    
     6    2    4 am   BACKBONE|DICT|INTERRES
     7    4    5 1    
     8    4   65 1    
     9    5    6 1    
    10    5   25 1    
    11    5   66 1    
    12    6    7 1    
    13    6   67 1    
    14    6   68 1    
    15    7    8 1    
    16    8    9 1    
    17    8   69 1    
    18    8   70 1    
    19    9   10 ar   
    20    9   14 ar   
    21   10   11 ar   
    22   10   71 1    
    23   11   12 ar   
    24   11   61 1    
    25   12   13 ar   
    26   12   72 1    
    27   13   14 ar   
    28   13   15 1    
    29   14   73 1    
    30   15   16 1    
    31   15   74 1    
    32   15   75 1    
    33   16   17 1    
    34   17   18 1    
    35   17   76 1    
    36   17   77 1    
    37   18   19 1    
    38   18   27 1    
    39   18   78 1    
    40   19   20 am   BACKBONE|DICT|INTERRES
    41   19   79 1    
    42   20   21 2    
    43   20   22 1    
    44   22   23 1    
    45   22   24 1    
    46   22   80 1    
    47   23   81 1    
    48   23   82 1    
    49   23   83 1    
    50   24   25 am   BACKBONE|DICT|INTERRES
    51   24   84 1    
    52   25   26 2    
    53   27   28 2    
    54   27   29 am   BACKBONE|DICT|INTERRES
    55   29   30 1    
    56   29   85 1    
    57   30   31 1    
    58   30   32 1    
    59   30   86 1    
    60   31   87 1    
    61   31   88 1    
    62   31   89 1    
    63   32   33 2    
    64   32   34 am   BACKBONE|DICT|INTERRES
    65   34   35 1    
    66   34   90 1    
    67   35   36 1    
    68   35   37 1    
    69   35   91 1    
    70   36   92 1    
    71   36   93 1    
    72   36   94 1    
    73   37   38 2    
    74   37   39 am   BACKBONE|DICT|INTERRES
    75   39   40 1    
    76   39   95 1    
    77   40   41 1    
    78   40   42 1    
    79   40   96 1    
    80   41   97 1    
    81   41   98 1    
    82   41   99 1    
    83   42   43 2    
    84   42   44 am   BACKBONE|DICT|INTERRES
    85   44   45 1    
    86   44  100 1    
    87   45   46 1    
    88   45   47 1    
    89   45  101 1    
    90   46  102 1    
    91   46  103 1    
    92   46  104 1    
    93   47   48 2    
    94   47   49 am   BACKBONE|DICT|INTERRES
    95   49   50 1    
    96   49  105 1    
    97   50   51 1    
    98   50   52 1    
    99   50  106 1    
   100   51  107 1    
   101   51  108 1    
   102   51  109 1    
   103   52   53 2    
   104   52   54 am   BACKBONE|DICT|INTERRES
   105   54   55 1    
   106   54  110 1    
   107   55   56 1    
   108   55   59 1    
   109   55  111 1    
   110   56   57 am   BACKBONE|DICT|INTERRES
   111   56   58 2    
   112   57  112 1    
   113   57  113 1    
   114   59   60 1    
   115   59  114 1    
   116   59  115 1    
   117   60   61 1    
   118   61  116 1    
   119   61  117 1    
@<TRIPOS>SUBSTRUCTURE
     1 UNK         1 GROUP             0       ****    0 ROOT    
