@<TRIPOS>MOLECULE
3R8
117   119    1
SMALL
USER_CHARGES


@<TRIPOS>ATOM
      1 CA         13.2144  -26.5597  -40.5740 C.3       0 UNK        -0.2013 
      2 C          13.9863  -26.2117  -41.8381 C.2       0 UNK         0.4866 
      3 O          13.5269  -25.3864  -42.6285 O.2       0 UNK        -0.5176 
      4 N          15.1503  -26.8410  -42.0401 N.am      1 UNK        -0.4884 
      5 CA         16.0471  -26.5987  -43.1752 C.3       1 UNK         0.0853 
      6 C6         17.1231  -27.7036  -43.3016 C.3       10 UNK        -0.0849 
      7 S7         16.4243  -29.3558  -43.6342 S.3       10 UNK        -0.2776 
      8 C8         16.9062  -29.6287  -45.3730 C.3       10 UNK         0.0316 
      9 C9         18.4181  -29.7061  -45.5542 C.ar      10 UNK        -0.0863 
     10 C10        19.1320  -30.7943  -45.0467 C.ar      10 UNK        -0.1009 
     11 C11        20.5182  -30.8759  -45.2083 C.ar      10 UNK        -0.0712 
     12 C12        21.1861  -29.8604  -45.9026 C.ar      10 UNK        -0.0894 
     13 C13        20.4902  -28.7584  -46.4125 C.ar      10 UNK        -0.0745 
     14 C14        19.1008  -28.6981  -46.2421 C.ar      10 UNK        -0.0972 
     15 C15        21.2532  -27.6856  -47.1940 C.3       10 UNK         0.0209 
     16 S16        20.5450  -26.0019  -47.0748 S.3       10 UNK        -0.2568 
     17 C17        21.6404  -25.1488  -45.8803 C.3       10 UNK        -0.0983 
     18 CA         21.1269  -25.1056  -44.4116 C.3       3 UNK         0.0876 
     19 N          19.7261  -24.7116  -44.3113 N.am      3 UNK        -0.4424 
     20 C          19.2350  -23.4728  -44.3878 C.2       2 UNK         0.4918 
     21 O          19.9409  -22.4703  -44.5053 O.2       2 UNK        -0.4875 
     22 CA         17.6996  -23.3150  -44.3497 C.3       2 UNK         0.0481 
     23 CB         17.2001  -22.5991  -45.6166 C.3       2 UNK        -0.1831 
     24 N          16.9845  -24.5914  -44.2220 N.am      2 UNK        -0.4498 
     25 C          16.7275  -25.2173  -43.0653 C.2       1 UNK         0.5027 
     26 O          17.0480  -24.7729  -41.9599 O.2       1 UNK        -0.4969 
     27 C          21.2989  -26.4480  -43.6829 C.2       3 UNK         0.5005 
     28 O          20.3054  -27.0536  -43.2727 O.2       3 UNK        -0.5279 
     29 N          22.5511  -26.8929  -43.5424 N.am      4 UNK        -0.4463 
     30 CA         22.9082  -28.2204  -43.0611 C.3       4 UNK         0.0283 
     31 CB         23.0182  -28.2378  -41.5265 C.3       4 UNK        -0.1875 
     32 C          24.2290  -28.6178  -43.7239 C.2       4 UNK         0.4949 
     33 O          25.1630  -27.8135  -43.7375 O.2       4 UNK        -0.5039 
     34 N          24.2770  -29.8396  -44.2638 N.am      5 UNK        -0.4663 
     35 CA         25.4881  -30.4589  -44.8119 C.3       5 UNK         0.0242 
     36 CB         25.1182  -31.3142  -46.0347 C.3       5 UNK        -0.1982 
     37 C          26.1958  -31.3148  -43.7491 C.2       5 UNK         0.5017 
     38 O          27.4227  -31.4185  -43.7694 O.2       5 UNK        -0.5012 
     39 N          25.4048  -31.8931  -42.8361 N.am      6 UNK        -0.4439 
     40 CA         25.8502  -32.5683  -41.6207 C.3       6 UNK         0.0297 
     41 CB         24.8792  -33.7309  -41.3327 C.3       6 UNK        -0.2006 
     42 C          25.9128  -31.5588  -40.4576 C.2       6 UNK         0.4892 
     43 O          25.8289  -30.3486  -40.6789 O.2       6 UNK        -0.5089 
     44 N          26.0405  -32.0713  -39.2264 N.am      7 UNK        -0.4243 
     45 CA         26.0826  -31.2778  -37.9921 C.3       7 UNK         0.0196 
     46 CB         26.4578  -32.1967  -36.8176 C.3       7 UNK        -0.2007 
     47 C          24.7797  -30.5142  -37.6786 C.2       7 UNK         0.5020 
     48 O          24.8323  -29.5229  -36.9499 O.2       7 UNK        -0.5147 
     49 N          23.6452  -30.9785  -38.2201 N.am      8 UNK        -0.4734 
     50 CA         22.3288  -30.3546  -38.0535 C.3       8 UNK         0.0238 
     51 CB         21.7530  -30.6739  -36.6593 C.3       8 UNK        -0.1912 
     52 C          21.3288  -30.7562  -39.1480 C.2       8 UNK         0.5038 
     53 O          20.4399  -29.9598  -39.4473 O.2       8 UNK        -0.5046 
     54 N          21.4635  -31.9745  -39.6978 N.am      9 UNK        -0.4200 
     55 CA         20.5179  -32.6025  -40.6450 C.3       9 UNK         0.0839 
     56 C          19.1379  -32.9786  -40.0161 C.2       9 UNK         0.5513 
     57 N          18.9962  -33.0140  -38.6960 N.am      9 UNK        -0.7519 
     58 O          18.1868  -33.2846  -40.7306 O.2       9 UNK        -0.4960 
     59 C59        20.3700  -31.8363  -41.9944 C.3       10 UNK        -0.0876 
     60 S60        21.9113  -31.7911  -42.9703 S.3       10 UNK        -0.2414 
     61 C61        21.2843  -32.0757  -44.6608 C.3       10 UNK         0.0169 
     62 H62        13.7288  -27.3116  -39.9757 H         1 UNK         0.0903 
     63 H63        13.0815  -25.6700  -39.9591 H         1 UNK         0.0903 
     64 H64        12.2288  -26.9473  -40.8307 H         1 UNK         0.0903 
     65 H65        15.4848  -27.5053  -41.3568 H         1 UNK         0.3096 
     66 H66        15.4389  -26.6045  -44.0829 H         1 UNK         0.1121 
     67 H67        17.8268  -27.4550  -44.0958 H         1 UNK         0.0849 
     68 H68        17.7208  -27.7655  -42.3896 H         1 UNK         0.0849 
     69 H69        16.4582  -30.5608  -45.7202 H         1 UNK         0.0865 
     70 H70        16.4781  -28.8384  -45.9916 H         1 UNK         0.0865 
     71 H71        18.6001  -31.5777  -44.5255 H         1 UNK         0.1346 
     72 H72        22.2522  -29.9318  -46.0602 H         1 UNK         0.1412 
     73 H73        18.5438  -27.8666  -46.6498 H         1 UNK         0.1426 
     74 H74        21.2536  -27.9767  -48.2450 H         1 UNK         0.0716 
     75 H75        22.2994  -27.6635  -46.8857 H         1 UNK         0.0716 
     76 H76        22.6490  -25.5599  -45.9424 H         1 UNK         0.0695 
     77 H77        21.7389  -24.1223  -46.2364 H         1 UNK         0.0695 
     78 H78        21.7223  -24.3780  -43.8555 H         1 UNK         0.0983 
     79 H79        19.1055  -25.4899  -44.1371 H         1 UNK         0.3095 
     80 H80        17.4602  -22.6841  -43.4912 H         1 UNK         0.0454 
     81 H81        17.6612  -21.6158  -45.7198 H         1 UNK         0.0851 
     82 H82        17.4356  -23.1642  -46.5194 H         1 UNK         0.0851 
     83 H83        16.1215  -22.4445  -45.5871 H         1 UNK         0.0851 
     84 H84        16.6989  -25.0264  -45.0883 H         1 UNK         0.2976 
     85 H85        23.3291  -26.3521  -43.8992 H         1 UNK         0.3116 
     86 H86        22.1315  -28.9241  -43.3641 H         1 UNK         0.0646 
     87 H87        23.2991  -29.2295  -41.1699 H         1 UNK         0.0847 
     88 H88        22.0670  -27.9842  -41.0581 H         1 UNK         0.0847 
     89 H89        23.7715  -27.5361  -41.1667 H         1 UNK         0.0847 
     90 H90        23.4525  -30.4214  -44.2002 H         1 UNK         0.3040 
     91 H91        26.1874  -29.6846  -45.1366 H         1 UNK         0.1015 
     92 H92        24.6192  -30.7197  -46.8000 H         1 UNK         0.0786 
     93 H93        24.4630  -32.1441  -45.7695 H         1 UNK         0.0786 
     94 H94        26.0120  -31.7421  -46.4911 H         1 UNK         0.0786 
     95 H95        24.4145  -31.7062  -42.8888 H         1 UNK         0.3172 
     96 H96        26.8520  -32.9766  -41.7684 H         1 UNK         0.0595 
     97 H97        24.7853  -34.3866  -42.1988 H         1 UNK         0.0839 
     98 H98        23.8798  -33.3745  -41.0817 H         1 UNK         0.0839 
     99 H99        25.2265  -34.3529  -40.5073 H         1 UNK         0.0839 
    100 H100       26.1192  -33.0728  -39.1222 H         1 UNK         0.2998 
    101 H101       26.8713  -30.5308  -38.1061 H         1 UNK         0.0822 
    102 H102       27.4249  -32.6736  -36.9784 H         1 UNK         0.0787 
    103 H103       26.5294  -31.6315  -35.8870 H         1 UNK         0.0787 
    104 H104       25.7154  -32.9812  -36.6652 H         1 UNK         0.0787 
    105 H105       23.7127  -31.7635  -38.8485 H         1 UNK         0.3055 
    106 H106       22.4529  -29.2720  -38.1362 H         1 UNK         0.1106 
    107 H107       21.6758  -31.7484  -36.4909 H         1 UNK         0.0828 
    108 H108       22.3722  -30.2562  -35.8655 H         1 UNK         0.0828 
    109 H109       20.7546  -30.2502  -36.5401 H         1 UNK         0.0828 
    110 H110       22.1711  -32.5945  -39.3384 H         1 UNK         0.2931 
    111 H111       20.9639  -33.5689  -40.8833 H         1 UNK         0.0412 
    112 H112       18.1035  -33.2725  -38.3053 H         1 UNK         0.3472 
    113 H113       19.7653  -32.7868  -38.0879 H         1 UNK         0.3472 
    114 H114       20.0158  -30.8160  -41.8418 H         1 UNK         0.0970 
    115 H115       19.6091  -32.3210  -42.6056 H         1 UNK         0.0970 
    116 H116       20.6547  -32.9668  -44.6715 H         1 UNK         0.0612 
    117 H117       22.1262  -32.3010  -45.3156 H         1 UNK         0.0612 
@<TRIPOS>BOND
     1    1    2 1    
     2    1   62 1    
     3    1   63 1    
     4    1   64 1    
     5    2    3 2    
     6    2    4 am   BACKBONE|DICT|INTERRES
     7    4    5 1    
     8    4   65 1    
     9    5    6 1    
    10    5   25 1    
    11    5   66 1    
    12    6    7 1    
    13    6   67 1    
    14    6   68 1    
    15    7    8 1    
    16    8    9 1    
    17    8   69 1    
    18    8   70 1    
    19    9   10 ar   
    20    9   14 ar   
    21   10   11 ar   
    22   10   71 1    
    23   11   12 ar   
    24   11   61 1    
    25   12   13 ar   
    26   12   72 1    
    27   13   14 ar   
    28   13   15 1    
    29   14   73 1    
    30   15   16 1    
    31   15   74 1    
    32   15   75 1    
    33   16   17 1    
    34   17   18 1    
    35   17   76 1    
    36   17   77 1    
    37   18   19 1    
    38   18   27 1    
    39   18   78 1    
    40   19   20 am   BACKBONE|DICT|INTERRES
    41   19   79 1    
    42   20   21 2    
    43   20   22 1    
    44   22   23 1    
    45   22   24 1    
    46   22   80 1    
    47   23   81 1    
    48   23   82 1    
    49   23   83 1    
    50   24   25 am   BACKBONE|DICT|INTERRES
    51   24   84 1    
    52   25   26 2    
    53   27   28 2    
    54   27   29 am   BACKBONE|DICT|INTERRES
    55   29   30 1    
    56   29   85 1    
    57   30   31 1    
    58   30   32 1    
    59   30   86 1    
    60   31   87 1    
    61   31   88 1    
    62   31   89 1    
    63   32   33 2    
    64   32   34 am   BACKBONE|DICT|INTERRES
    65   34   35 1    
    66   34   90 1    
    67   35   36 1    
    68   35   37 1    
    69   35   91 1    
    70   36   92 1    
    71   36   93 1    
    72   36   94 1    
    73   37   38 2    
    74   37   39 am   BACKBONE|DICT|INTERRES
    75   39   40 1    
    76   39   95 1    
    77   40   41 1    
    78   40   42 1    
    79   40   96 1    
    80   41   97 1    
    81   41   98 1    
    82   41   99 1    
    83   42   43 2    
    84   42   44 am   BACKBONE|DICT|INTERRES
    85   44   45 1    
    86   44  100 1    
    87   45   46 1    
    88   45   47 1    
    89   45  101 1    
    90   46  102 1    
    91   46  103 1    
    92   46  104 1    
    93   47   48 2    
    94   47   49 am   BACKBONE|DICT|INTERRES
    95   49   50 1    
    96   49  105 1    
    97   50   51 1    
    98   50   52 1    
    99   50  106 1    
   100   51  107 1    
   101   51  108 1    
   102   51  109 1    
   103   52   53 2    
   104   52   54 am   BACKBONE|DICT|INTERRES
   105   54   55 1    
   106   54  110 1    
   107   55   56 1    
   108   55   59 1    
   109   55  111 1    
   110   56   57 am   BACKBONE|DICT|INTERRES
   111   56   58 2    
   112   57  112 1    
   113   57  113 1    
   114   59   60 1    
   115   59  114 1    
   116   59  115 1    
   117   60   61 1    
   118   61  116 1    
   119   61  117 1    
@<TRIPOS>SUBSTRUCTURE
     1 UNK         1 GROUP             0       ****    0 ROOT    
