@<TRIPOS>MOLECULE
3R8
117   119    1
SMALL
USER_CHARGES


@<TRIPOS>ATOM
      1 CA         15.2620  -28.3040  -40.1470 C.3       0 UNK        -0.2013 
      2 C          16.0648  -27.0623  -40.5036 C.2       0 UNK         0.4866 
      3 O          15.7553  -25.9751  -40.0158 O.2       0 UNK        -0.5176 
      4 N          17.0919  -27.2102  -41.3457 N.am      1 UNK        -0.4884 
      5 CA         18.0006  -26.1449  -41.7647 C.3       1 UNK         0.0853 
      6 C6         17.3717  -25.2197  -42.8506 C.3       10 UNK        -0.0849 
      7 S7         17.4713  -25.7648  -44.5956 S.3       10 UNK        -0.2776 
      8 C8         16.0254  -26.8580  -44.7926 C.3       10 UNK         0.0316 
      9 C9         16.4576  -28.3105  -44.9415 C.ar      10 UNK        -0.0863 
     10 C10        16.1920  -29.2388  -43.9312 C.ar      10 UNK        -0.1009 
     11 C11        16.6458  -30.5562  -44.0414 C.ar      10 UNK        -0.0712 
     12 C12        17.3501  -30.9499  -45.1820 C.ar      10 UNK        -0.0894 
     13 C13        17.6097  -30.0370  -46.2071 C.ar      10 UNK        -0.0745 
     14 C14        17.1453  -28.7227  -46.0887 C.ar      10 UNK        -0.0972 
     15 C15        18.4278  -30.4696  -47.4188 C.3       10 UNK         0.0209 
     16 S16        19.9864  -29.5360  -47.6109 S.3       10 UNK        -0.2568 
     17 C17        20.6151  -29.4488  -45.9014 C.3       10 UNK        -0.0983 
     18 CA         21.9985  -28.7398  -45.8189 C.3       3 UNK         0.0876 
     19 N          22.1711  -28.0522  -44.5413 N.am      3 UNK        -0.4424 
     20 C          21.6203  -26.8697  -44.2584 C.2       2 UNK         0.4918 
     21 O          21.0458  -26.1617  -45.0884 O.2       2 UNK        -0.4875 
     22 CA         21.7088  -26.3917  -42.7999 C.3       2 UNK         0.0481 
     23 CB         22.7025  -25.2263  -42.6728 C.3       2 UNK        -0.1831 
     24 N          20.3894  -25.9626  -42.3254 N.am      2 UNK        -0.4498 
     25 C          19.3477  -26.7878  -42.1469 C.2       1 UNK         0.5027 
     26 O          19.4245  -28.0163  -42.2467 O.2       1 UNK        -0.4969 
     27 C          23.2278  -29.6327  -46.0550 C.2       3 UNK         0.5005 
     28 O          24.3436  -29.1099  -46.0971 O.2       3 UNK        -0.5279 
     29 N          23.0260  -30.9536  -46.1803 N.am      4 UNK        -0.4463 
     30 CA         24.0839  -31.9675  -46.2804 C.3       4 UNK         0.0283 
     31 CB         23.4488  -33.3366  -46.5718 C.3       4 UNK        -0.1875 
     32 C          24.9797  -32.0441  -45.0280 C.2       4 UNK         0.4949 
     33 O          26.1484  -32.4138  -45.1435 O.2       4 UNK        -0.5039 
     34 N          24.4237  -31.6646  -43.8716 N.am      5 UNK        -0.4663 
     35 CA         25.1483  -31.3753  -42.6390 C.3       5 UNK         0.0242 
     36 CB         24.5814  -32.2377  -41.5007 C.3       5 UNK        -0.1982 
     37 C          24.9830  -29.8797  -42.3319 C.2       5 UNK         0.5017 
     38 O          23.9305  -29.3046  -42.6327 O.2       5 UNK        -0.5012 
     39 N          26.0301  -29.2808  -41.7524 N.am      6 UNK        -0.4439 
     40 CA         26.0749  -27.8718  -41.3598 C.3       6 UNK         0.0297 
     41 CB         27.5380  -27.4647  -41.1197 C.3       6 UNK        -0.2006 
     42 C          25.2316  -27.6046  -40.1036 C.2       6 UNK         0.4892 
     43 O          25.0722  -28.4989  -39.2703 O.2       6 UNK        -0.5089 
     44 N          24.7321  -26.3661  -39.9902 N.am      7 UNK        -0.4243 
     45 CA         23.8577  -25.8169  -38.9414 C.3       7 UNK         0.0196 
     46 CB         24.5069  -25.8963  -37.5453 C.3       7 UNK        -0.2007 
     47 C          22.4362  -26.4079  -38.9346 C.2       7 UNK         0.5020 
     48 O          21.4710  -25.6439  -38.9212 O.2       7 UNK        -0.5147 
     49 N          22.3227  -27.7376  -38.9681 N.am      8 UNK        -0.4734 
     50 CA         21.0710  -28.4776  -39.0644 C.3       8 UNK         0.0238 
     51 CB         20.4689  -28.6870  -37.6638 C.3       8 UNK        -0.1912 
     52 C          21.3381  -29.8172  -39.7561 C.2       8 UNK         0.5038 
     53 O          22.3932  -30.4149  -39.5400 O.2       8 UNK        -0.5046 
     54 N          20.3577  -30.2703  -40.5412 N.am      9 UNK        -0.4200 
     55 CA         20.3432  -31.5359  -41.2880 C.3       9 UNK         0.0839 
     56 C          20.3907  -32.8400  -40.4369 C.2       9 UNK         0.5513 
     57 N          20.1679  -32.7949  -39.1289 N.am      9 UNK        -0.7519 
     58 O          20.6417  -33.9131  -40.9789 O.2       9 UNK        -0.4960 
     59 C59        19.1692  -31.5544  -42.3021 C.3       10 UNK        -0.0876 
     60 S60        17.5364  -31.2811  -41.5215 S.3       10 UNK        -0.2414 
     61 C61        16.4013  -31.5509  -42.9176 C.3       10 UNK         0.0169 
     62 H62        14.2356  -28.2006  -40.4979 H         1 UNK         0.0903 
     63 H63        15.6825  -29.2052  -40.5894 H         1 UNK         0.0903 
     64 H64        15.2406  -28.4391  -39.0659 H         1 UNK         0.0903 
     65 H65        17.3609  -28.1212  -41.7004 H         1 UNK         0.3096 
     66 H66        18.2056  -25.5351  -40.8812 H         1 UNK         0.1121 
     67 H67        17.8786  -24.2544  -42.8105 H         1 UNK         0.0849 
     68 H68        16.3331  -24.9916  -42.6069 H         1 UNK         0.0849 
     69 H69        15.4728  -26.5567  -45.6836 H         1 UNK         0.0865 
     70 H70        15.3400  -26.7363  -43.9525 H         1 UNK         0.0865 
     71 H71        15.6487  -28.9345  -43.0487 H         1 UNK         0.1346 
     72 H72        17.7137  -31.9653  -45.2609 H         1 UNK         0.1412 
     73 H73        17.3618  -28.0071  -46.8704 H         1 UNK         0.1426 
     74 H74        17.8267  -30.3430  -48.3200 H         1 UNK         0.0716 
     75 H75        18.6697  -31.5319  -47.3602 H         1 UNK         0.0716 
     76 H76        20.6042  -30.4328  -45.4310 H         1 UNK         0.0695 
     77 H77        19.8838  -28.8660  -45.3388 H         1 UNK         0.0695 
     78 H78        22.0452  -27.9820  -46.6048 H         1 UNK         0.0983 
     79 H79        22.7220  -28.5389  -43.8351 H         1 UNK         0.3095 
     80 H80        22.0508  -27.2128  -42.1656 H         1 UNK         0.0454 
     81 H81        22.4281  -24.3905  -43.3178 H         1 UNK         0.0851 
     82 H82        23.7066  -25.5409  -42.9591 H         1 UNK         0.0851 
     83 H83        22.7523  -24.8534  -41.6505 H         1 UNK         0.0851 
     84 H84        20.2429  -24.9669  -42.2487 H         1 UNK         0.2976 
     85 H85        22.0741  -31.2914  -46.1801 H         1 UNK         0.3116 
     86 H86        24.7227  -31.6985  -47.1242 H         1 UNK         0.0646 
     87 H87        22.7821  -33.6534  -45.7688 H         1 UNK         0.0847 
     88 H88        24.2151  -34.1056  -46.6799 H         1 UNK         0.0847 
     89 H89        22.8765  -33.3211  -47.4995 H         1 UNK         0.0847 
     90 H90        23.4748  -31.3204  -43.8967 H         1 UNK         0.3040 
     91 H91        26.2116  -31.5971  -42.7559 H         1 UNK         0.1015 
     92 H92        23.5154  -32.0661  -41.3561 H         1 UNK         0.0786 
     93 H93        25.0760  -32.0133  -40.5547 H         1 UNK         0.0786 
     94 H94        24.7239  -33.2997  -41.7005 H         1 UNK         0.0786 
     95 H95        26.8301  -29.8412  -41.4967 H         1 UNK         0.3172 
     96 H96        25.6772  -27.2750  -42.1839 H         1 UNK         0.0595 
     97 H97        27.6143  -26.4082  -40.8589 H         1 UNK         0.0839 
     98 H98        28.1458  -27.6196  -42.0114 H         1 UNK         0.0839 
     99 H99        27.9868  -28.0328  -40.3036 H         1 UNK         0.0839 
    100 H100       24.9481  -25.7165  -40.7333 H         1 UNK         0.2998 
    101 H101       23.7490  -24.7578  -39.1818 H         1 UNK         0.0822 
    102 H102       23.8945  -25.3805  -36.8046 H         1 UNK         0.0787 
    103 H103       24.6249  -26.9249  -37.2035 H         1 UNK         0.0787 
    104 H104       25.4900  -25.4256  -37.5379 H         1 UNK         0.0787 
    105 H105       23.1712  -28.3011  -39.0176 H         1 UNK         0.3055 
    106 H106       20.3678  -27.9049  -39.6707 H         1 UNK         0.1106 
    107 H107       19.5305  -29.2403  -37.7193 H         1 UNK         0.0828 
    108 H108       21.1440  -29.2486  -37.0169 H         1 UNK         0.0828 
    109 H109       20.2537  -27.7355  -37.1773 H         1 UNK         0.0828 
    110 H110       19.5505  -29.6834  -40.7001 H         1 UNK         0.2931 
    111 H111       21.2620  -31.5422  -41.8766 H         1 UNK         0.0412 
    112 H112       20.2059  -33.6459  -38.5904 H         1 UNK         0.3472 
    113 H113       19.9649  -31.9184  -38.6776 H         1 UNK         0.3472 
    114 H114       19.1517  -32.4893  -42.8655 H         1 UNK         0.0970 
    115 H115       19.3262  -30.7653  -43.0397 H         1 UNK         0.0970 
    116 H116       15.3745  -31.4547  -42.5621 H         1 UNK         0.0612 
    117 H117       16.5080  -32.5763  -43.2752 H         1 UNK         0.0612 
@<TRIPOS>BOND
     1    1    2 1    
     2    1   62 1    
     3    1   63 1    
     4    1   64 1    
     5    2    3 2    
     6    2    4 am   BACKBONE|DICT|INTERRES
     7    4    5 1    
     8    4   65 1    
     9    5    6 1    
    10    5   25 1    
    11    5   66 1    
    12    6    7 1    
    13    6   67 1    
    14    6   68 1    
    15    7    8 1    
    16    8    9 1    
    17    8   69 1    
    18    8   70 1    
    19    9   10 ar   
    20    9   14 ar   
    21   10   11 ar   
    22   10   71 1    
    23   11   12 ar   
    24   11   61 1    
    25   12   13 ar   
    26   12   72 1    
    27   13   14 ar   
    28   13   15 1    
    29   14   73 1    
    30   15   16 1    
    31   15   74 1    
    32   15   75 1    
    33   16   17 1    
    34   17   18 1    
    35   17   76 1    
    36   17   77 1    
    37   18   19 1    
    38   18   27 1    
    39   18   78 1    
    40   19   20 am   BACKBONE|DICT|INTERRES
    41   19   79 1    
    42   20   21 2    
    43   20   22 1    
    44   22   23 1    
    45   22   24 1    
    46   22   80 1    
    47   23   81 1    
    48   23   82 1    
    49   23   83 1    
    50   24   25 am   BACKBONE|DICT|INTERRES
    51   24   84 1    
    52   25   26 2    
    53   27   28 2    
    54   27   29 am   BACKBONE|DICT|INTERRES
    55   29   30 1    
    56   29   85 1    
    57   30   31 1    
    58   30   32 1    
    59   30   86 1    
    60   31   87 1    
    61   31   88 1    
    62   31   89 1    
    63   32   33 2    
    64   32   34 am   BACKBONE|DICT|INTERRES
    65   34   35 1    
    66   34   90 1    
    67   35   36 1    
    68   35   37 1    
    69   35   91 1    
    70   36   92 1    
    71   36   93 1    
    72   36   94 1    
    73   37   38 2    
    74   37   39 am   BACKBONE|DICT|INTERRES
    75   39   40 1    
    76   39   95 1    
    77   40   41 1    
    78   40   42 1    
    79   40   96 1    
    80   41   97 1    
    81   41   98 1    
    82   41   99 1    
    83   42   43 2    
    84   42   44 am   BACKBONE|DICT|INTERRES
    85   44   45 1    
    86   44  100 1    
    87   45   46 1    
    88   45   47 1    
    89   45  101 1    
    90   46  102 1    
    91   46  103 1    
    92   46  104 1    
    93   47   48 2    
    94   47   49 am   BACKBONE|DICT|INTERRES
    95   49   50 1    
    96   49  105 1    
    97   50   51 1    
    98   50   52 1    
    99   50  106 1    
   100   51  107 1    
   101   51  108 1    
   102   51  109 1    
   103   52   53 2    
   104   52   54 am   BACKBONE|DICT|INTERRES
   105   54   55 1    
   106   54  110 1    
   107   55   56 1    
   108   55   59 1    
   109   55  111 1    
   110   56   57 am   BACKBONE|DICT|INTERRES
   111   56   58 2    
   112   57  112 1    
   113   57  113 1    
   114   59   60 1    
   115   59  114 1    
   116   59  115 1    
   117   60   61 1    
   118   61  116 1    
   119   61  117 1    
@<TRIPOS>SUBSTRUCTURE
     1 UNK         1 GROUP             0       ****    0 ROOT    
