@<TRIPOS>MOLECULE
3R8
117   119    1
SMALL
USER_CHARGES


@<TRIPOS>ATOM
      1 CA         13.8793  -21.7593  -43.6748 C.3       0 UNK        -0.2013 
      2 C          14.5755  -22.7599  -44.5853 C.2       0 UNK         0.4866 
      3 O          14.8117  -22.4608  -45.7566 O.2       0 UNK        -0.5176 
      4 N          14.8987  -23.9486  -44.0602 N.am      1 UNK        -0.4884 
      5 CA         15.6358  -24.9992  -44.7697 C.3       1 UNK         0.0853 
      6 C6         15.4498  -26.3716  -44.0766 C.3       10 UNK        -0.0849 
      7 S7         15.7318  -27.7729  -45.2116 S.3       10 UNK        -0.2776 
      8 C8         15.7424  -29.1789  -44.0547 C.3       10 UNK         0.0316 
      9 C9         17.1063  -29.3770  -43.4073 C.ar      10 UNK        -0.0863 
     10 C10        18.0504  -30.2204  -44.0038 C.ar      10 UNK        -0.1009 
     11 C11        19.2904  -30.4390  -43.3958 C.ar      10 UNK        -0.0712 
     12 C12        19.5862  -29.7963  -42.1917 C.ar      10 UNK        -0.0894 
     13 C13        18.6564  -28.9453  -41.5880 C.ar      10 UNK        -0.0745 
     14 C14        17.4142  -28.7470  -42.1971 C.ar      10 UNK        -0.0972 
     15 C15        18.9798  -28.2626  -40.2653 C.3       10 UNK         0.0209 
     16 S16        20.5344  -27.3150  -40.3243 S.3       10 UNK        -0.2568 
     17 C17        20.1642  -26.0337  -41.5728 C.3       10 UNK        -0.0983 
     18 CA         20.7912  -26.3335  -42.9622 C.3       3 UNK         0.0876 
     19 N          20.0848  -25.5982  -44.0186 N.am      3 UNK        -0.4424 
     20 C          20.0489  -25.9068  -45.3205 C.2       2 UNK         0.4918 
     21 O          20.6486  -26.8678  -45.8060 O.2       2 UNK        -0.4875 
     22 CA         19.2099  -24.9797  -46.2202 C.3       2 UNK         0.0481 
     23 CB         19.4669  -25.2264  -47.7182 C.3       2 UNK        -0.1831 
     24 N          17.7799  -25.1336  -45.9523 N.am      2 UNK        -0.4498 
     25 C          17.1299  -24.6316  -44.8948 C.2       1 UNK         0.5027 
     26 O          17.6734  -23.9432  -44.0247 O.2       1 UNK        -0.4969 
     27 C          22.3286  -26.1288  -43.0132 C.2       3 UNK         0.5005 
     28 O          22.9654  -25.8984  -41.9835 O.2       3 UNK        -0.5279 
     29 N          22.9186  -26.2369  -44.2119 N.am      4 UNK        -0.4463 
     30 CA         24.3569  -26.1046  -44.4698 C.3       4 UNK         0.0283 
     31 CB         24.5955  -26.0526  -45.9871 C.3       4 UNK        -0.1875 
     32 C          25.1944  -27.2257  -43.8291 C.2       4 UNK         0.4949 
     33 O          26.3656  -27.0080  -43.5202 O.2       4 UNK        -0.5039 
     34 N          24.5716  -28.3938  -43.6219 N.am      5 UNK        -0.4663 
     35 CA         25.1580  -29.5463  -42.9376 C.3       5 UNK         0.0242 
     36 CB         24.3963  -30.8148  -43.3609 C.3       5 UNK        -0.1982 
     37 C          25.1514  -29.4196  -41.4036 C.2       5 UNK         0.5017 
     38 O          25.7408  -30.2774  -40.7495 O.2       5 UNK        -0.5012 
     39 N          24.4542  -28.4148  -40.8445 N.am      6 UNK        -0.4439 
     40 CA         24.2403  -28.2003  -39.4042 C.3       6 UNK         0.0297 
     41 CB         25.5480  -27.7458  -38.7223 C.3       6 UNK        -0.2006 
     42 C          23.5922  -29.4202  -38.7121 C.2       6 UNK         0.4892 
     43 O          24.0230  -29.8254  -37.6315 O.2       6 UNK        -0.5089 
     44 N          22.5882  -29.9961  -39.3904 N.am      7 UNK        -0.4243 
     45 CA         21.8161  -31.1957  -39.0382 C.3       7 UNK         0.0196 
     46 CB         21.1038  -31.0285  -37.6795 C.3       7 UNK        -0.2007 
     47 C          22.5943  -32.5254  -39.1301 C.2       7 UNK         0.5020 
     48 O          22.0353  -33.5630  -38.7729 O.2       7 UNK        -0.5147 
     49 N          23.8324  -32.5157  -39.6506 N.am      8 UNK        -0.4734 
     50 CA         24.6453  -33.7243  -39.8618 C.3       8 UNK         0.0238 
     51 CB         26.1267  -33.3345  -39.9931 C.3       8 UNK        -0.1912 
     52 C          24.2027  -34.5731  -41.0711 C.2       8 UNK         0.5038 
     53 O          24.7361  -35.6673  -41.2593 O.2       8 UNK        -0.5046 
     54 N          23.2517  -34.0647  -41.8659 N.am      9 UNK        -0.4200 
     55 CA         22.6232  -34.7518  -43.0045 C.3       9 UNK         0.0839 
     56 C          21.7638  -35.9991  -42.6358 C.2       9 UNK         0.5513 
     57 N          21.3852  -36.2008  -41.3785 N.am      9 UNK        -0.7519 
     58 O          21.4446  -36.8015  -43.5094 O.2       9 UNK        -0.4960 
     59 C59        21.8372  -33.7558  -43.9002 C.3       10 UNK        -0.0876 
     60 S60        20.5199  -32.8674  -42.9981 S.3       10 UNK        -0.2414 
     61 C61        20.3117  -31.3774  -44.0201 C.3       10 UNK         0.0169 
     62 H62        13.7201  -22.1598  -42.6737 H         1 UNK         0.0903 
     63 H63        14.4787  -20.8536  -43.5859 H         1 UNK         0.0903 
     64 H64        12.9089  -21.4868  -44.0889 H         1 UNK         0.0903 
     65 H65        14.7139  -24.1238  -43.0825 H         1 UNK         0.3096 
     66 H66        15.2160  -25.0588  -45.7771 H         1 UNK         0.1121 
     67 H67        16.0948  -26.4551  -43.2011 H         1 UNK         0.0849 
     68 H68        14.4273  -26.4689  -43.7072 H         1 UNK         0.0849 
     69 H69        14.9729  -29.0409  -43.2934 H         1 UNK         0.0865 
     70 H70        15.4622  -30.0809  -44.6010 H         1 UNK         0.0865 
     71 H71        17.8135  -30.7164  -44.9353 H         1 UNK         0.1346 
     72 H72        20.5435  -29.9653  -41.7222 H         1 UNK         0.1412 
     73 H73        16.6817  -28.1097  -41.7219 H         1 UNK         0.1426 
     74 H74        18.1719  -27.5965  -39.9584 H         1 UNK         0.0716 
     75 H75        19.0628  -29.0243  -39.4891 H         1 UNK         0.0716 
     76 H76        19.0791  -25.9552  -41.6609 H         1 UNK         0.0695 
     77 H77        20.4975  -25.0653  -41.1952 H         1 UNK         0.0695 
     78 H78        20.6287  -27.3924  -43.1700 H         1 UNK         0.0983 
     79 H79        19.5301  -24.8037  -43.7186 H         1 UNK         0.3095 
     80 H80        19.5025  -23.9508  -45.9997 H         1 UNK         0.0454 
     81 H81        19.1781  -26.2342  -48.0195 H         1 UNK         0.0851 
     82 H82        18.9140  -24.5199  -48.3375 H         1 UNK         0.0851 
     83 H83        20.5242  -25.1055  -47.9578 H         1 UNK         0.0851 
     84 H84        17.2729  -25.7424  -46.5798 H         1 UNK         0.2976 
     85 H85        22.3208  -26.4579  -45.0044 H         1 UNK         0.3116 
     86 H86        24.6892  -25.1586  -44.0370 H         1 UNK         0.0646 
     87 H87        25.6562  -25.9306  -46.2114 H         1 UNK         0.0847 
     88 H88        24.0713  -25.2128  -46.4434 H         1 UNK         0.0847 
     89 H89        24.2610  -26.9659  -46.4809 H         1 UNK         0.0847 
     90 H90        23.6150  -28.4825  -43.9318 H         1 UNK         0.3040 
     91 H91        26.1996  -29.6487  -43.2508 H         1 UNK         0.1015 
     92 H92        23.3659  -30.8036  -43.0056 H         1 UNK         0.0786 
     93 H93        24.8701  -31.7087  -42.9528 H         1 UNK         0.0786 
     94 H94        24.3803  -30.9287  -44.4450 H         1 UNK         0.0786 
     95 H95        24.0175  -27.7311  -41.4533 H         1 UNK         0.3172 
     96 H96        23.5235  -27.3821  -39.3192 H         1 UNK         0.0595 
     97 H97        25.3715  -27.4752  -37.6805 H         1 UNK         0.0839 
     98 H98        25.9690  -26.8704  -39.2167 H         1 UNK         0.0839 
     99 H99        26.3040  -28.5317  -38.7299 H         1 UNK         0.0839 
    100 H100       22.3279  -29.5550  -40.2605 H         1 UNK         0.2998 
    101 H101       21.0349  -31.2722  -39.7953 H         1 UNK         0.0822 
    102 H102       20.5462  -30.0930  -37.6353 H         1 UNK         0.0787 
    103 H103       20.3913  -31.8367  -37.5096 H         1 UNK         0.0787 
    104 H104       21.8075  -31.0403  -36.8469 H         1 UNK         0.0787 
    105 H105       24.2609  -31.6325  -39.9047 H         1 UNK         0.3055 
    106 H106       24.5449  -34.3578  -38.9775 H         1 UNK         0.1106 
    107 H107       26.7639  -34.2197  -39.9834 H         1 UNK         0.0828 
    108 H108       26.3246  -32.8079  -40.9270 H         1 UNK         0.0828 
    109 H109       26.4483  -32.6957  -39.1702 H         1 UNK         0.0828 
    110 H110       22.8521  -33.1734  -41.6173 H         1 UNK         0.2931 
    111 H111       23.4429  -35.1381  -43.6135 H         1 UNK         0.0412 
    112 H112       20.8331  -37.0130  -41.1521 H         1 UNK         0.3472 
    113 H113       21.6289  -35.5377  -40.6584 H         1 UNK         0.3472 
    114 H114       22.5306  -33.0270  -44.3219 H         1 UNK         0.0970 
    115 H115       21.3948  -34.2685  -44.7566 H         1 UNK         0.0970 
    116 H116       21.2647  -30.8580  -44.1216 H         1 UNK         0.0612 
    117 H117       20.0064  -31.6721  -45.0253 H         1 UNK         0.0612 
@<TRIPOS>BOND
     1    1    2 1    
     2    1   62 1    
     3    1   63 1    
     4    1   64 1    
     5    2    3 2    
     6    2    4 am   BACKBONE|DICT|INTERRES
     7    4    5 1    
     8    4   65 1    
     9    5    6 1    
    10    5   25 1    
    11    5   66 1    
    12    6    7 1    
    13    6   67 1    
    14    6   68 1    
    15    7    8 1    
    16    8    9 1    
    17    8   69 1    
    18    8   70 1    
    19    9   10 ar   
    20    9   14 ar   
    21   10   11 ar   
    22   10   71 1    
    23   11   12 ar   
    24   11   61 1    
    25   12   13 ar   
    26   12   72 1    
    27   13   14 ar   
    28   13   15 1    
    29   14   73 1    
    30   15   16 1    
    31   15   74 1    
    32   15   75 1    
    33   16   17 1    
    34   17   18 1    
    35   17   76 1    
    36   17   77 1    
    37   18   19 1    
    38   18   27 1    
    39   18   78 1    
    40   19   20 am   BACKBONE|DICT|INTERRES
    41   19   79 1    
    42   20   21 2    
    43   20   22 1    
    44   22   23 1    
    45   22   24 1    
    46   22   80 1    
    47   23   81 1    
    48   23   82 1    
    49   23   83 1    
    50   24   25 am   BACKBONE|DICT|INTERRES
    51   24   84 1    
    52   25   26 2    
    53   27   28 2    
    54   27   29 am   BACKBONE|DICT|INTERRES
    55   29   30 1    
    56   29   85 1    
    57   30   31 1    
    58   30   32 1    
    59   30   86 1    
    60   31   87 1    
    61   31   88 1    
    62   31   89 1    
    63   32   33 2    
    64   32   34 am   BACKBONE|DICT|INTERRES
    65   34   35 1    
    66   34   90 1    
    67   35   36 1    
    68   35   37 1    
    69   35   91 1    
    70   36   92 1    
    71   36   93 1    
    72   36   94 1    
    73   37   38 2    
    74   37   39 am   BACKBONE|DICT|INTERRES
    75   39   40 1    
    76   39   95 1    
    77   40   41 1    
    78   40   42 1    
    79   40   96 1    
    80   41   97 1    
    81   41   98 1    
    82   41   99 1    
    83   42   43 2    
    84   42   44 am   BACKBONE|DICT|INTERRES
    85   44   45 1    
    86   44  100 1    
    87   45   46 1    
    88   45   47 1    
    89   45  101 1    
    90   46  102 1    
    91   46  103 1    
    92   46  104 1    
    93   47   48 2    
    94   47   49 am   BACKBONE|DICT|INTERRES
    95   49   50 1    
    96   49  105 1    
    97   50   51 1    
    98   50   52 1    
    99   50  106 1    
   100   51  107 1    
   101   51  108 1    
   102   51  109 1    
   103   52   53 2    
   104   52   54 am   BACKBONE|DICT|INTERRES
   105   54   55 1    
   106   54  110 1    
   107   55   56 1    
   108   55   59 1    
   109   55  111 1    
   110   56   57 am   BACKBONE|DICT|INTERRES
   111   56   58 2    
   112   57  112 1    
   113   57  113 1    
   114   59   60 1    
   115   59  114 1    
   116   59  115 1    
   117   60   61 1    
   118   61  116 1    
   119   61  117 1    
@<TRIPOS>SUBSTRUCTURE
     1 UNK         1 GROUP             0       ****    0 ROOT    
