@<TRIPOS>MOLECULE
3R8
117   119    1
SMALL
USER_CHARGES


@<TRIPOS>ATOM
      1 CA         15.5667  -24.9268  -40.7885 C.3       0 UNK        -0.2013 
      2 C          15.6559  -24.5729  -42.2655 C.2       0 UNK         0.4866 
      3 O          14.6426  -24.2362  -42.8783 O.2       0 UNK        -0.5176 
      4 N          16.8606  -24.6441  -42.8379 N.am      1 UNK        -0.4884 
      5 CA         17.1806  -24.3254  -44.2278 C.3       1 UNK         0.0853 
      6 C6         16.5970  -25.3646  -45.2350 C.3       10 UNK        -0.0849 
      7 S7         17.5750  -26.8925  -45.4128 S.3       10 UNK        -0.2776 
      8 C8         16.5983  -28.1714  -44.5489 C.3       10 UNK         0.0316 
      9 C9         17.4817  -29.3889  -44.3008 C.ar      10 UNK        -0.0863 
     10 C10        17.6990  -29.8791  -43.0080 C.ar      10 UNK        -0.1009 
     11 C11        18.6613  -30.8706  -42.7821 C.ar      10 UNK        -0.0712 
     12 C12        19.4047  -31.3678  -43.8561 C.ar      10 UNK        -0.0894 
     13 C13        19.1907  -30.8877  -45.1486 C.ar      10 UNK        -0.0745 
     14 C14        18.1814  -29.9526  -45.3705 C.ar      10 UNK        -0.0972 
     15 C15        20.0989  -31.3052  -46.2943 C.3       10 UNK         0.0209 
     16 S16        21.6504  -30.3353  -46.3151 S.3       10 UNK        -0.2568 
     17 C17        21.0847  -28.6102  -46.5862 C.3       10 UNK        -0.0983 
     18 CA         21.6226  -27.5319  -45.6008 C.3       3 UNK         0.0876 
     19 N          20.9884  -26.2284  -45.8537 N.am      3 UNK        -0.4424 
     20 C          21.5029  -25.0470  -45.4814 C.2       2 UNK         0.4918 
     21 O          22.5754  -24.9296  -44.8900 O.2       2 UNK        -0.4875 
     22 CA         20.6773  -23.7851  -45.8028 C.3       2 UNK         0.0481 
     23 CB         20.8920  -23.3589  -47.2637 C.3       2 UNK        -0.1831 
     24 N          19.2409  -23.9328  -45.5373 N.am      2 UNK        -0.4498 
     25 C          18.7113  -24.1133  -44.3180 C.2       1 UNK         0.5027 
     26 O          19.3908  -24.1471  -43.2874 O.2       1 UNK        -0.4969 
     27 C          21.5618  -27.9137  -44.1003 C.2       3 UNK         0.5005 
     28 O          22.4825  -28.5664  -43.6066 O.2       3 UNK        -0.5279 
     29 N          20.5472  -27.4174  -43.3722 N.am      4 UNK        -0.4463 
     30 CA         20.3727  -27.5987  -41.9237 C.3       4 UNK         0.0283 
     31 CB         19.0177  -27.0164  -41.4882 C.3       4 UNK        -0.1875 
     32 C          21.4935  -26.9886  -41.0585 C.2       4 UNK         0.4949 
     33 O          21.5910  -27.3334  -39.8809 O.2       4 UNK        -0.5039 
     34 N          22.3089  -26.0932  -41.6350 N.am      5 UNK        -0.4663 
     35 CA         23.4989  -25.5255  -40.9976 C.3       5 UNK         0.0242 
     36 CB         23.9543  -24.2908  -41.7914 C.3       5 UNK        -0.1982 
     37 C          24.6544  -26.5361  -40.8607 C.2       5 UNK         0.5017 
     38 O          25.5269  -26.3283  -40.0163 O.2       5 UNK        -0.5012 
     39 N          24.6493  -27.5981  -41.6785 N.am      6 UNK        -0.4439 
     40 CA         25.5868  -28.7165  -41.5978 C.3       6 UNK         0.0297 
     41 CB         25.8734  -29.2235  -43.0217 C.3       6 UNK        -0.2006 
     42 C          24.9831  -29.8420  -40.7460 C.2       6 UNK         0.4892 
     43 O          23.7626  -29.9107  -40.5811 O.2       6 UNK        -0.5089 
     44 N          25.8380  -30.7604  -40.2771 N.am      7 UNK        -0.4243 
     45 CA         25.4616  -31.9726  -39.5353 C.3       7 UNK         0.0196 
     46 CB         26.6821  -32.4666  -38.7358 C.3       7 UNK        -0.2007 
     47 C          24.8655  -33.0698  -40.4472 C.2       7 UNK         0.5020 
     48 O          25.2484  -34.2365  -40.3509 O.2       7 UNK        -0.5147 
     49 N          23.9498  -32.6692  -41.3355 N.am      8 UNK        -0.4734 
     50 CA         23.2793  -33.5185  -42.3201 C.3       8 UNK         0.0238 
     51 CB         22.9249  -32.6552  -43.5422 C.3       8 UNK        -0.1912 
     52 C          22.0395  -34.2355  -41.7546 C.2       8 UNK         0.5038 
     53 O          21.5771  -35.1960  -42.3715 O.2       8 UNK        -0.5046 
     54 N          21.5417  -33.7761  -40.6003 N.am      9 UNK        -0.4200 
     55 CA         20.4846  -34.4145  -39.8051 C.3       9 UNK         0.0839 
     56 C          21.0774  -34.8856  -38.4539 C.2       9 UNK         0.5513 
     57 N          20.6260  -36.0207  -37.9395 N.am      9 UNK        -0.7519 
     58 O          21.9137  -34.2141  -37.8516 O.2       9 UNK        -0.4960 
     59 C59        19.2809  -33.4653  -39.5649 C.3       10 UNK        -0.0876 
     60 S60        18.3997  -33.0531  -41.1075 S.3       10 UNK        -0.2414 
     61 C61        18.9728  -31.3498  -41.3741 C.3       10 UNK         0.0169 
     62 H62        14.8896  -25.7686  -40.6456 H         1 UNK         0.0903 
     63 H63        16.5372  -25.1990  -40.3740 H         1 UNK         0.0903 
     64 H64        15.1816  -24.0794  -40.2220 H         1 UNK         0.0903 
     65 H65        17.6864  -24.8386  -42.2850 H         1 UNK         0.3096 
     66 H66        16.7296  -23.3541  -44.4435 H         1 UNK         0.1121 
     67 H67        15.5669  -25.6206  -44.9841 H         1 UNK         0.0849 
     68 H68        16.5367  -24.9089  -46.2243 H         1 UNK         0.0849 
     69 H69        15.7356  -28.4530  -45.1540 H         1 UNK         0.0865 
     70 H70        16.2160  -27.7677  -43.6102 H         1 UNK         0.0865 
     71 H71        17.1609  -29.4548  -42.1718 H         1 UNK         0.1346 
     72 H72        20.1705  -32.1070  -43.6774 H         1 UNK         0.1412 
     73 H73        18.0125  -29.5772  -46.3704 H         1 UNK         0.1426 
     74 H74        19.5890  -31.1917  -47.2523 H         1 UNK         0.0716 
     75 H75        20.3445  -32.3641  -46.2008 H         1 UNK         0.0716 
     76 H76        19.9997  -28.5764  -46.6059 H         1 UNK         0.0695 
     77 H77        21.3855  -28.3376  -47.5988 H         1 UNK         0.0695 
     78 H78        22.6863  -27.4183  -45.8233 H         1 UNK         0.0983 
     79 H79        20.0901  -26.2431  -46.3155 H         1 UNK         0.3095 
     80 H80        21.0489  -22.9810  -45.1639 H         1 UNK         0.0454 
     81 H81        21.9531  -23.2243  -47.4784 H         1 UNK         0.0851 
     82 H82        20.3991  -22.4103  -47.4770 H         1 UNK         0.0851 
     83 H83        20.5099  -24.1014  -47.9653 H         1 UNK         0.0851 
     84 H84        18.6276  -23.9249  -46.3398 H         1 UNK         0.2976 
     85 H85        19.8420  -26.8745  -43.8493 H         1 UNK         0.3116 
     86 H86        20.3645  -28.6740  -41.7376 H         1 UNK         0.0646 
     87 H87        18.7315  -27.4043  -40.5099 H         1 UNK         0.0847 
     88 H88        18.2188  -27.2643  -42.1838 H         1 UNK         0.0847 
     89 H89        19.0608  -25.9316  -41.3988 H         1 UNK         0.0847 
     90 H90        22.1473  -25.8456  -42.6023 H         1 UNK         0.3040 
     91 H91        23.2256  -25.2040  -39.9901 H         1 UNK         0.1015 
     92 H92        23.1546  -23.5548  -41.8778 H         1 UNK         0.0786 
     93 H93        24.2768  -24.5562  -42.7989 H         1 UNK         0.0786 
     94 H94        24.7955  -23.8001  -41.2998 H         1 UNK         0.0786 
     95 H95        23.8425  -27.7474  -42.2778 H         1 UNK         0.3172 
     96 H96        26.5256  -28.3919  -41.1442 H         1 UNK         0.0595 
     97 H97        24.9748  -29.6158  -43.5005 H         1 UNK         0.0839 
     98 H98        26.6124  -30.0256  -43.0140 H         1 UNK         0.0839 
     99 H99        26.2677  -28.4280  -43.6541 H         1 UNK         0.0839 
    100 H100       26.8196  -30.6579  -40.4927 H         1 UNK         0.2998 
    101 H101       24.6831  -31.7077  -38.8162 H         1 UNK         0.0822 
    102 H102       27.0587  -31.6925  -38.0669 H         1 UNK         0.0787 
    103 H103       26.4230  -33.3264  -38.1163 H         1 UNK         0.0787 
    104 H104       27.4982  -32.7707  -39.3924 H         1 UNK         0.0787 
    105 H105       23.6882  -31.6865  -41.3159 H         1 UNK         0.3055 
    106 H106       23.9706  -34.2990  -42.6467 H         1 UNK         0.1106 
    107 H107       22.3635  -31.7638  -43.2600 H         1 UNK         0.0828 
    108 H108       23.8244  -32.3200  -44.0588 H         1 UNK         0.0828 
    109 H109       22.3290  -33.2122  -44.2665 H         1 UNK         0.0828 
    110 H110       22.0328  -33.0241  -40.1392 H         1 UNK         0.2931 
    111 H111       20.1147  -35.2990  -40.3280 H         1 UNK         0.0412 
    112 H112       20.9897  -36.3364  -37.0534 H         1 UNK         0.3472 
    113 H113       19.9324  -36.5728  -38.4208 H         1 UNK         0.3472 
    114 H114       19.5991  -32.5519  -39.0584 H         1 UNK         0.0970 
    115 H115       18.5554  -33.9374  -38.8995 H         1 UNK         0.0970 
    116 H116       18.5169  -30.6956  -40.6294 H         1 UNK         0.0612 
    117 H117       20.0512  -31.2977  -41.2151 H         1 UNK         0.0612 
@<TRIPOS>BOND
     1    1    2 1    
     2    1   62 1    
     3    1   63 1    
     4    1   64 1    
     5    2    3 2    
     6    2    4 am   BACKBONE|DICT|INTERRES
     7    4    5 1    
     8    4   65 1    
     9    5    6 1    
    10    5   25 1    
    11    5   66 1    
    12    6    7 1    
    13    6   67 1    
    14    6   68 1    
    15    7    8 1    
    16    8    9 1    
    17    8   69 1    
    18    8   70 1    
    19    9   10 ar   
    20    9   14 ar   
    21   10   11 ar   
    22   10   71 1    
    23   11   12 ar   
    24   11   61 1    
    25   12   13 ar   
    26   12   72 1    
    27   13   14 ar   
    28   13   15 1    
    29   14   73 1    
    30   15   16 1    
    31   15   74 1    
    32   15   75 1    
    33   16   17 1    
    34   17   18 1    
    35   17   76 1    
    36   17   77 1    
    37   18   19 1    
    38   18   27 1    
    39   18   78 1    
    40   19   20 am   BACKBONE|DICT|INTERRES
    41   19   79 1    
    42   20   21 2    
    43   20   22 1    
    44   22   23 1    
    45   22   24 1    
    46   22   80 1    
    47   23   81 1    
    48   23   82 1    
    49   23   83 1    
    50   24   25 am   BACKBONE|DICT|INTERRES
    51   24   84 1    
    52   25   26 2    
    53   27   28 2    
    54   27   29 am   BACKBONE|DICT|INTERRES
    55   29   30 1    
    56   29   85 1    
    57   30   31 1    
    58   30   32 1    
    59   30   86 1    
    60   31   87 1    
    61   31   88 1    
    62   31   89 1    
    63   32   33 2    
    64   32   34 am   BACKBONE|DICT|INTERRES
    65   34   35 1    
    66   34   90 1    
    67   35   36 1    
    68   35   37 1    
    69   35   91 1    
    70   36   92 1    
    71   36   93 1    
    72   36   94 1    
    73   37   38 2    
    74   37   39 am   BACKBONE|DICT|INTERRES
    75   39   40 1    
    76   39   95 1    
    77   40   41 1    
    78   40   42 1    
    79   40   96 1    
    80   41   97 1    
    81   41   98 1    
    82   41   99 1    
    83   42   43 2    
    84   42   44 am   BACKBONE|DICT|INTERRES
    85   44   45 1    
    86   44  100 1    
    87   45   46 1    
    88   45   47 1    
    89   45  101 1    
    90   46  102 1    
    91   46  103 1    
    92   46  104 1    
    93   47   48 2    
    94   47   49 am   BACKBONE|DICT|INTERRES
    95   49   50 1    
    96   49  105 1    
    97   50   51 1    
    98   50   52 1    
    99   50  106 1    
   100   51  107 1    
   101   51  108 1    
   102   51  109 1    
   103   52   53 2    
   104   52   54 am   BACKBONE|DICT|INTERRES
   105   54   55 1    
   106   54  110 1    
   107   55   56 1    
   108   55   59 1    
   109   55  111 1    
   110   56   57 am   BACKBONE|DICT|INTERRES
   111   56   58 2    
   112   57  112 1    
   113   57  113 1    
   114   59   60 1    
   115   59  114 1    
   116   59  115 1    
   117   60   61 1    
   118   61  116 1    
   119   61  117 1    
@<TRIPOS>SUBSTRUCTURE
     1 UNK         1 GROUP             0       ****    0 ROOT    
