@<TRIPOS>MOLECULE
3R8
117   119    1
SMALL
USER_CHARGES


@<TRIPOS>ATOM
      1 CA         16.9685  -25.7623  -49.3663 C.3       0 UNK        -0.2013 
      2 C          17.6404  -26.1850  -48.0689 C.2       0 UNK         0.4866 
      3 O          18.8648  -26.1058  -47.9566 O.2       0 UNK        -0.5176 
      4 N          16.8531  -26.6273  -47.0803 N.am      1 UNK        -0.4884 
      5 CA         17.3141  -27.0847  -45.7634 C.3       1 UNK         0.0853 
      6 C6         16.3120  -28.0749  -45.1147 C.3       10 UNK        -0.0849 
      7 S7         16.1320  -29.6305  -46.0577 S.3       10 UNK        -0.2776 
      8 C8         17.6849  -30.5212  -45.6928 C.3       10 UNK         0.0316 
      9 C9         17.8596  -30.8096  -44.2078 C.ar      10 UNK        -0.0863 
     10 C10        17.2622  -31.9335  -43.6294 C.ar      10 UNK        -0.1009 
     11 C11        17.3917  -32.1817  -42.2589 C.ar      10 UNK        -0.0712 
     12 C12        18.1149  -31.2877  -41.4623 C.ar      10 UNK        -0.0894 
     13 C13        18.7113  -30.1581  -42.0310 C.ar      10 UNK        -0.0745 
     14 C14        18.6067  -29.9419  -43.4071 C.ar      10 UNK        -0.0972 
     15 C15        19.4343  -29.1409  -41.1641 C.3       10 UNK         0.0209 
     16 S16        18.4492  -27.6268  -40.9873 S.3       10 UNK        -0.2568 
     17 C17        19.6891  -26.5047  -40.2638 C.3       10 UNK        -0.0983 
     18 CA         20.5822  -25.8129  -41.3264 C.3       3 UNK         0.0876 
     19 N          19.7909  -25.1430  -42.3634 N.am      3 UNK        -0.4424 
     20 C          20.2807  -24.6042  -43.4859 C.2       2 UNK         0.4918 
     21 O          21.4741  -24.6181  -43.7933 O.2       2 UNK        -0.4875 
     22 CA         19.2447  -24.0159  -44.4588 C.3       2 UNK         0.0481 
     23 CB         19.8615  -22.9831  -45.4193 C.3       2 UNK        -0.1831 
     24 N          18.6495  -25.0967  -45.2422 N.am      2 UNK        -0.4498 
     25 C          17.6528  -25.8938  -44.8388 C.2       1 UNK         0.5027 
     26 O          17.0234  -25.7128  -43.7948 O.2       1 UNK        -0.4969 
     27 C          21.5540  -24.8348  -40.6373 C.2       3 UNK         0.5005 
     28 O          21.1712  -23.6969  -40.3486 O.2       3 UNK        -0.5279 
     29 N          22.7726  -25.3042  -40.3535 N.am      4 UNK        -0.4463 
     30 CA         23.8061  -24.5684  -39.6289 C.3       4 UNK         0.0283 
     31 CB         24.5503  -23.6116  -40.5879 C.3       4 UNK        -0.1875 
     32 C          24.6999  -25.6001  -38.9271 C.2       4 UNK         0.4949 
     33 O          24.1726  -26.5119  -38.2875 O.2       4 UNK        -0.5039 
     34 N          26.0259  -25.4777  -39.0803 N.am      5 UNK        -0.4663 
     35 CA         26.9980  -26.4986  -38.6705 C.3       5 UNK         0.0242 
     36 CB         28.4131  -25.8995  -38.7134 C.3       5 UNK        -0.1982 
     37 C          26.9198  -27.7688  -39.5407 C.2       5 UNK         0.5017 
     38 O          27.2711  -28.8496  -39.0667 O.2       5 UNK        -0.5012 
     39 N          26.4478  -27.6095  -40.7838 N.am      6 UNK        -0.4439 
     40 CA         26.1121  -28.6841  -41.7115 C.3       6 UNK         0.0297 
     41 CB         26.5794  -28.2871  -43.1215 C.3       6 UNK        -0.2006 
     42 C          24.5942  -28.9190  -41.7014 C.2       6 UNK         0.4892 
     43 O          23.8215  -27.9860  -41.4528 O.2       6 UNK        -0.5089 
     44 N          24.2056  -30.1580  -42.0132 N.am      7 UNK        -0.4243 
     45 CA         22.8288  -30.6172  -42.1411 C.3       7 UNK         0.0196 
     46 CB         22.2600  -30.9572  -40.7507 C.3       7 UNK        -0.2007 
     47 C          22.8260  -31.8591  -43.0334 C.2       7 UNK         0.5020 
     48 O          23.7494  -32.6702  -42.9322 O.2       7 UNK        -0.5147 
     49 N          21.7777  -32.0235  -43.8514 N.am      8 UNK        -0.4734 
     50 CA         21.5867  -33.2155  -44.6902 C.3       8 UNK         0.0238 
     51 CB         20.4892  -32.9527  -45.7323 C.3       8 UNK        -0.1912 
     52 C          21.2524  -34.4678  -43.8612 C.2       8 UNK         0.5038 
     53 O          21.6506  -35.5701  -44.2386 O.2       8 UNK        -0.5046 
     54 N          20.5580  -34.2597  -42.7358 N.am      9 UNK        -0.4200 
     55 CA         20.2718  -35.2748  -41.7131 C.3       9 UNK         0.0839 
     56 C          21.4551  -35.5357  -40.7327 C.2       9 UNK         0.5513 
     57 N          22.6018  -34.8770  -40.8625 N.am      9 UNK        -0.7519 
     58 O          21.3339  -36.3661  -39.8358 O.2       9 UNK        -0.4960 
     59 C59        18.9577  -34.9560  -40.9518 C.3       10 UNK        -0.0876 
     60 S60        17.5029  -34.9567  -42.0555 S.3       10 UNK        -0.2414 
     61 C61        16.6934  -33.3817  -41.6349 C.3       10 UNK         0.0169 
     62 H62        17.3482  -26.3580  -50.1959 H         1 UNK         0.0903 
     63 H63        15.8868  -25.8885  -49.3255 H         1 UNK         0.0903 
     64 H64        17.1806  -24.7139  -49.5740 H         1 UNK         0.0903 
     65 H65        15.8532  -26.6599  -47.2227 H         1 UNK         0.3096 
     66 H66        18.2552  -27.6201  -45.9009 H         1 UNK         0.1121 
     67 H67        15.3266  -27.6120  -45.0371 H         1 UNK         0.0849 
     68 H68        16.5941  -28.3154  -44.0892 H         1 UNK         0.0849 
     69 H69        17.6801  -31.4603  -46.2480 H         1 UNK         0.0865 
     70 H70        18.5352  -29.9565  -46.0766 H         1 UNK         0.0865 
     71 H71        16.6812  -32.6089  -44.2428 H         1 UNK         0.1346 
     72 H72        18.1888  -31.4549  -40.3964 H         1 UNK         0.1412 
     73 H73        19.0623  -29.0630  -43.8424 H         1 UNK         0.1426 
     74 H74        20.3913  -28.8907  -41.6194 H         1 UNK         0.0716 
     75 H75        19.6476  -29.5476  -40.1745 H         1 UNK         0.0716 
     76 H76        20.2994  -27.0652  -39.5525 H         1 UNK         0.0695 
     77 H77        19.1490  -25.7590  -39.6768 H         1 UNK         0.0695 
     78 H78        21.1774  -26.5791  -41.8285 H         1 UNK         0.0983 
     79 H79        18.7902  -25.1336  -42.2191 H         1 UNK         0.3095 
     80 H80        18.4701  -23.5115  -43.8770 H         1 UNK         0.0454 
     81 H81        19.1016  -22.5370  -46.0609 H         1 UNK         0.0851 
     82 H82        20.6220  -23.4276  -46.0627 H         1 UNK         0.0851 
     83 H83        20.3357  -22.1717  -44.8658 H         1 UNK         0.0851 
     84 H84        19.0850  -25.3126  -46.1343 H         1 UNK         0.2976 
     85 H85        23.0121  -26.2647  -40.5910 H         1 UNK         0.3116 
     86 H86        23.3385  -23.9770  -38.8389 H         1 UNK         0.0646 
     87 H87        25.0495  -24.1493  -41.3949 H         1 UNK         0.0847 
     88 H88        23.8604  -22.9037  -41.0479 H         1 UNK         0.0847 
     89 H89        25.2980  -23.0180  -40.0606 H         1 UNK         0.0847 
     90 H90        26.3844  -24.6846  -39.5932 H         1 UNK         0.3040 
     91 H91        26.7780  -26.7920  -37.6413 H         1 UNK         0.1015 
     92 H92        29.1551  -26.6304  -38.3886 H         1 UNK         0.0786 
     93 H93        28.4995  -25.0373  -38.0518 H         1 UNK         0.0786 
     94 H94        28.6886  -25.5813  -39.7198 H         1 UNK         0.0786 
     95 H95        26.1286  -26.6890  -41.0461 H         1 UNK         0.3172 
     96 H96        26.6191  -29.6067  -41.4203 H         1 UNK         0.0595 
     97 H97        26.0810  -27.3832  -43.4747 H         1 UNK         0.0839 
     98 H98        26.3674  -29.0781  -43.8422 H         1 UNK         0.0839 
     99 H99        27.6546  -28.1081  -43.1466 H         1 UNK         0.0839 
    100 H100       24.8969  -30.8631  -42.2394 H         1 UNK         0.2998 
    101 H101       22.2335  -29.8373  -42.6189 H         1 UNK         0.0822 
    102 H102       21.2579  -31.3802  -40.8247 H         1 UNK         0.0787 
    103 H103       22.1994  -30.0714  -40.1181 H         1 UNK         0.0787 
    104 H104       22.8799  -31.6910  -40.2337 H         1 UNK         0.0787 
    105 H105       21.0509  -31.3224  -43.8787 H         1 UNK         0.3055 
    106 H106       22.5218  -33.4110  -45.2208 H         1 UNK         0.1106 
    107 H107       20.6886  -32.0497  -46.3094 H         1 UNK         0.0828 
    108 H108       20.4226  -33.7808  -46.4393 H         1 UNK         0.0828 
    109 H109       19.5105  -32.8517  -45.2655 H         1 UNK         0.0828 
    110 H110       20.2609  -33.3198  -42.5235 H         1 UNK         0.2931 
    111 H111       20.1172  -36.2253  -42.2275 H         1 UNK         0.0412 
    112 H112       22.7492  -34.2204  -41.6158 H         1 UNK         0.3472 
    113 H113       23.3506  -35.0716  -40.2166 H         1 UNK         0.3472 
    114 H114       19.0406  -33.9988  -40.4349 H         1 UNK         0.0970 
    115 H115       18.7703  -35.7013  -40.1764 H         1 UNK         0.0970 
    116 H116       15.6635  -33.4160  -41.9931 H         1 UNK         0.0612 
    117 H117       16.6322  -33.2816  -40.5500 H         1 UNK         0.0612 
@<TRIPOS>BOND
     1    1    2 1    
     2    1   62 1    
     3    1   63 1    
     4    1   64 1    
     5    2    3 2    
     6    2    4 am   BACKBONE|DICT|INTERRES
     7    4    5 1    
     8    4   65 1    
     9    5    6 1    
    10    5   25 1    
    11    5   66 1    
    12    6    7 1    
    13    6   67 1    
    14    6   68 1    
    15    7    8 1    
    16    8    9 1    
    17    8   69 1    
    18    8   70 1    
    19    9   10 ar   
    20    9   14 ar   
    21   10   11 ar   
    22   10   71 1    
    23   11   12 ar   
    24   11   61 1    
    25   12   13 ar   
    26   12   72 1    
    27   13   14 ar   
    28   13   15 1    
    29   14   73 1    
    30   15   16 1    
    31   15   74 1    
    32   15   75 1    
    33   16   17 1    
    34   17   18 1    
    35   17   76 1    
    36   17   77 1    
    37   18   19 1    
    38   18   27 1    
    39   18   78 1    
    40   19   20 am   BACKBONE|DICT|INTERRES
    41   19   79 1    
    42   20   21 2    
    43   20   22 1    
    44   22   23 1    
    45   22   24 1    
    46   22   80 1    
    47   23   81 1    
    48   23   82 1    
    49   23   83 1    
    50   24   25 am   BACKBONE|DICT|INTERRES
    51   24   84 1    
    52   25   26 2    
    53   27   28 2    
    54   27   29 am   BACKBONE|DICT|INTERRES
    55   29   30 1    
    56   29   85 1    
    57   30   31 1    
    58   30   32 1    
    59   30   86 1    
    60   31   87 1    
    61   31   88 1    
    62   31   89 1    
    63   32   33 2    
    64   32   34 am   BACKBONE|DICT|INTERRES
    65   34   35 1    
    66   34   90 1    
    67   35   36 1    
    68   35   37 1    
    69   35   91 1    
    70   36   92 1    
    71   36   93 1    
    72   36   94 1    
    73   37   38 2    
    74   37   39 am   BACKBONE|DICT|INTERRES
    75   39   40 1    
    76   39   95 1    
    77   40   41 1    
    78   40   42 1    
    79   40   96 1    
    80   41   97 1    
    81   41   98 1    
    82   41   99 1    
    83   42   43 2    
    84   42   44 am   BACKBONE|DICT|INTERRES
    85   44   45 1    
    86   44  100 1    
    87   45   46 1    
    88   45   47 1    
    89   45  101 1    
    90   46  102 1    
    91   46  103 1    
    92   46  104 1    
    93   47   48 2    
    94   47   49 am   BACKBONE|DICT|INTERRES
    95   49   50 1    
    96   49  105 1    
    97   50   51 1    
    98   50   52 1    
    99   50  106 1    
   100   51  107 1    
   101   51  108 1    
   102   51  109 1    
   103   52   53 2    
   104   52   54 am   BACKBONE|DICT|INTERRES
   105   54   55 1    
   106   54  110 1    
   107   55   56 1    
   108   55   59 1    
   109   55  111 1    
   110   56   57 am   BACKBONE|DICT|INTERRES
   111   56   58 2    
   112   57  112 1    
   113   57  113 1    
   114   59   60 1    
   115   59  114 1    
   116   59  115 1    
   117   60   61 1    
   118   61  116 1    
   119   61  117 1    
@<TRIPOS>SUBSTRUCTURE
     1 UNK         1 GROUP             0       ****    0 ROOT    
