@<TRIPOS>MOLECULE
3R8
117   119    1
SMALL
USER_CHARGES


@<TRIPOS>ATOM
      1 CA         17.2858  -33.6296  -45.7586 C.3       0 UNK        -0.2013 
      2 C          17.1924  -32.1115  -45.7510 C.2       0 UNK         0.4866 
      3 O          16.1849  -31.5621  -45.3065 O.2       0 UNK        -0.5176 
      4 N          18.2395  -31.4289  -46.2246 N.am      1 UNK        -0.4884 
      5 CA         18.3746  -29.9738  -46.2099 C.3       1 UNK         0.0853 
      6 C6         17.5070  -29.2563  -47.2786 C.3       10 UNK        -0.0849 
      7 S7         17.1400  -27.5138  -46.8594 S.3       10 UNK        -0.2776 
      8 C8         15.8271  -27.6663  -45.6004 C.3       10 UNK         0.0316 
      9 C9         16.3536  -27.4728  -44.1811 C.ar      10 UNK        -0.0863 
     10 C10        16.3357  -28.5289  -43.2628 C.ar      10 UNK        -0.1009 
     11 C11        16.7692  -28.3328  -41.9467 C.ar      10 UNK        -0.0712 
     12 C12        17.1891  -27.0641  -41.5424 C.ar      10 UNK        -0.0894 
     13 C13        17.2652  -26.0129  -42.4616 C.ar      10 UNK        -0.0745 
     14 C14        16.8310  -26.2207  -43.7753 C.ar      10 UNK        -0.0972 
     15 C15        17.8435  -24.6652  -42.0419 C.3       10 UNK         0.0209 
     16 S16        19.4918  -24.8151  -41.2619 S.3       10 UNK        -0.2568 
     17 C17        20.5241  -25.4584  -42.6263 C.3       10 UNK        -0.0983 
     18 CA         20.5534  -27.0122  -42.7120 C.3       3 UNK         0.0876 
     19 N          20.7488  -27.4934  -44.0739 N.am      3 UNK        -0.4424 
     20 C          21.7375  -27.2317  -44.9362 C.2       2 UNK         0.4918 
     21 O          22.7624  -26.6118  -44.6536 O.2       2 UNK        -0.4875 
     22 CA         21.4756  -27.6544  -46.4009 C.3       2 UNK         0.0481 
     23 CB         22.6684  -28.3865  -47.0486 C.3       2 UNK        -0.1831 
     24 N          20.1976  -28.3671  -46.5884 N.am      2 UNK        -0.4498 
     25 C          19.8737  -29.6125  -46.2091 C.2       1 UNK         0.5027 
     26 O          20.6872  -30.4372  -45.7924 O.2       1 UNK        -0.4969 
     27 C          21.4429  -27.6796  -41.6455 C.2       3 UNK         0.5005 
     28 O          22.4983  -28.2529  -41.9322 O.2       3 UNK        -0.5279 
     29 N          20.9694  -27.5728  -40.3969 N.am      4 UNK        -0.4463 
     30 CA         21.6201  -28.0478  -39.1767 C.3       4 UNK         0.0283 
     31 CB         20.6153  -27.9938  -38.0160 C.3       4 UNK        -0.1875 
     32 C          22.8932  -27.2593  -38.8291 C.2       4 UNK         0.4949 
     33 O          23.7418  -27.7858  -38.1126 O.2       4 UNK        -0.5039 
     34 N          23.0434  -26.0494  -39.3891 N.am      5 UNK        -0.4663 
     35 CA         24.2684  -25.2443  -39.3395 C.3       5 UNK         0.0242 
     36 CB         23.9940  -23.8721  -39.9757 C.3       5 UNK        -0.1982 
     37 C          25.4701  -25.9269  -40.0227 C.2       5 UNK         0.5017 
     38 O          26.6042  -25.7230  -39.5890 O.2       5 UNK        -0.5012 
     39 N          25.1943  -26.7457  -41.0483 N.am      6 UNK        -0.4439 
     40 CA         26.1632  -27.6160  -41.7187 C.3       6 UNK         0.0297 
     41 CB         25.8768  -27.5835  -43.2305 C.3       6 UNK        -0.2006 
     42 C          26.1017  -29.0650  -41.1943 C.2       6 UNK         0.4892 
     43 O          26.8584  -29.9046  -41.6835 O.2       6 UNK        -0.5089 
     44 N          25.1859  -29.3419  -40.2493 N.am      7 UNK        -0.4243 
     45 CA         24.7919  -30.6569  -39.7228 C.3       7 UNK         0.0196 
     46 CB         25.9363  -31.2765  -38.8936 C.3       7 UNK        -0.2007 
     47 C          24.2612  -31.6093  -40.8153 C.2       7 UNK         0.5020 
     48 O          24.4085  -32.8263  -40.6927 O.2       7 UNK        -0.5147 
     49 N          23.6838  -31.0431  -41.8831 N.am      8 UNK        -0.4734 
     50 CA         23.4023  -31.7618  -43.1246 C.3       8 UNK         0.0238 
     51 CB         23.5985  -30.7974  -44.3014 C.3       8 UNK        -0.1912 
     52 C          22.0048  -32.3922  -43.1687 C.2       8 UNK         0.5038 
     53 O          21.8519  -33.4447  -43.7910 O.2       8 UNK        -0.5046 
     54 N          21.0165  -31.7536  -42.5268 N.am      9 UNK        -0.4200 
     55 CA         19.6148  -32.2040  -42.5405 C.3       9 UNK         0.0839 
     56 C          19.2765  -33.3565  -41.5509 C.2       9 UNK         0.5513 
     57 N          20.1943  -33.7874  -40.6934 N.am      9 UNK        -0.7519 
     58 O          18.1665  -33.8816  -41.5778 O.2       9 UNK        -0.4960 
     59 C59        18.6228  -31.0159  -42.4687 C.3       10 UNK        -0.0876 
     60 S60        18.5059  -30.1829  -40.8507 S.3       10 UNK        -0.2414 
     61 C61        16.8222  -29.4894  -40.9593 C.3       10 UNK         0.0169 
     62 H62        17.2445  -34.0111  -44.7381 H         1 UNK         0.0903 
     63 H63        16.4508  -34.0541  -46.3161 H         1 UNK         0.0903 
     64 H64        18.2121  -33.9796  -46.2152 H         1 UNK         0.0903 
     65 H65        19.0794  -31.9154  -46.5147 H         1 UNK         0.3096 
     66 H66        18.0141  -29.6497  -45.2341 H         1 UNK         0.1121 
     67 H67        16.5532  -29.7705  -47.4047 H         1 UNK         0.0849 
     68 H68        17.9864  -29.2983  -48.2585 H         1 UNK         0.0849 
     69 H69        15.0697  -26.9059  -45.7965 H         1 UNK         0.0865 
     70 H70        15.3184  -28.6267  -45.7006 H         1 UNK         0.0865 
     71 H71        15.9864  -29.5051  -43.5715 H         1 UNK         0.1346 
     72 H72        17.5193  -26.9114  -40.5239 H         1 UNK         0.1412 
     73 H73        16.8663  -25.4087  -44.4893 H         1 UNK         0.1426 
     74 H74        17.1604  -24.1967  -41.3323 H         1 UNK         0.0716 
     75 H75        17.9157  -23.9876  -42.8943 H         1 UNK         0.0716 
     76 H76        21.5348  -25.0575  -42.5277 H         1 UNK         0.0695 
     77 H77        20.1327  -25.0363  -43.5536 H         1 UNK         0.0695 
     78 H78        19.5578  -27.3856  -42.4964 H         1 UNK         0.0983 
     79 H79        19.9734  -28.0183  -44.4440 H         1 UNK         0.3095 
     80 H80        21.3557  -26.7164  -46.9449 H         1 UNK         0.0454 
     81 H81        22.8769  -29.3429  -46.5752 H         1 UNK         0.0851 
     82 H82        23.5779  -27.7888  -46.9769 H         1 UNK         0.0851 
     83 H83        22.4879  -28.5726  -48.1071 H         1 UNK         0.0851 
     84 H84        19.4341  -27.7863  -46.9182 H         1 UNK         0.2976 
     85 H85        20.1069  -27.0614  -40.2663 H         1 UNK         0.3116 
     86 H86        21.9067  -29.0893  -39.3346 H         1 UNK         0.0646 
     87 H87        20.2776  -26.9755  -37.8187 H         1 UNK         0.0847 
     88 H88        21.0621  -28.3728  -37.0957 H         1 UNK         0.0847 
     89 H89        19.7371  -28.6060  -38.2225 H         1 UNK         0.0847 
     90 H90        22.2812  -25.6836  -39.9413 H         1 UNK         0.3040 
     91 H91        24.5299  -25.0951  -38.2893 H         1 UNK         0.1015 
     92 H92        24.8810  -23.2383  -39.9329 H         1 UNK         0.0786 
     93 H93        23.1958  -23.3443  -39.4532 H         1 UNK         0.0786 
     94 H94        23.7075  -23.9617  -41.0246 H         1 UNK         0.0786 
     95 H95        24.2294  -26.8583  -41.3365 H         1 UNK         0.3172 
     96 H96        27.1784  -27.2493  -41.5543 H         1 UNK         0.0595 
     97 H97        24.8852  -27.9764  -43.4608 H         1 UNK         0.0839 
     98 H98        26.6014  -28.1836  -43.7827 H         1 UNK         0.0839 
     99 H99        25.9311  -26.5682  -43.6243 H         1 UNK         0.0839 
    100 H100       24.6676  -28.5627  -39.8642 H         1 UNK         0.2998 
    101 H101       23.9556  -30.4796  -39.0458 H         1 UNK         0.0822 
    102 H102       26.2847  -30.5876  -38.1239 H         1 UNK         0.0787 
    103 H103       25.6072  -32.1850  -38.3877 H         1 UNK         0.0787 
    104 H104       26.7899  -31.5432  -39.5174 H         1 UNK         0.0787 
    105 H105       23.5394  -30.0376  -41.8931 H         1 UNK         0.3055 
    106 H106       24.1249  -32.5736  -43.2421 H         1 UNK         0.1106 
    107 H107       23.3838  -31.2930  -45.2500 H         1 UNK         0.0828 
    108 H108       22.9364  -29.9340  -44.2220 H         1 UNK         0.0828 
    109 H109       24.6250  -30.4315  -44.3495 H         1 UNK         0.0828 
    110 H110       21.2244  -30.9133  -42.0082 H         1 UNK         0.2931 
    111 H111       19.4466  -32.6438  -43.5258 H         1 UNK         0.0412 
    112 H112       21.1128  -33.3736  -40.6780 H         1 UNK         0.3472 
    113 H113       19.9670  -34.5394  -40.0620 H         1 UNK         0.3472 
    114 H114       17.6289  -31.3624  -42.7569 H         1 UNK         0.0970 
    115 H115       18.9007  -30.2657  -43.2070 H         1 UNK         0.0970 
    116 H116       16.1137  -30.2715  -41.2366 H         1 UNK         0.0612 
    117 H117       16.5210  -29.1416  -39.9701 H         1 UNK         0.0612 
@<TRIPOS>BOND
     1    1    2 1    
     2    1   62 1    
     3    1   63 1    
     4    1   64 1    
     5    2    3 2    
     6    2    4 am   BACKBONE|DICT|INTERRES
     7    4    5 1    
     8    4   65 1    
     9    5    6 1    
    10    5   25 1    
    11    5   66 1    
    12    6    7 1    
    13    6   67 1    
    14    6   68 1    
    15    7    8 1    
    16    8    9 1    
    17    8   69 1    
    18    8   70 1    
    19    9   10 ar   
    20    9   14 ar   
    21   10   11 ar   
    22   10   71 1    
    23   11   12 ar   
    24   11   61 1    
    25   12   13 ar   
    26   12   72 1    
    27   13   14 ar   
    28   13   15 1    
    29   14   73 1    
    30   15   16 1    
    31   15   74 1    
    32   15   75 1    
    33   16   17 1    
    34   17   18 1    
    35   17   76 1    
    36   17   77 1    
    37   18   19 1    
    38   18   27 1    
    39   18   78 1    
    40   19   20 am   BACKBONE|DICT|INTERRES
    41   19   79 1    
    42   20   21 2    
    43   20   22 1    
    44   22   23 1    
    45   22   24 1    
    46   22   80 1    
    47   23   81 1    
    48   23   82 1    
    49   23   83 1    
    50   24   25 am   BACKBONE|DICT|INTERRES
    51   24   84 1    
    52   25   26 2    
    53   27   28 2    
    54   27   29 am   BACKBONE|DICT|INTERRES
    55   29   30 1    
    56   29   85 1    
    57   30   31 1    
    58   30   32 1    
    59   30   86 1    
    60   31   87 1    
    61   31   88 1    
    62   31   89 1    
    63   32   33 2    
    64   32   34 am   BACKBONE|DICT|INTERRES
    65   34   35 1    
    66   34   90 1    
    67   35   36 1    
    68   35   37 1    
    69   35   91 1    
    70   36   92 1    
    71   36   93 1    
    72   36   94 1    
    73   37   38 2    
    74   37   39 am   BACKBONE|DICT|INTERRES
    75   39   40 1    
    76   39   95 1    
    77   40   41 1    
    78   40   42 1    
    79   40   96 1    
    80   41   97 1    
    81   41   98 1    
    82   41   99 1    
    83   42   43 2    
    84   42   44 am   BACKBONE|DICT|INTERRES
    85   44   45 1    
    86   44  100 1    
    87   45   46 1    
    88   45   47 1    
    89   45  101 1    
    90   46  102 1    
    91   46  103 1    
    92   46  104 1    
    93   47   48 2    
    94   47   49 am   BACKBONE|DICT|INTERRES
    95   49   50 1    
    96   49  105 1    
    97   50   51 1    
    98   50   52 1    
    99   50  106 1    
   100   51  107 1    
   101   51  108 1    
   102   51  109 1    
   103   52   53 2    
   104   52   54 am   BACKBONE|DICT|INTERRES
   105   54   55 1    
   106   54  110 1    
   107   55   56 1    
   108   55   59 1    
   109   55  111 1    
   110   56   57 am   BACKBONE|DICT|INTERRES
   111   56   58 2    
   112   57  112 1    
   113   57  113 1    
   114   59   60 1    
   115   59  114 1    
   116   59  115 1    
   117   60   61 1    
   118   61  116 1    
   119   61  117 1    
@<TRIPOS>SUBSTRUCTURE
     1 UNK         1 GROUP             0       ****    0 ROOT    
