@<TRIPOS>MOLECULE
3R8
117   119    1
SMALL
USER_CHARGES


@<TRIPOS>ATOM
      1 CA         16.8417  -28.2111  -41.6782 C.3       0 UNK        -0.2013 
      2 C          16.1737  -27.1467  -42.5324 C.2       0 UNK         0.4866 
      3 O          15.4536  -26.2984  -42.0043 O.2       0 UNK        -0.5176 
      4 N          16.3976  -27.1797  -43.8522 N.am      1 UNK        -0.4884 
      5 CA         15.7343  -26.3329  -44.8563 C.3       1 UNK         0.0853 
      6 C6         15.6865  -27.0137  -46.2542 C.3       10 UNK        -0.0849 
      7 S7         15.1157  -28.7516  -46.1976 S.3       10 UNK        -0.2776 
      8 C8         16.4972  -29.6550  -46.9811 C.3       10 UNK         0.0316 
      9 C9         17.8372  -29.4108  -46.2955 C.ar      10 UNK        -0.0863 
     10 C10        18.0982  -29.9523  -45.0331 C.ar      10 UNK        -0.1009 
     11 C11        19.3211  -29.7131  -44.3977 C.ar      10 UNK        -0.0712 
     12 C12        20.2884  -28.9380  -45.0450 C.ar      10 UNK        -0.0894 
     13 C13        20.0485  -28.3986  -46.3118 C.ar      10 UNK        -0.0745 
     14 C14        18.8200  -28.6447  -46.9314 C.ar      10 UNK        -0.0972 
     15 C15        21.1047  -27.5607  -47.0321 C.3       10 UNK         0.0209 
     16 S16        21.9551  -26.3365  -45.9741 S.3       10 UNK        -0.2568 
     17 C17        20.5603  -25.3149  -45.3782 C.3       10 UNK        -0.0983 
     18 CA         20.5750  -24.9251  -43.8684 C.3       3 UNK         0.0876 
     19 N          19.2785  -24.3945  -43.4721 N.am      3 UNK        -0.4424 
     20 C          18.7503  -23.2192  -43.8242 C.2       2 UNK         0.4918 
     21 O          19.3729  -22.3357  -44.4156 O.2       2 UNK        -0.4875 
     22 CA         17.2544  -23.0393  -43.4873 C.3       2 UNK         0.0481 
     23 CB         16.6160  -21.8244  -44.1927 C.3       2 UNK        -0.1831 
     24 N          16.4890  -24.2685  -43.7485 N.am      2 UNK        -0.4498 
     25 C          16.3696  -24.9228  -44.9159 C.2       1 UNK         0.5027 
     26 O          16.7797  -24.4784  -45.9899 O.2       1 UNK        -0.4969 
     27 C          20.8586  -26.0975  -42.9074 C.2       3 UNK         0.5005 
     28 O          19.9153  -26.6916  -42.3765 O.2       3 UNK        -0.5279 
     29 N          22.1426  -26.4075  -42.7020 N.am      4 UNK        -0.4463 
     30 CA         22.6315  -27.5533  -41.9435 C.3       4 UNK         0.0283 
     31 CB         22.9858  -27.1249  -40.5098 C.3       4 UNK        -0.1875 
     32 C          23.8441  -28.0918  -42.7073 C.2       4 UNK         0.4949 
     33 O          24.9074  -27.4712  -42.6740 O.2       4 UNK        -0.5039 
     34 N          23.6424  -29.1896  -43.4436 N.am      5 UNK        -0.4663 
     35 CA         24.6171  -29.7351  -44.3918 C.3       5 UNK         0.0242 
     36 CB         23.8587  -30.4680  -45.5110 C.3       5 UNK        -0.1982 
     37 C          25.6465  -30.6750  -43.7451 C.2       5 UNK         0.5017 
     38 O          26.7099  -30.8854  -44.3297 O.2       5 UNK        -0.5012 
     39 N          25.3168  -31.2379  -42.5765 N.am      6 UNK        -0.4439 
     40 CA         26.1270  -32.2301  -41.8736 C.3       6 UNK         0.0297 
     41 CB         25.8539  -33.6344  -42.4516 C.3       6 UNK        -0.2006 
     42 C          25.8549  -32.1392  -40.3685 C.2       6 UNK         0.4892 
     43 O          25.2925  -33.0722  -39.7923 O.2       6 UNK        -0.5089 
     44 N          26.2336  -30.9996  -39.7698 N.am      7 UNK        -0.4243 
     45 CA         26.1103  -30.6565  -38.3456 C.3       7 UNK         0.0196 
     46 CB         27.0696  -31.5147  -37.4897 C.3       7 UNK        -0.2007 
     47 C          24.6491  -30.7055  -37.8635 C.2       7 UNK         0.5020 
     48 O          23.9223  -29.7308  -38.0506 O.2       7 UNK        -0.5147 
     49 N          24.2355  -31.8418  -37.2861 N.am      8 UNK        -0.4734 
     50 CA         22.8484  -32.1359  -36.9128 C.3       8 UNK         0.0238 
     51 CB         22.8170  -33.4031  -36.0432 C.3       8 UNK        -0.1912 
     52 C          21.9090  -32.2901  -38.1252 C.2       8 UNK         0.5038 
     53 O          20.7064  -32.0696  -37.9752 O.2       8 UNK        -0.5046 
     54 N          22.4707  -32.6354  -39.2940 N.am      9 UNK        -0.4200 
     55 CA         21.7768  -32.7884  -40.5802 C.3       9 UNK         0.0839 
     56 C          20.8012  -34.0051  -40.6166 C.2       9 UNK         0.5513 
     57 N          19.9327  -34.0868  -41.6148 N.am      9 UNK        -0.7519 
     58 O          20.8520  -34.9032  -39.7780 O.2       9 UNK        -0.4960 
     59 C59        21.1495  -31.4404  -41.0464 C.3       10 UNK        -0.0876 
     60 S60        21.0802  -31.2465  -42.8590 S.3       10 UNK        -0.2414 
     61 C61        19.5711  -30.2386  -42.9904 C.3       10 UNK         0.0169 
     62 H62        17.7844  -27.8415  -41.2769 H         1 UNK         0.0903 
     63 H63        16.1989  -28.4834  -40.8415 H         1 UNK         0.0903 
     64 H64        17.0348  -29.1138  -42.2546 H         1 UNK         0.0903 
     65 H65        17.0210  -27.8791  -44.2337 H         1 UNK         0.3096 
     66 H66        14.6989  -26.1877  -44.5392 H         1 UNK         0.1121 
     67 H67        15.0118  -26.4623  -46.9116 H         1 UNK         0.0849 
     68 H68        16.6624  -26.9691  -46.7375 H         1 UNK         0.0849 
     69 H69        16.2751  -30.7229  -46.9625 H         1 UNK         0.0865 
     70 H70        16.5470  -29.3770  -48.0352 H         1 UNK         0.0865 
     71 H71        17.3382  -30.5442  -44.5407 H         1 UNK         0.1346 
     72 H72        21.2278  -28.7389  -44.5546 H         1 UNK         0.1412 
     73 H73        18.6248  -28.2320  -47.9120 H         1 UNK         0.1426 
     74 H74        20.6591  -27.0269  -47.8730 H         1 UNK         0.0716 
     75 H75        21.8509  -28.2325  -47.4572 H         1 UNK         0.0716 
     76 H76        19.6274  -25.8333  -45.6058 H         1 UNK         0.0695 
     77 H77        20.5380  -24.4091  -45.9857 H         1 UNK         0.0695 
     78 H78        21.3327  -24.1571  -43.6991 H         1 UNK         0.0983 
     79 H79        18.7286  -25.0592  -42.9411 H         1 UNK         0.3095 
     80 H80        17.1990  -22.8650  -42.4119 H         1 UNK         0.0454 
     81 H81        15.5626  -21.7230  -43.9330 H         1 UNK         0.0851 
     82 H82        16.6887  -21.8987  -45.2781 H         1 UNK         0.0851 
     83 H83        17.1121  -20.8988  -43.8986 H         1 UNK         0.0851 
     84 H84        16.1165  -24.7460  -42.9308 H         1 UNK         0.2976 
     85 H85        22.8552  -25.8993  -43.2105 H         1 UNK         0.3116 
     86 H86        21.8672  -28.3313  -41.8964 H         1 UNK         0.0646 
     87 H87        23.7209  -26.3193  -40.4946 H         1 UNK         0.0847 
     88 H88        23.4049  -27.9601  -39.9489 H         1 UNK         0.0847 
     89 H89        22.1025  -26.7821  -39.9711 H         1 UNK         0.0847 
     90 H90        22.7453  -29.6563  -43.4036 H         1 UNK         0.3040 
     91 H91        25.1718  -28.9101  -44.8455 H         1 UNK         0.1015 
     92 H92        23.2812  -31.3098  -45.1266 H         1 UNK         0.0786 
     93 H93        24.5490  -30.8613  -46.2586 H         1 UNK         0.0786 
     94 H94        23.1720  -29.7987  -46.0287 H         1 UNK         0.0786 
     95 H95        24.4354  -30.9876  -42.1512 H         1 UNK         0.3172 
     96 H96        27.1863  -32.0034  -42.0137 H         1 UNK         0.0595 
     97 H97        24.8009  -33.9067  -42.3705 H         1 UNK         0.0839 
     98 H98        26.4302  -34.3941  -41.9219 H         1 UNK         0.0839 
     99 H99        26.1340  -33.6935  -43.5033 H         1 UNK         0.0839 
    100 H100       26.6427  -30.2813  -40.3520 H         1 UNK         0.2998 
    101 H101       26.4283  -29.6172  -38.2474 H         1 UNK         0.0822 
    102 H102       28.1076  -31.3277  -37.7651 H         1 UNK         0.0787 
    103 H103       26.9720  -31.2735  -36.4302 H         1 UNK         0.0787 
    104 H104       26.8910  -32.5844  -37.6026 H         1 UNK         0.0787 
    105 H105       24.8974  -32.6023  -37.2182 H         1 UNK         0.3055 
    106 H106       22.4739  -31.2993  -36.3186 H         1 UNK         0.1106 
    107 H107       21.7989  -33.6319  -35.7247 H         1 UNK         0.0828 
    108 H108       23.1916  -34.2733  -36.5839 H         1 UNK         0.0828 
    109 H109       23.4171  -33.2819  -35.1412 H         1 UNK         0.0828 
    110 H110       23.4671  -32.8354  -39.3096 H         1 UNK         0.2931 
    111 H111       22.5763  -33.0456  -41.2759 H         1 UNK         0.0412 
    112 H112       19.3067  -34.8753  -41.6657 H         1 UNK         0.3472 
    113 H113       19.9097  -33.3710  -42.3261 H         1 UNK         0.3472 
    114 H114       21.7390  -30.6026  -40.6698 H         1 UNK         0.0970 
    115 H115       20.1563  -31.3136  -40.6107 H         1 UNK         0.0970 
    116 H116       19.6482  -29.3892  -42.3112 H         1 UNK         0.0612 
    117 H117       18.7267  -30.8379  -42.6469 H         1 UNK         0.0612 
@<TRIPOS>BOND
     1    1    2 1    
     2    1   62 1    
     3    1   63 1    
     4    1   64 1    
     5    2    3 2    
     6    2    4 am   BACKBONE|DICT|INTERRES
     7    4    5 1    
     8    4   65 1    
     9    5    6 1    
    10    5   25 1    
    11    5   66 1    
    12    6    7 1    
    13    6   67 1    
    14    6   68 1    
    15    7    8 1    
    16    8    9 1    
    17    8   69 1    
    18    8   70 1    
    19    9   10 ar   
    20    9   14 ar   
    21   10   11 ar   
    22   10   71 1    
    23   11   12 ar   
    24   11   61 1    
    25   12   13 ar   
    26   12   72 1    
    27   13   14 ar   
    28   13   15 1    
    29   14   73 1    
    30   15   16 1    
    31   15   74 1    
    32   15   75 1    
    33   16   17 1    
    34   17   18 1    
    35   17   76 1    
    36   17   77 1    
    37   18   19 1    
    38   18   27 1    
    39   18   78 1    
    40   19   20 am   BACKBONE|DICT|INTERRES
    41   19   79 1    
    42   20   21 2    
    43   20   22 1    
    44   22   23 1    
    45   22   24 1    
    46   22   80 1    
    47   23   81 1    
    48   23   82 1    
    49   23   83 1    
    50   24   25 am   BACKBONE|DICT|INTERRES
    51   24   84 1    
    52   25   26 2    
    53   27   28 2    
    54   27   29 am   BACKBONE|DICT|INTERRES
    55   29   30 1    
    56   29   85 1    
    57   30   31 1    
    58   30   32 1    
    59   30   86 1    
    60   31   87 1    
    61   31   88 1    
    62   31   89 1    
    63   32   33 2    
    64   32   34 am   BACKBONE|DICT|INTERRES
    65   34   35 1    
    66   34   90 1    
    67   35   36 1    
    68   35   37 1    
    69   35   91 1    
    70   36   92 1    
    71   36   93 1    
    72   36   94 1    
    73   37   38 2    
    74   37   39 am   BACKBONE|DICT|INTERRES
    75   39   40 1    
    76   39   95 1    
    77   40   41 1    
    78   40   42 1    
    79   40   96 1    
    80   41   97 1    
    81   41   98 1    
    82   41   99 1    
    83   42   43 2    
    84   42   44 am   BACKBONE|DICT|INTERRES
    85   44   45 1    
    86   44  100 1    
    87   45   46 1    
    88   45   47 1    
    89   45  101 1    
    90   46  102 1    
    91   46  103 1    
    92   46  104 1    
    93   47   48 2    
    94   47   49 am   BACKBONE|DICT|INTERRES
    95   49   50 1    
    96   49  105 1    
    97   50   51 1    
    98   50   52 1    
    99   50  106 1    
   100   51  107 1    
   101   51  108 1    
   102   51  109 1    
   103   52   53 2    
   104   52   54 am   BACKBONE|DICT|INTERRES
   105   54   55 1    
   106   54  110 1    
   107   55   56 1    
   108   55   59 1    
   109   55  111 1    
   110   56   57 am   BACKBONE|DICT|INTERRES
   111   56   58 2    
   112   57  112 1    
   113   57  113 1    
   114   59   60 1    
   115   59  114 1    
   116   59  115 1    
   117   60   61 1    
   118   61  116 1    
   119   61  117 1    
@<TRIPOS>SUBSTRUCTURE
     1 UNK         1 GROUP             0       ****    0 ROOT    
