@<TRIPOS>MOLECULE
3R8
117   119    1
SMALL
USER_CHARGES


@<TRIPOS>ATOM
      1 CA         15.2608  -23.0932  -45.6988 C.3       0 UNK        -0.2013 
      2 C          16.3449  -24.0432  -45.2142 C.2       0 UNK         0.4866 
      3 O          17.3401  -24.2482  -45.9110 O.2       0 UNK        -0.5176 
      4 N          16.1739  -24.6190  -44.0173 N.am      1 UNK        -0.4884 
      5 CA         17.0919  -25.5802  -43.3887 C.3       1 UNK         0.0853 
      6 C6         16.3502  -26.5172  -42.3991 C.3       10 UNK        -0.0849 
      7 S7         15.0932  -27.5277  -43.2608 S.3       10 UNK        -0.2776 
      8 C8         15.5570  -29.2380  -42.8054 C.3       10 UNK         0.0316 
      9 C9         16.9788  -29.6673  -43.1760 C.ar      10 UNK        -0.0863 
     10 C10        17.5878  -30.6784  -42.4268 C.ar      10 UNK        -0.1009 
     11 C11        18.8861  -31.1055  -42.7178 C.ar      10 UNK        -0.0712 
     12 C12        19.5887  -30.4998  -43.7639 C.ar      10 UNK        -0.0894 
     13 C13        18.9966  -29.4856  -44.5276 C.ar      10 UNK        -0.0745 
     14 C14        17.6831  -29.0979  -44.2444 C.ar      10 UNK        -0.0972 
     15 C15        19.7618  -28.8010  -45.6576 C.3       10 UNK         0.0209 
     16 S16        21.3921  -28.2137  -45.1015 S.3       10 UNK        -0.2568 
     17 C17        21.8279  -26.9028  -46.2975 C.3       10 UNK        -0.0983 
     18 CA         22.3804  -25.6157  -45.6202 C.3       3 UNK         0.0876 
     19 N          21.3672  -25.0109  -44.7546 N.am      3 UNK        -0.4424 
     20 C          21.3758  -23.7544  -44.2916 C.2       2 UNK         0.4918 
     21 O          22.1958  -22.9031  -44.6397 O.2       2 UNK        -0.4875 
     22 CA         20.2688  -23.3974  -43.2825 C.3       2 UNK         0.0481 
     23 CB         19.9615  -21.8891  -43.2438 C.3       2 UNK        -0.1831 
     24 N          19.0444  -24.1322  -43.5986 N.am      2 UNK        -0.4498 
     25 C          18.3077  -24.8662  -42.7576 C.2       1 UNK         0.5027 
     26 O          18.5482  -24.9821  -41.5550 O.2       1 UNK        -0.4969 
     27 C          23.6953  -25.8804  -44.8461 C.2       3 UNK         0.5005 
     28 O          23.7361  -25.7666  -43.6175 O.2       3 UNK        -0.5279 
     29 N          24.7408  -26.3056  -45.5690 N.am      4 UNK        -0.4463 
     30 CA         26.0324  -26.7177  -45.0015 C.3       4 UNK         0.0283 
     31 CB         27.0322  -26.9510  -46.1460 C.3       4 UNK        -0.1875 
     32 C          25.9608  -27.9631  -44.0911 C.2       4 UNK         0.4949 
     33 O          26.8814  -28.1818  -43.3038 O.2       4 UNK        -0.5039 
     34 N          24.8814  -28.7470  -44.2106 N.am      5 UNK        -0.4663 
     35 CA         24.6076  -29.9535  -43.4295 C.3       5 UNK         0.0242 
     36 CB         24.3989  -31.1280  -44.4044 C.3       5 UNK        -0.1982 
     37 C          23.3943  -29.7738  -42.4977 C.2       5 UNK         0.5017 
     38 O          22.7881  -30.7759  -42.1154 O.2       5 UNK        -0.5012 
     39 N          23.0337  -28.5251  -42.1567 N.am      6 UNK        -0.4439 
     40 CA         21.8811  -28.1927  -41.3112 C.3       6 UNK         0.0297 
     41 CB         21.7457  -26.6687  -41.1741 C.3       6 UNK        -0.2006 
     42 C          21.9671  -28.8645  -39.9310 C.2       6 UNK         0.4892 
     43 O          22.9246  -28.6214  -39.1941 O.2       6 UNK        -0.5089 
     44 N          20.9804  -29.7262  -39.6478 N.am      7 UNK        -0.4243 
     45 CA         20.8579  -30.5997  -38.4729 C.3       7 UNK         0.0196 
     46 CB         20.7453  -29.7717  -37.1748 C.3       7 UNK        -0.2007 
     47 C          21.9331  -31.7055  -38.3684 C.2       7 UNK         0.5020 
     48 O          21.9990  -32.3699  -37.3338 O.2       7 UNK        -0.5147 
     49 N          22.7291  -31.9270  -39.4260 N.am      8 UNK        -0.4734 
     50 CA         23.7479  -32.9841  -39.4930 C.3       8 UNK         0.0238 
     51 CB         24.9678  -32.4650  -40.2743 C.3       8 UNK        -0.1912 
     52 C          23.2131  -34.2863  -40.1199 C.2       8 UNK         0.5038 
     53 O          23.9658  -35.2575  -40.2092 O.2       8 UNK        -0.5046 
     54 N          21.9448  -34.2815  -40.5527 N.am      9 UNK        -0.4200 
     55 CA         21.2072  -35.4196  -41.1198 C.3       9 UNK         0.0839 
     56 C          21.1625  -36.6462  -40.1663 C.2       9 UNK         0.5513 
     57 N          21.3089  -37.8519  -40.6978 N.am      9 UNK        -0.7519 
     58 O          20.9461  -36.5140  -38.9633 O.2       9 UNK        -0.4960 
     59 C59        19.7645  -35.0080  -41.5145 C.3       10 UNK        -0.0876 
     60 S60        19.6931  -33.7532  -42.8394 S.3       10 UNK        -0.2414 
     61 C61        19.5267  -32.2099  -41.8894 C.3       10 UNK         0.0169 
     62 H62        14.4421  -23.0098  -44.9842 H         1 UNK         0.0903 
     63 H63        15.6769  -22.0985  -45.8564 H         1 UNK         0.0903 
     64 H64        14.8504  -23.4451  -46.6449 H         1 UNK         0.0903 
     65 H65        15.3447  -24.4036  -43.4816 H         1 UNK         0.3096 
     66 H66        17.5097  -26.2082  -44.1769 H         1 UNK         0.1121 
     67 H67        17.0561  -27.1786  -41.8930 H         1 UNK         0.0849 
     68 H68        15.8603  -25.9402  -41.6128 H         1 UNK         0.0849 
     69 H69        15.4070  -29.3489  -41.7302 H         1 UNK         0.0865 
     70 H70        14.8562  -29.9236  -43.2836 H         1 UNK         0.0865 
     71 H71        17.0450  -31.1392  -41.6124 H         1 UNK         0.1346 
     72 H72        20.6002  -30.8177  -43.9791 H         1 UNK         0.1412 
     73 H73        17.2114  -28.3437  -44.8568 H         1 UNK         0.1426 
     74 H74        19.1898  -27.9560  -46.0438 H         1 UNK         0.0716 
     75 H75        19.8921  -29.4992  -46.4852 H         1 UNK         0.0716 
     76 H76        20.9494  -26.6487  -46.8923 H         1 UNK         0.0695 
     77 H77        22.5484  -27.3112  -47.0080 H         1 UNK         0.0695 
     78 H78        22.6156  -24.8942  -46.4059 H         1 UNK         0.0983 
     79 H79        20.6794  -25.6497  -44.3865 H         1 UNK         0.3095 
     80 H80        20.6408  -23.6965  -42.3007 H         1 UNK         0.0454 
     81 H81        19.6281  -21.5220  -44.2151 H         1 UNK         0.0851 
     82 H82        20.8444  -21.3146  -42.9608 H         1 UNK         0.0851 
     83 H83        19.1834  -21.6629  -42.5149 H         1 UNK         0.0851 
     84 H84        18.7290  -24.0855  -44.5654 H         1 UNK         0.2976 
     85 H85        24.6431  -26.3860  -46.5715 H         1 UNK         0.3116 
     86 H86        26.4029  -25.8932  -44.3885 H         1 UNK         0.0646 
     87 H87        28.0141  -27.2249  -45.7570 H         1 UNK         0.0847 
     88 H88        27.1661  -26.0523  -46.7483 H         1 UNK         0.0847 
     89 H89        26.7093  -27.7562  -46.8071 H         1 UNK         0.0847 
     90 H90        24.1606  -28.4706  -44.8631 H         1 UNK         0.3040 
     91 H91        25.4574  -30.1926  -42.7867 H         1 UNK         0.1015 
     92 H92        24.2617  -32.0684  -43.8689 H         1 UNK         0.0786 
     93 H93        25.2598  -31.2560  -45.0607 H         1 UNK         0.0786 
     94 H94        23.5180  -30.9777  -45.0301 H         1 UNK         0.0786 
     95 H95        23.5653  -27.7455  -42.5246 H         1 UNK         0.3172 
     96 H96        20.9899  -28.5577  -41.8266 H         1 UNK         0.0595 
     97 H97        22.6506  -26.2168  -40.7662 H         1 UNK         0.0839 
     98 H98        20.9190  -26.4052  -40.5127 H         1 UNK         0.0839 
     99 H99        21.5421  -26.2044  -42.1374 H         1 UNK         0.0839 
    100 H100       20.2562  -29.8405  -40.3434 H         1 UNK         0.2998 
    101 H101       19.9117  -31.1280  -38.5999 H         1 UNK         0.0822 
    102 H102       19.9702  -29.0095  -37.2555 H         1 UNK         0.0787 
    103 H103       20.4851  -30.4057  -36.3263 H         1 UNK         0.0787 
    104 H104       21.6829  -29.2729  -36.9283 H         1 UNK         0.0787 
    105 H105       22.6264  -31.3550  -40.2612 H         1 UNK         0.3055 
    106 H106       24.0824  -33.2312  -38.4829 H         1 UNK         0.1106 
    107 H107       24.7500  -32.3503  -41.3357 H         1 UNK         0.0828 
    108 H108       25.8039  -33.1607  -40.1937 H         1 UNK         0.0828 
    109 H109       25.3093  -31.5029  -39.8918 H         1 UNK         0.0828 
    110 H110       21.4211  -33.4301  -40.4346 H         1 UNK         0.2931 
    111 H111       21.7387  -35.7152  -42.0266 H         1 UNK         0.0412 
    112 H112       21.2652  -38.6615  -40.0981 H         1 UNK         0.3472 
    113 H113       21.4752  -37.9694  -41.6857 H         1 UNK         0.3472 
    114 H114       19.2186  -35.8780  -41.8855 H         1 UNK         0.0970 
    115 H115       19.2058  -34.6654  -40.6416 H         1 UNK         0.0970 
    116 H116       20.5127  -31.8913  -41.5562 H         1 UNK         0.0612 
    117 H117       18.9382  -32.3911  -40.9890 H         1 UNK         0.0612 
@<TRIPOS>BOND
     1    1    2 1    
     2    1   62 1    
     3    1   63 1    
     4    1   64 1    
     5    2    3 2    
     6    2    4 am   BACKBONE|DICT|INTERRES
     7    4    5 1    
     8    4   65 1    
     9    5    6 1    
    10    5   25 1    
    11    5   66 1    
    12    6    7 1    
    13    6   67 1    
    14    6   68 1    
    15    7    8 1    
    16    8    9 1    
    17    8   69 1    
    18    8   70 1    
    19    9   10 ar   
    20    9   14 ar   
    21   10   11 ar   
    22   10   71 1    
    23   11   12 ar   
    24   11   61 1    
    25   12   13 ar   
    26   12   72 1    
    27   13   14 ar   
    28   13   15 1    
    29   14   73 1    
    30   15   16 1    
    31   15   74 1    
    32   15   75 1    
    33   16   17 1    
    34   17   18 1    
    35   17   76 1    
    36   17   77 1    
    37   18   19 1    
    38   18   27 1    
    39   18   78 1    
    40   19   20 am   BACKBONE|DICT|INTERRES
    41   19   79 1    
    42   20   21 2    
    43   20   22 1    
    44   22   23 1    
    45   22   24 1    
    46   22   80 1    
    47   23   81 1    
    48   23   82 1    
    49   23   83 1    
    50   24   25 am   BACKBONE|DICT|INTERRES
    51   24   84 1    
    52   25   26 2    
    53   27   28 2    
    54   27   29 am   BACKBONE|DICT|INTERRES
    55   29   30 1    
    56   29   85 1    
    57   30   31 1    
    58   30   32 1    
    59   30   86 1    
    60   31   87 1    
    61   31   88 1    
    62   31   89 1    
    63   32   33 2    
    64   32   34 am   BACKBONE|DICT|INTERRES
    65   34   35 1    
    66   34   90 1    
    67   35   36 1    
    68   35   37 1    
    69   35   91 1    
    70   36   92 1    
    71   36   93 1    
    72   36   94 1    
    73   37   38 2    
    74   37   39 am   BACKBONE|DICT|INTERRES
    75   39   40 1    
    76   39   95 1    
    77   40   41 1    
    78   40   42 1    
    79   40   96 1    
    80   41   97 1    
    81   41   98 1    
    82   41   99 1    
    83   42   43 2    
    84   42   44 am   BACKBONE|DICT|INTERRES
    85   44   45 1    
    86   44  100 1    
    87   45   46 1    
    88   45   47 1    
    89   45  101 1    
    90   46  102 1    
    91   46  103 1    
    92   46  104 1    
    93   47   48 2    
    94   47   49 am   BACKBONE|DICT|INTERRES
    95   49   50 1    
    96   49  105 1    
    97   50   51 1    
    98   50   52 1    
    99   50  106 1    
   100   51  107 1    
   101   51  108 1    
   102   51  109 1    
   103   52   53 2    
   104   52   54 am   BACKBONE|DICT|INTERRES
   105   54   55 1    
   106   54  110 1    
   107   55   56 1    
   108   55   59 1    
   109   55  111 1    
   110   56   57 am   BACKBONE|DICT|INTERRES
   111   56   58 2    
   112   57  112 1    
   113   57  113 1    
   114   59   60 1    
   115   59  114 1    
   116   59  115 1    
   117   60   61 1    
   118   61  116 1    
   119   61  117 1    
@<TRIPOS>SUBSTRUCTURE
     1 UNK         1 GROUP             0       ****    0 ROOT    
