@<TRIPOS>MOLECULE
3R8
117   119    1
SMALL
USER_CHARGES


@<TRIPOS>ATOM
      1 CA         18.6627  -28.6083  -42.0228 C.3       0 UNK        -0.2013 
      2 C          17.7417  -27.5477  -42.6035 C.2       0 UNK         0.4866 
      3 O          17.4175  -26.5845  -41.9100 O.2       0 UNK        -0.5176 
      4 N          17.3279  -27.7046  -43.8704 N.am      1 UNK        -0.4884 
      5 CA         16.4499  -26.7622  -44.5862 C.3       1 UNK         0.0853 
      6 C6         15.9523  -27.3201  -45.9423 C.3       10 UNK        -0.0849 
      7 S7         15.0062  -28.8685  -45.7580 S.3       10 UNK        -0.2776 
      8 C8         16.0212  -30.0478  -46.7072 C.3       10 UNK         0.0316 
      9 C9         17.3420  -30.3598  -46.0170 C.ar      10 UNK        -0.0863 
     10 C10        17.3510  -31.1060  -44.8349 C.ar      10 UNK        -0.1009 
     11 C11        18.5564  -31.4170  -44.2006 C.ar      10 UNK        -0.0712 
     12 C12        19.7607  -30.9884  -44.7658 C.ar      10 UNK        -0.0894 
     13 C13        19.7673  -30.2450  -45.9493 C.ar      10 UNK        -0.0745 
     14 C14        18.5536  -29.9297  -46.5690 C.ar      10 UNK        -0.0972 
     15 C15        21.0858  -29.8181  -46.5804 C.3       10 UNK         0.0209 
     16 S16        21.4592  -28.0594  -46.2993 S.3       10 UNK        -0.2568 
     17 C17        21.9399  -28.0443  -44.5377 C.3       10 UNK        -0.0983 
     18 CA         22.0924  -26.6080  -43.9631 C.3       3 UNK         0.0876 
     19 N          20.8791  -25.8098  -44.1635 N.am      3 UNK        -0.4424 
     20 C          20.7549  -24.7738  -45.0040 C.2       2 UNK         0.4918 
     21 O          21.7014  -24.2425  -45.5857 O.2       2 UNK        -0.4875 
     22 CA         19.3175  -24.2899  -45.2654 C.3       2 UNK         0.0481 
     23 CB         19.1575  -23.5827  -46.6252 C.3       2 UNK        -0.1831 
     24 N          18.4048  -25.4299  -45.1786 N.am      2 UNK        -0.4498 
     25 C          17.1260  -25.3912  -44.7899 C.2       1 UNK         0.5027 
     26 O          16.5013  -24.3538  -44.5644 O.2       1 UNK        -0.4969 
     27 C          22.4858  -26.6166  -42.4715 C.2       3 UNK         0.5005 
     28 O          23.0982  -27.5800  -42.0048 O.2       3 UNK        -0.5279 
     29 N          22.1264  -25.5502  -41.7390 N.am      4 UNK        -0.4463 
     30 CA         22.3945  -25.3613  -40.3107 C.3       4 UNK         0.0283 
     31 CB         21.8319  -24.0036  -39.8590 C.3       4 UNK        -0.1875 
     32 C          23.8942  -25.4713  -39.9873 C.2       4 UNK         0.4949 
     33 O          24.6883  -24.6938  -40.5188 O.2       4 UNK        -0.5039 
     34 N          24.2372  -26.4712  -39.1639 N.am      5 UNK        -0.4663 
     35 CA         25.5884  -26.8962  -38.7679 C.3       5 UNK         0.0242 
     36 CB         26.3468  -25.7596  -38.0488 C.3       5 UNK        -0.1982 
     37 C          26.4297  -27.5304  -39.8979 C.2       5 UNK         0.5017 
     38 O          27.5901  -27.8626  -39.6506 O.2       5 UNK        -0.5012 
     39 N          25.8485  -27.7221  -41.0907 N.am      6 UNK        -0.4439 
     40 CA         26.4655  -28.4162  -42.2230 C.3       6 UNK         0.0297 
     41 CB         26.2206  -27.6255  -43.5195 C.3       6 UNK        -0.2006 
     42 C          25.9147  -29.8442  -42.3415 C.2       6 UNK         0.4892 
     43 O          26.6976  -30.7768  -42.5262 O.2       6 UNK        -0.5089 
     44 N          24.5910  -29.9956  -42.2082 N.am      7 UNK        -0.4243 
     45 CA         23.8843  -31.2704  -42.2217 C.3       7 UNK         0.0196 
     46 CB         23.6475  -31.7419  -43.6689 C.3       7 UNK        -0.2007 
     47 C          22.5723  -31.0858  -41.4564 C.2       7 UNK         0.5020 
     48 O          21.6284  -30.5103  -41.9951 O.2       7 UNK        -0.5147 
     49 N          22.5392  -31.5557  -40.2044 N.am      8 UNK        -0.4734 
     50 CA         21.3571  -31.4876  -39.3376 C.3       8 UNK         0.0238 
     51 CB         21.8145  -31.5087  -37.8692 C.3       8 UNK        -0.1912 
     52 C          20.3374  -32.6125  -39.6005 C.2       8 UNK         0.5038 
     53 O          19.2045  -32.5060  -39.1302 O.2       8 UNK        -0.5046 
     54 N          20.7552  -33.6655  -40.3198 N.am      9 UNK        -0.4200 
     55 CA         19.9837  -34.8875  -40.6193 C.3       9 UNK         0.0839 
     56 C          19.6745  -35.7754  -39.3731 C.2       9 UNK         0.5513 
     57 N          20.3802  -35.6199  -38.2590 N.am      9 UNK        -0.7519 
     58 O          18.8059  -36.6430  -39.4211 O.2       9 UNK        -0.4960 
     59 C59        18.7235  -34.6272  -41.4965 C.3       10 UNK        -0.0876 
     60 S60        19.1150  -33.9048  -43.1267 S.3       10 UNK        -0.2414 
     61 C61        18.5563  -32.1916  -42.8920 C.3       10 UNK         0.0169 
     62 H62        18.0848  -29.3593  -41.4853 H         1 UNK         0.0903 
     63 H63        19.2383  -29.1054  -42.7993 H         1 UNK         0.0903 
     64 H64        19.3723  -28.1614  -41.3265 H         1 UNK         0.0903 
     65 H65        17.5816  -28.5409  -44.3816 H         1 UNK         0.3096 
     66 H66        15.5760  -26.5906  -43.9532 H         1 UNK         0.1121 
     67 H67        15.2960  -26.5967  -46.4305 H         1 UNK         0.0849 
     68 H68        16.7875  -27.4753  -46.6276 H         1 UNK         0.0849 
     69 H69        15.4587  -30.9746  -46.8300 H         1 UNK         0.0865 
     70 H70        16.1849  -29.6597  -47.7139 H         1 UNK         0.0865 
     71 H71        16.4148  -31.4385  -44.4067 H         1 UNK         0.1346 
     72 H72        20.6929  -31.2368  -44.2787 H         1 UNK         0.1412 
     73 H73        18.5581  -29.3611  -47.4893 H         1 UNK         0.1426 
     74 H74        21.0392  -29.9946  -47.6560 H         1 UNK         0.0716 
     75 H75        21.9106  -30.4289  -46.2125 H         1 UNK         0.0716 
     76 H76        22.8779  -28.5937  -44.4445 H         1 UNK         0.0695 
     77 H77        21.1992  -28.6043  -43.9673 H         1 UNK         0.0695 
     78 H78        22.9319  -26.1368  -44.4788 H         1 UNK         0.0983 
     79 H79        20.0566  -26.1321  -43.6757 H         1 UNK         0.3095 
     80 H80        19.0784  -23.5795  -44.4714 H         1 UNK         0.0454 
     81 H81        19.8048  -22.7074  -46.6918 H         1 UNK         0.0851 
     82 H82        18.1349  -23.2372  -46.7767 H         1 UNK         0.0851 
     83 H83        19.4143  -24.2446  -47.4530 H         1 UNK         0.0851 
     84 H84        18.8171  -26.3330  -45.3727 H         1 UNK         0.2976 
     85 H85        21.6618  -24.7900  -42.2136 H         1 UNK         0.3116 
     86 H86        21.8559  -26.1452  -39.7740 H         1 UNK         0.0646 
     87 H87        22.0073  -23.8446  -38.7941 H         1 UNK         0.0847 
     88 H88        20.7555  -23.9439  -40.0205 H         1 UNK         0.0847 
     89 H89        22.2994  -23.1745  -40.3920 H         1 UNK         0.0847 
     90 H90        23.4915  -27.0587  -38.8149 H         1 UNK         0.3040 
     91 H91        25.4409  -27.6948  -38.0390 H         1 UNK         0.1015 
     92 H92        27.2737  -26.1268  -37.6064 H         1 UNK         0.0786 
     93 H93        25.7520  -25.3336  -37.2408 H         1 UNK         0.0786 
     94 H94        26.6151  -24.9526  -38.7311 H         1 UNK         0.0786 
     95 H95        24.8754  -27.4534  -41.2048 H         1 UNK         0.3172 
     96 H96        27.5458  -28.4849  -42.0795 H         1 UNK         0.0595 
     97 H97        25.1618  -27.5552  -43.7658 H         1 UNK         0.0839 
     98 H98        26.7173  -28.1046  -44.3643 H         1 UNK         0.0839 
     99 H99        26.6145  -26.6119  -43.4444 H         1 UNK         0.0839 
    100 H100       24.0023  -29.1745  -42.0686 H         1 UNK         0.2998 
    101 H101       24.4854  -32.0235  -41.7073 H         1 UNK         0.0822 
    102 H102       24.5880  -31.9637  -44.1731 H         1 UNK         0.0787 
    103 H103       23.1267  -30.9861  -44.2550 H         1 UNK         0.0787 
    104 H104       23.0431  -32.6497  -43.6916 H         1 UNK         0.0787 
    105 H105       23.3663  -31.9889  -39.8176 H         1 UNK         0.3055 
    106 H106       20.8402  -30.5417  -39.5180 H         1 UNK         0.1106 
    107 H107       22.3435  -32.4295  -37.6213 H         1 UNK         0.0828 
    108 H108       22.4761  -30.6709  -37.6483 H         1 UNK         0.0828 
    109 H109       20.9620  -31.4309  -37.1928 H         1 UNK         0.0828 
    110 H110       21.7048  -33.6562  -40.6596 H         1 UNK         0.2931 
    111 H111       20.6579  -35.5022  -41.2169 H         1 UNK         0.0412 
    112 H112       21.1086  -34.9267  -38.2053 H         1 UNK         0.3472 
    113 H113       20.1807  -36.2061  -37.4633 H         1 UNK         0.3472 
    114 H114       18.2026  -35.5649  -41.6974 H         1 UNK         0.0970 
    115 H115       18.0036  -34.0031  -40.9655 H         1 UNK         0.0970 
    116 H116       19.2086  -31.6945  -42.1745 H         1 UNK         0.0612 
    117 H117       17.5571  -32.1915  -42.4539 H         1 UNK         0.0612 
@<TRIPOS>BOND
     1    1    2 1    
     2    1   62 1    
     3    1   63 1    
     4    1   64 1    
     5    2    3 2    
     6    2    4 am   BACKBONE|DICT|INTERRES
     7    4    5 1    
     8    4   65 1    
     9    5    6 1    
    10    5   25 1    
    11    5   66 1    
    12    6    7 1    
    13    6   67 1    
    14    6   68 1    
    15    7    8 1    
    16    8    9 1    
    17    8   69 1    
    18    8   70 1    
    19    9   10 ar   
    20    9   14 ar   
    21   10   11 ar   
    22   10   71 1    
    23   11   12 ar   
    24   11   61 1    
    25   12   13 ar   
    26   12   72 1    
    27   13   14 ar   
    28   13   15 1    
    29   14   73 1    
    30   15   16 1    
    31   15   74 1    
    32   15   75 1    
    33   16   17 1    
    34   17   18 1    
    35   17   76 1    
    36   17   77 1    
    37   18   19 1    
    38   18   27 1    
    39   18   78 1    
    40   19   20 am   BACKBONE|DICT|INTERRES
    41   19   79 1    
    42   20   21 2    
    43   20   22 1    
    44   22   23 1    
    45   22   24 1    
    46   22   80 1    
    47   23   81 1    
    48   23   82 1    
    49   23   83 1    
    50   24   25 am   BACKBONE|DICT|INTERRES
    51   24   84 1    
    52   25   26 2    
    53   27   28 2    
    54   27   29 am   BACKBONE|DICT|INTERRES
    55   29   30 1    
    56   29   85 1    
    57   30   31 1    
    58   30   32 1    
    59   30   86 1    
    60   31   87 1    
    61   31   88 1    
    62   31   89 1    
    63   32   33 2    
    64   32   34 am   BACKBONE|DICT|INTERRES
    65   34   35 1    
    66   34   90 1    
    67   35   36 1    
    68   35   37 1    
    69   35   91 1    
    70   36   92 1    
    71   36   93 1    
    72   36   94 1    
    73   37   38 2    
    74   37   39 am   BACKBONE|DICT|INTERRES
    75   39   40 1    
    76   39   95 1    
    77   40   41 1    
    78   40   42 1    
    79   40   96 1    
    80   41   97 1    
    81   41   98 1    
    82   41   99 1    
    83   42   43 2    
    84   42   44 am   BACKBONE|DICT|INTERRES
    85   44   45 1    
    86   44  100 1    
    87   45   46 1    
    88   45   47 1    
    89   45  101 1    
    90   46  102 1    
    91   46  103 1    
    92   46  104 1    
    93   47   48 2    
    94   47   49 am   BACKBONE|DICT|INTERRES
    95   49   50 1    
    96   49  105 1    
    97   50   51 1    
    98   50   52 1    
    99   50  106 1    
   100   51  107 1    
   101   51  108 1    
   102   51  109 1    
   103   52   53 2    
   104   52   54 am   BACKBONE|DICT|INTERRES
   105   54   55 1    
   106   54  110 1    
   107   55   56 1    
   108   55   59 1    
   109   55  111 1    
   110   56   57 am   BACKBONE|DICT|INTERRES
   111   56   58 2    
   112   57  112 1    
   113   57  113 1    
   114   59   60 1    
   115   59  114 1    
   116   59  115 1    
   117   60   61 1    
   118   61  116 1    
   119   61  117 1    
@<TRIPOS>SUBSTRUCTURE
     1 UNK         1 GROUP             0       ****    0 ROOT    
