@<TRIPOS>MOLECULE
3R8
117   119    1
SMALL
USER_CHARGES


@<TRIPOS>ATOM
      1 CA         13.8044  -22.9129  -47.0131 C.3       0 UNK        -0.2013 
      2 C          14.4352  -24.2866  -46.8416 C.2       0 UNK         0.4866 
      3 O          14.6255  -24.9999  -47.8268 O.2       0 UNK        -0.5176 
      4 N          14.7650  -24.6625  -45.5979 N.am      1 UNK        -0.4884 
      5 CA         15.3823  -25.9519  -45.2491 C.3       1 UNK         0.0853 
      6 C6         15.1055  -26.3223  -43.7670 C.3       10 UNK        -0.0849 
      7 S7         14.7721  -28.1028  -43.5533 S.3       10 UNK        -0.2776 
      8 C8         15.0539  -28.3176  -41.7678 C.3       10 UNK         0.0316 
      9 C9         16.5372  -28.3683  -41.4347 C.ar      10 UNK        -0.0863 
     10 C10        17.2611  -29.5448  -41.6464 C.ar      10 UNK        -0.1009 
     11 C11        18.6233  -29.6037  -41.3401 C.ar      10 UNK        -0.0712 
     12 C12        19.2629  -28.4778  -40.8133 C.ar      10 UNK        -0.0894 
     13 C13        18.5534  -27.2891  -40.6208 C.ar      10 UNK        -0.0745 
     14 C14        17.1878  -27.2449  -40.9172 C.ar      10 UNK        -0.0972 
     15 C15        19.2573  -26.0404  -40.1156 C.3       10 UNK         0.0209 
     16 S16        19.5391  -24.8570  -41.4708 S.3       10 UNK        -0.2568 
     17 C17        21.0316  -25.5311  -42.2794 C.3       10 UNK        -0.0983 
     18 CA         20.7401  -26.5012  -43.4615 C.3       3 UNK         0.0876 
     19 N          19.8149  -25.9692  -44.4689 N.am      3 UNK        -0.4424 
     20 C          19.9898  -24.8994  -45.2550 C.2       2 UNK         0.4918 
     21 O          20.9707  -24.1571  -45.2059 O.2       2 UNK        -0.4875 
     22 CA         18.8857  -24.5824  -46.2818 C.3       2 UNK         0.0481 
     23 CB         19.1828  -25.2698  -47.6289 C.3       2 UNK        -0.1831 
     24 N          17.5049  -24.8406  -45.8431 N.am      2 UNK        -0.4498 
     25 C          16.8917  -26.0082  -45.5890 C.2       1 UNK         0.5027 
     26 O          17.4700  -27.0954  -45.6106 O.2       1 UNK        -0.4969 
     27 C          22.0318  -27.0004  -44.1441 C.2       3 UNK         0.5005 
     28 O          23.0731  -26.3460  -44.0557 O.2       3 UNK        -0.5279 
     29 N          21.9206  -28.1300  -44.8610 N.am      4 UNK        -0.4463 
     30 CA         22.9672  -28.7153  -45.7107 C.3       4 UNK         0.0283 
     31 CB         22.4211  -29.9771  -46.3981 C.3       4 UNK        -0.1875 
     32 C          24.2942  -29.0302  -44.9949 C.2       4 UNK         0.4949 
     33 O          25.3502  -28.9197  -45.6188 O.2       4 UNK        -0.5039 
     34 N          24.2262  -29.3896  -43.7087 N.am      5 UNK        -0.4663 
     35 CA         25.3739  -29.5523  -42.8220 C.3       5 UNK         0.0242 
     36 CB         26.0429  -30.9247  -43.0315 C.3       5 UNK        -0.1982 
     37 C          24.8902  -29.3978  -41.3792 C.2       5 UNK         0.5017 
     38 O          23.7621  -29.7945  -41.0730 O.2       5 UNK        -0.5012 
     39 N          25.7649  -28.8696  -40.5126 N.am      6 UNK        -0.4439 
     40 CA         25.5149  -28.6999  -39.0764 C.3       6 UNK         0.0297 
     41 CB         26.6351  -27.8495  -38.4566 C.3       6 UNK        -0.2006 
     42 C          25.3722  -30.0344  -38.3233 C.2       6 UNK         0.4892 
     43 O          24.6422  -30.0964  -37.3334 O.2       6 UNK        -0.5089 
     44 N          26.0289  -31.0885  -38.8279 N.am      7 UNK        -0.4243 
     45 CA         25.9290  -32.4694  -38.3512 C.3       7 UNK         0.0196 
     46 CB         27.1982  -33.2325  -38.7753 C.3       7 UNK        -0.2007 
     47 C          24.6352  -33.1472  -38.8471 C.2       7 UNK         0.5020 
     48 O          24.6966  -34.1845  -39.5094 O.2       7 UNK        -0.5147 
     49 N          23.4876  -32.5247  -38.5405 N.am      8 UNK        -0.4734 
     50 CA         22.1158  -32.9549  -38.8460 C.3       8 UNK         0.0238 
     51 CB         21.7185  -34.1265  -37.9232 C.3       8 UNK        -0.1912 
     52 C          21.8741  -33.2688  -40.3374 C.2       8 UNK         0.5038 
     53 O          21.1708  -34.2313  -40.6510 O.2       8 UNK        -0.5046 
     54 N          22.4687  -32.4585  -41.2259 N.am      9 UNK        -0.4200 
     55 CA         22.4498  -32.6244  -42.6897 C.3       9 UNK         0.0839 
     56 C          23.1752  -33.9044  -43.2105 C.2       9 UNK         0.5513 
     57 N          23.9929  -34.5823  -42.4126 N.am      9 UNK        -0.7519 
     58 O          23.0286  -34.2713  -44.3734 O.2       9 UNK        -0.4960 
     59 C59        21.0332  -32.4286  -43.3033 C.3       10 UNK        -0.0876 
     60 S60        20.4167  -30.7238  -43.0978 S.3       10 UNK        -0.2414 
     61 C61        19.4084  -30.8778  -41.5935 C.3       10 UNK         0.0169 
     62 H62        13.6944  -22.3916  -46.0623 H         1 UNK         0.0903 
     63 H63        14.4192  -22.2967  -47.6687 H         1 UNK         0.0903 
     64 H64        12.8165  -23.0080  -47.4631 H         1 UNK         0.0903 
     65 H65        14.5802  -24.0364  -44.8258 H         1 UNK         0.3096 
     66 H66        14.9085  -26.7045  -45.8843 H         1 UNK         0.1121 
     67 H67        15.9223  -26.0052  -43.1165 H         1 UNK         0.0849 
     68 H68        14.2197  -25.8016  -43.3990 H         1 UNK         0.0849 
     69 H69        14.5802  -29.2463  -41.4460 H         1 UNK         0.0865 
     70 H70        14.5562  -27.5182  -41.2162 H         1 UNK         0.0865 
     71 H71        16.7637  -30.4117  -42.0599 H         1 UNK         0.1346 
     72 H72        20.3201  -28.5204  -40.5874 H         1 UNK         0.1412 
     73 H73        16.6385  -26.3262  -40.7622 H         1 UNK         0.1426 
     74 H74        20.2016  -26.2872  -39.6281 H         1 UNK         0.0716 
     75 H75        18.6383  -25.5621  -39.3551 H         1 UNK         0.0716 
     76 H76        21.6483  -26.0285  -41.5287 H         1 UNK         0.0695 
     77 H77        21.6170  -24.6764  -42.6227 H         1 UNK         0.0695 
     78 H78        20.2499  -27.3820  -43.0494 H         1 UNK         0.0983 
     79 H79        18.9805  -26.5230  -44.6425 H         1 UNK         0.3095 
     80 H80        18.9298  -23.5058  -46.4547 H         1 UNK         0.0454 
     81 H81        18.4511  -24.9905  -48.3869 H         1 UNK         0.0851 
     82 H82        19.1795  -26.3569  -47.5437 H         1 UNK         0.0851 
     83 H83        20.1650  -24.9799  -48.0046 H         1 UNK         0.0851 
     84 H84        16.9303  -24.0139  -45.7565 H         1 UNK         0.2976 
     85 H85        21.0287  -28.6055  -44.8675 H         1 UNK         0.3116 
     86 H86        23.1899  -27.9795  -46.4862 H         1 UNK         0.0646 
     87 H87        22.1664  -30.7523  -45.6754 H         1 UNK         0.0847 
     88 H88        21.5305  -29.7587  -46.9875 H         1 UNK         0.0847 
     89 H89        23.1611  -30.4008  -47.0786 H         1 UNK         0.0847 
     90 H90        23.3249  -29.4346  -43.2489 H         1 UNK         0.3040 
     91 H91        26.0941  -28.7594  -43.0375 H         1 UNK         0.1015 
     92 H92        26.3426  -31.0713  -44.0692 H         1 UNK         0.0786 
     93 H93        25.3850  -31.7478  -42.7548 H         1 UNK         0.0786 
     94 H94        26.9435  -31.0150  -42.4231 H         1 UNK         0.0786 
     95 H95        26.6692  -28.5718  -40.8518 H         1 UNK         0.3172 
     96 H96        24.5731  -28.1585  -38.9635 H         1 UNK         0.0595 
     97 H97        27.6102  -28.3285  -38.5540 H         1 UNK         0.0839 
     98 H98        26.4575  -27.6880  -37.3922 H         1 UNK         0.0839 
     99 H99        26.6940  -26.8666  -38.9245 H         1 UNK         0.0839 
    100 H100       26.5843  -30.9416  -39.6575 H         1 UNK         0.2998 
    101 H101       25.8920  -32.4644  -37.2596 H         1 UNK         0.0822 
    102 H102       27.2971  -33.2814  -39.8606 H         1 UNK         0.0787 
    103 H103       28.0967  -32.7611  -38.3766 H         1 UNK         0.0787 
    104 H104       27.1805  -34.2577  -38.4028 H         1 UNK         0.0787 
    105 H105       23.5738  -31.6530  -38.0250 H         1 UNK         0.3055 
    106 H106       21.4657  -32.1109  -38.6095 H         1 UNK         0.1106 
    107 H107       20.6670  -34.3881  -38.0487 H         1 UNK         0.0828 
    108 H108       22.3049  -35.0214  -38.1349 H         1 UNK         0.0828 
    109 H109       21.8624  -33.8719  -36.8732 H         1 UNK         0.0828 
    110 H110       23.0060  -31.6664  -40.8898 H         1 UNK         0.2931 
    111 H111       23.0644  -31.8110  -43.0708 H         1 UNK         0.0412 
    112 H112       24.1256  -34.3161  -41.4426 H         1 UNK         0.3472 
    113 H113       24.4620  -35.3979  -42.7726 H         1 UNK         0.3472 
    114 H114       21.0502  -32.6192  -44.3775 H         1 UNK         0.0970 
    115 H115       20.3193  -33.1435  -42.8929 H         1 UNK         0.0970 
    116 H116       18.7355  -31.7315  -41.6874 H         1 UNK         0.0612 
    117 H117       20.0519  -31.0763  -40.7373 H         1 UNK         0.0612 
@<TRIPOS>BOND
     1    1    2 1    
     2    1   62 1    
     3    1   63 1    
     4    1   64 1    
     5    2    3 2    
     6    2    4 am   BACKBONE|DICT|INTERRES
     7    4    5 1    
     8    4   65 1    
     9    5    6 1    
    10    5   25 1    
    11    5   66 1    
    12    6    7 1    
    13    6   67 1    
    14    6   68 1    
    15    7    8 1    
    16    8    9 1    
    17    8   69 1    
    18    8   70 1    
    19    9   10 ar   
    20    9   14 ar   
    21   10   11 ar   
    22   10   71 1    
    23   11   12 ar   
    24   11   61 1    
    25   12   13 ar   
    26   12   72 1    
    27   13   14 ar   
    28   13   15 1    
    29   14   73 1    
    30   15   16 1    
    31   15   74 1    
    32   15   75 1    
    33   16   17 1    
    34   17   18 1    
    35   17   76 1    
    36   17   77 1    
    37   18   19 1    
    38   18   27 1    
    39   18   78 1    
    40   19   20 am   BACKBONE|DICT|INTERRES
    41   19   79 1    
    42   20   21 2    
    43   20   22 1    
    44   22   23 1    
    45   22   24 1    
    46   22   80 1    
    47   23   81 1    
    48   23   82 1    
    49   23   83 1    
    50   24   25 am   BACKBONE|DICT|INTERRES
    51   24   84 1    
    52   25   26 2    
    53   27   28 2    
    54   27   29 am   BACKBONE|DICT|INTERRES
    55   29   30 1    
    56   29   85 1    
    57   30   31 1    
    58   30   32 1    
    59   30   86 1    
    60   31   87 1    
    61   31   88 1    
    62   31   89 1    
    63   32   33 2    
    64   32   34 am   BACKBONE|DICT|INTERRES
    65   34   35 1    
    66   34   90 1    
    67   35   36 1    
    68   35   37 1    
    69   35   91 1    
    70   36   92 1    
    71   36   93 1    
    72   36   94 1    
    73   37   38 2    
    74   37   39 am   BACKBONE|DICT|INTERRES
    75   39   40 1    
    76   39   95 1    
    77   40   41 1    
    78   40   42 1    
    79   40   96 1    
    80   41   97 1    
    81   41   98 1    
    82   41   99 1    
    83   42   43 2    
    84   42   44 am   BACKBONE|DICT|INTERRES
    85   44   45 1    
    86   44  100 1    
    87   45   46 1    
    88   45   47 1    
    89   45  101 1    
    90   46  102 1    
    91   46  103 1    
    92   46  104 1    
    93   47   48 2    
    94   47   49 am   BACKBONE|DICT|INTERRES
    95   49   50 1    
    96   49  105 1    
    97   50   51 1    
    98   50   52 1    
    99   50  106 1    
   100   51  107 1    
   101   51  108 1    
   102   51  109 1    
   103   52   53 2    
   104   52   54 am   BACKBONE|DICT|INTERRES
   105   54   55 1    
   106   54  110 1    
   107   55   56 1    
   108   55   59 1    
   109   55  111 1    
   110   56   57 am   BACKBONE|DICT|INTERRES
   111   56   58 2    
   112   57  112 1    
   113   57  113 1    
   114   59   60 1    
   115   59  114 1    
   116   59  115 1    
   117   60   61 1    
   118   61  116 1    
   119   61  117 1    
@<TRIPOS>SUBSTRUCTURE
     1 UNK         1 GROUP             0       ****    0 ROOT    
