@<TRIPOS>MOLECULE
3R8
117   119    1
SMALL
USER_CHARGES


@<TRIPOS>ATOM
      1 CA         15.5181  -26.3542  -40.3103 C.3       0 UNK        -0.2013 
      2 C          15.6414  -26.2719  -41.8243 C.2       0 UNK         0.4866 
      3 O          14.9977  -25.4282  -42.4479 O.2       0 UNK        -0.5176 
      4 N          16.4686  -27.1401  -42.4209 N.am      1 UNK        -0.4884 
      5 CA         16.6768  -27.2410  -43.8733 C.3       1 UNK         0.0853 
      6 C6         17.3400  -28.5805  -44.2715 C.3       10 UNK        -0.0849 
      7 S7         16.5305  -30.0766  -43.6106 S.3       10 UNK        -0.2776 
      8 C8         16.8104  -31.2495  -44.9792 C.3       10 UNK         0.0316 
      9 C9         18.2696  -31.6804  -45.0688 C.ar      10 UNK        -0.0863 
     10 C10        18.6723  -32.9125  -44.5492 C.ar      10 UNK        -0.1009 
     11 C11        20.0067  -33.3223  -44.6358 C.ar      10 UNK        -0.0712 
     12 C12        20.9431  -32.4753  -45.2427 C.ar      10 UNK        -0.0894 
     13 C13        20.5571  -31.2382  -45.7732 C.ar      10 UNK        -0.0745 
     14 C14        19.2124  -30.8649  -45.7012 C.ar      10 UNK        -0.0972 
     15 C15        21.5801  -30.3560  -46.4939 C.3       10 UNK         0.0209 
     16 S16        21.3341  -28.5535  -46.2692 S.3       10 UNK        -0.2568 
     17 C17        21.9710  -28.3110  -44.5834 C.3       10 UNK        -0.0983 
     18 CA         22.1101  -26.8175  -44.1785 C.3       3 UNK         0.0876 
     19 N          20.8024  -26.1442  -44.1155 N.am      3 UNK        -0.4424 
     20 C          20.5883  -24.8270  -44.2515 C.2       2 UNK         0.4918 
     21 O          21.4790  -24.0339  -44.5587 O.2       2 UNK        -0.4875 
     22 CA         19.1951  -24.2788  -43.8786 C.3       2 UNK         0.0481 
     23 CB         18.6864  -23.2221  -44.8819 C.3       2 UNK        -0.1831 
     24 N          18.1965  -25.3191  -43.5912 N.am      2 UNK        -0.4498 
     25 C          17.5244  -26.0889  -44.4613 C.2       1 UNK         0.5027 
     26 O          17.5969  -25.9681  -45.6841 O.2       1 UNK        -0.4969 
     27 C          22.8540  -26.6539  -42.8278 C.2       3 UNK         0.5005 
     28 O          23.2876  -27.6458  -42.2364 O.2       3 UNK        -0.5279 
     29 N          22.9348  -25.4083  -42.3349 N.am      4 UNK        -0.4463 
     30 CA         23.4397  -25.0239  -41.0150 C.3       4 UNK         0.0283 
     31 CB         23.3190  -23.5009  -40.8486 C.3       4 UNK        -0.1875 
     32 C          24.8864  -25.4798  -40.7854 C.2       4 UNK         0.4949 
     33 O          25.7320  -25.2749  -41.6583 O.2       4 UNK        -0.5039 
     34 N          25.1247  -26.1244  -39.6352 N.am      5 UNK        -0.4663 
     35 CA         26.3664  -26.7707  -39.1767 C.3       5 UNK         0.0242 
     36 CB         27.5192  -25.7545  -39.0546 C.3       5 UNK        -0.1982 
     37 C          26.7995  -28.0022  -39.9984 C.2       5 UNK         0.5017 
     38 O          27.3566  -28.9362  -39.4207 O.2       5 UNK        -0.5012 
     39 N          26.5418  -27.9907  -41.3115 N.am      6 UNK        -0.4439 
     40 CA         26.8400  -29.0636  -42.2561 C.3       6 UNK         0.0297 
     41 CB         26.6483  -28.5485  -43.6925 C.3       6 UNK        -0.2006 
     42 C          25.9977  -30.3257  -42.0164 C.2       6 UNK         0.4892 
     43 O          26.5603  -31.4217  -41.9979 O.2       6 UNK        -0.5089 
     44 N          24.6788  -30.1580  -41.8498 N.am      7 UNK        -0.4243 
     45 CA         23.7254  -31.2527  -41.6909 C.3       7 UNK         0.0196 
     46 CB         23.5217  -31.9812  -43.0372 C.3       7 UNK        -0.2007 
     47 C          22.4277  -30.7175  -41.0697 C.2       7 UNK         0.5020 
     48 O          22.3855  -30.5307  -39.8538 O.2       7 UNK        -0.5147 
     49 N          21.4054  -30.4955  -41.9108 N.am      8 UNK        -0.4734 
     50 CA         20.0343  -30.0789  -41.5818 C.3       8 UNK         0.0238 
     51 CB         19.9993  -28.6839  -40.9204 C.3       8 UNK        -0.1912 
     52 C          19.3092  -31.1619  -40.7691 C.2       8 UNK         0.5038 
     53 O          18.9140  -30.9342  -39.6244 O.2       8 UNK        -0.5046 
     54 N          19.2002  -32.3417  -41.3883 N.am      9 UNK        -0.4200 
     55 CA         18.7010  -33.5870  -40.7900 C.3       9 UNK         0.0839 
     56 C          17.1870  -33.5946  -40.4305 C.2       9 UNK         0.5513 
     57 N          16.3765  -32.6753  -40.9414 N.am      9 UNK        -0.7519 
     58 O          16.7423  -34.4563  -39.6768 O.2       9 UNK        -0.4960 
     59 C59        19.0631  -34.8318  -41.6491 C.3       10 UNK        -0.0876 
     60 S60        20.7508  -34.7913  -42.3576 S.3       10 UNK        -0.2414 
     61 C61        20.4202  -34.7097  -44.1506 C.3       10 UNK         0.0169 
     62 H62        14.4852  -26.5581  -40.0295 H         1 UNK         0.0903 
     63 H63        16.1445  -27.1416  -39.8912 H         1 UNK         0.0903 
     64 H64        15.8137  -25.4083  -39.8573 H         1 UNK         0.0903 
     65 H65        16.9319  -27.8449  -41.8657 H         1 UNK         0.3096 
     66 H66        15.6974  -27.1907  -44.3552 H         1 UNK         0.1121 
     67 H67        18.3878  -28.6021  -43.9697 H         1 UNK         0.0849 
     68 H68        17.3338  -28.6476  -45.3602 H         1 UNK         0.0849 
     69 H69        16.1705  -32.1199  -44.8256 H         1 UNK         0.0865 
     70 H70        16.4888  -30.8075  -45.9235 H         1 UNK         0.0865 
     71 H71        17.9340  -33.5622  -44.1023 H         1 UNK         0.1346 
     72 H72        21.9701  -32.8001  -45.3380 H         1 UNK         0.1412 
     73 H73        18.9011  -29.9371  -46.1556 H         1 UNK         0.1426 
     74 H74        21.5184  -30.5757  -47.5604 H         1 UNK         0.0716 
     75 H75        22.5949  -30.6153  -46.1890 H         1 UNK         0.0716 
     76 H76        22.9354  -28.8191  -44.5204 H         1 UNK         0.0695 
     77 H77        21.2966  -28.8228  -43.9014 H         1 UNK         0.0695 
     78 H78        22.7265  -26.3240  -44.9333 H         1 UNK         0.0983 
     79 H79        20.0222  -26.7205  -43.8457 H         1 UNK         0.3095 
     80 H80        19.3381  -23.7623  -42.9284 H         1 UNK         0.0454 
     81 H81        18.6353  -23.6124  -45.8984 H         1 UNK         0.0851 
     82 H82        19.3526  -22.3590  -44.9068 H         1 UNK         0.0851 
     83 H83        17.6963  -22.8572  -44.6093 H         1 UNK         0.0851 
     84 H84        18.0380  -25.5058  -42.6104 H         1 UNK         0.2976 
     85 H85        22.5879  -24.6590  -42.9228 H         1 UNK         0.3116 
     86 H86        22.7961  -25.5025  -40.2738 H         1 UNK         0.0646 
     87 H87        22.2851  -23.1693  -40.9462 H         1 UNK         0.0847 
     88 H88        23.9150  -22.9667  -41.5900 H         1 UNK         0.0847 
     89 H89        23.6673  -23.1865  -39.8638 H         1 UNK         0.0847 
     90 H90        24.3364  -26.2573  -39.0156 H         1 UNK         0.3040 
     91 H91        26.1505  -27.1393  -38.1721 H         1 UNK         0.1015 
     92 H92        27.8234  -25.3607  -40.0248 H         1 UNK         0.0786 
     93 H93        28.3987  -26.2184  -38.6061 H         1 UNK         0.0786 
     94 H94        27.2400  -24.9116  -38.4224 H         1 UNK         0.0786 
     95 H95        26.1142  -27.1477  -41.6844 H         1 UNK         0.3172 
     96 H96        27.8907  -29.3337  -42.1308 H         1 UNK         0.0595 
     97 H97        25.6228  -28.2239  -43.8738 H         1 UNK         0.0839 
     98 H98        26.8770  -29.3283  -44.4203 H         1 UNK         0.0839 
     99 H99        27.3075  -27.7062  -43.9030 H         1 UNK         0.0839 
    100 H100       24.2812  -29.2189  -41.8623 H         1 UNK         0.2998 
    101 H101       24.1339  -31.9702  -40.9758 H         1 UNK         0.0822 
    102 H102       24.4280  -32.5014  -43.3468 H         1 UNK         0.0787 
    103 H103       22.7417  -32.7373  -42.9587 H         1 UNK         0.0787 
    104 H104       23.2542  -31.2906  -43.8365 H         1 UNK         0.0787 
    105 H105       21.5696  -30.7091  -42.8841 H         1 UNK         0.3055 
    106 H106       19.4991  -30.0069  -42.5284 H         1 UNK         0.1106 
    107 H107       20.5088  -28.6754  -39.9567 H         1 UNK         0.0828 
    108 H108       18.9727  -28.3634  -40.7422 H         1 UNK         0.0828 
    109 H109       20.4703  -27.9321  -41.5509 H         1 UNK         0.0828 
    110 H110       19.5655  -32.4356  -42.3252 H         1 UNK         0.2931 
    111 H111       19.2326  -33.6919  -39.8421 H         1 UNK         0.0412 
    112 H112       15.3984  -32.6915  -40.6995 H         1 UNK         0.3472 
    113 H113       16.7310  -31.9630  -41.5603 H         1 UNK         0.3472 
    114 H114       18.3385  -34.9796  -42.4496 H         1 UNK         0.0970 
    115 H115       18.9879  -35.7299  -41.0332 H         1 UNK         0.0970 
    116 H116       19.6556  -35.4414  -44.4158 H         1 UNK         0.0612 
    117 H117       21.3237  -35.0256  -44.6743 H         1 UNK         0.0612 
@<TRIPOS>BOND
     1    1    2 1    
     2    1   62 1    
     3    1   63 1    
     4    1   64 1    
     5    2    3 2    
     6    2    4 am   BACKBONE|DICT|INTERRES
     7    4    5 1    
     8    4   65 1    
     9    5    6 1    
    10    5   25 1    
    11    5   66 1    
    12    6    7 1    
    13    6   67 1    
    14    6   68 1    
    15    7    8 1    
    16    8    9 1    
    17    8   69 1    
    18    8   70 1    
    19    9   10 ar   
    20    9   14 ar   
    21   10   11 ar   
    22   10   71 1    
    23   11   12 ar   
    24   11   61 1    
    25   12   13 ar   
    26   12   72 1    
    27   13   14 ar   
    28   13   15 1    
    29   14   73 1    
    30   15   16 1    
    31   15   74 1    
    32   15   75 1    
    33   16   17 1    
    34   17   18 1    
    35   17   76 1    
    36   17   77 1    
    37   18   19 1    
    38   18   27 1    
    39   18   78 1    
    40   19   20 am   BACKBONE|DICT|INTERRES
    41   19   79 1    
    42   20   21 2    
    43   20   22 1    
    44   22   23 1    
    45   22   24 1    
    46   22   80 1    
    47   23   81 1    
    48   23   82 1    
    49   23   83 1    
    50   24   25 am   BACKBONE|DICT|INTERRES
    51   24   84 1    
    52   25   26 2    
    53   27   28 2    
    54   27   29 am   BACKBONE|DICT|INTERRES
    55   29   30 1    
    56   29   85 1    
    57   30   31 1    
    58   30   32 1    
    59   30   86 1    
    60   31   87 1    
    61   31   88 1    
    62   31   89 1    
    63   32   33 2    
    64   32   34 am   BACKBONE|DICT|INTERRES
    65   34   35 1    
    66   34   90 1    
    67   35   36 1    
    68   35   37 1    
    69   35   91 1    
    70   36   92 1    
    71   36   93 1    
    72   36   94 1    
    73   37   38 2    
    74   37   39 am   BACKBONE|DICT|INTERRES
    75   39   40 1    
    76   39   95 1    
    77   40   41 1    
    78   40   42 1    
    79   40   96 1    
    80   41   97 1    
    81   41   98 1    
    82   41   99 1    
    83   42   43 2    
    84   42   44 am   BACKBONE|DICT|INTERRES
    85   44   45 1    
    86   44  100 1    
    87   45   46 1    
    88   45   47 1    
    89   45  101 1    
    90   46  102 1    
    91   46  103 1    
    92   46  104 1    
    93   47   48 2    
    94   47   49 am   BACKBONE|DICT|INTERRES
    95   49   50 1    
    96   49  105 1    
    97   50   51 1    
    98   50   52 1    
    99   50  106 1    
   100   51  107 1    
   101   51  108 1    
   102   51  109 1    
   103   52   53 2    
   104   52   54 am   BACKBONE|DICT|INTERRES
   105   54   55 1    
   106   54  110 1    
   107   55   56 1    
   108   55   59 1    
   109   55  111 1    
   110   56   57 am   BACKBONE|DICT|INTERRES
   111   56   58 2    
   112   57  112 1    
   113   57  113 1    
   114   59   60 1    
   115   59  114 1    
   116   59  115 1    
   117   60   61 1    
   118   61  116 1    
   119   61  117 1    
@<TRIPOS>SUBSTRUCTURE
     1 UNK         1 GROUP             0       ****    0 ROOT    
