@<TRIPOS>MOLECULE
3R8
117   119    1
SMALL
USER_CHARGES


@<TRIPOS>ATOM
      1 CA         13.8132  -23.7737  -46.8255 C.3       0 UNK        -0.2013 
      2 C          15.2501  -24.2585  -46.9482 C.2       0 UNK         0.4866 
      3 O          16.0526  -23.6279  -47.6378 O.2       0 UNK        -0.5176 
      4 N          15.5787  -25.3786  -46.2931 N.am      1 UNK        -0.4884 
      5 CA         16.9233  -25.9635  -46.2588 C.3       1 UNK         0.0853 
      6 C6         16.9117  -27.3977  -45.6791 C.3       10 UNK        -0.0849 
      7 S7         15.9573  -28.5801  -46.6880 S.3       10 UNK        -0.2776 
      8 C8         15.1543  -29.5972  -45.4036 C.3       10 UNK         0.0316 
      9 C9         16.1646  -30.2044  -44.4374 C.ar      10 UNK        -0.0863 
     10 C10        16.9827  -31.2641  -44.8435 C.ar      10 UNK        -0.1009 
     11 C11        17.9297  -31.8050  -43.9678 C.ar      10 UNK        -0.0712 
     12 C12        18.0448  -31.2829  -42.6753 C.ar      10 UNK        -0.0894 
     13 C13        17.2301  -30.2287  -42.2554 C.ar      10 UNK        -0.0745 
     14 C14        16.2882  -29.6963  -43.1395 C.ar      10 UNK        -0.0972 
     15 C15        17.3584  -29.6836  -40.8398 C.3       10 UNK         0.0209 
     16 S16        18.9715  -28.8909  -40.5471 S.3       10 UNK        -0.2568 
     17 C17        18.7821  -27.2938  -41.4115 C.3       10 UNK        -0.0983 
     18 CA         20.1295  -26.7660  -41.9731 C.3       3 UNK         0.0876 
     19 N          19.9076  -25.7768  -43.0314 N.am      3 UNK        -0.4424 
     20 C          20.7626  -25.4776  -44.0170 C.2       2 UNK         0.4918 
     21 O          21.8761  -25.9934  -44.1301 O.2       2 UNK        -0.4875 
     22 CA         20.2636  -24.4689  -45.0690 C.3       2 UNK         0.0481 
     23 CB         21.3754  -24.0329  -46.0411 C.3       2 UNK        -0.1831 
     24 N          19.1577  -25.0488  -45.8341 N.am      2 UNK        -0.4498 
     25 C          17.8847  -25.0986  -45.4207 C.2       1 UNK         0.5027 
     26 O          17.4863  -24.5708  -44.3780 O.2       1 UNK        -0.4969 
     27 C          21.0963  -26.2296  -40.8893 C.2       3 UNK         0.5005 
     28 O          20.7100  -26.0518  -39.7316 O.2       3 UNK        -0.5279 
     29 N          22.3462  -25.9704  -41.2924 N.am      4 UNK        -0.4463 
     30 CA         23.4854  -25.7428  -40.4028 C.3       4 UNK         0.0283 
     31 CB         24.6230  -25.0950  -41.2087 C.3       4 UNK        -0.1875 
     32 C          23.9511  -27.0775  -39.8001 C.2       4 UNK         0.4949 
     33 O          23.7328  -28.1248  -40.4103 O.2       4 UNK        -0.5039 
     34 N          24.6306  -27.0289  -38.6473 N.am      5 UNK        -0.4663 
     35 CA         25.0898  -28.2099  -37.8986 C.3       5 UNK         0.0242 
     36 CB         25.7814  -27.7530  -36.6040 C.3       5 UNK        -0.1982 
     37 C          26.0054  -29.1667  -38.6885 C.2       5 UNK         0.5017 
     38 O          25.9571  -30.3748  -38.4570 O.2       5 UNK        -0.5012 
     39 N          26.7992  -28.6139  -39.6152 N.am      6 UNK        -0.4439 
     40 CA         27.6681  -29.3653  -40.5245 C.3       6 UNK         0.0297 
     41 CB         28.8558  -28.4728  -40.9225 C.3       6 UNK        -0.2006 
     42 C          26.9441  -29.8780  -41.7856 C.2       6 UNK         0.4892 
     43 O          27.4807  -30.7612  -42.4556 O.2       6 UNK        -0.5089 
     44 N          25.7745  -29.3094  -42.1096 N.am      7 UNK        -0.4243 
     45 CA         25.0001  -29.6135  -43.3167 C.3       7 UNK         0.0196 
     46 CB         24.4796  -28.2952  -43.9132 C.3       7 UNK        -0.2007 
     47 C          23.8244  -30.5646  -43.0421 C.2       7 UNK         0.5020 
     48 O          23.3799  -31.2439  -43.9680 O.2       7 UNK        -0.5147 
     49 N          23.3246  -30.5777  -41.7986 N.am      8 UNK        -0.4734 
     50 CA         22.1829  -31.3664  -41.3338 C.3       8 UNK         0.0238 
     51 CB         21.9420  -31.0625  -39.8460 C.3       8 UNK        -0.1912 
     52 C          22.3596  -32.8798  -41.5535 C.2       8 UNK         0.5038 
     53 O          23.4076  -33.4339  -41.2142 O.2       8 UNK        -0.5046 
     54 N          21.3149  -33.5093  -42.0992 N.am      9 UNK        -0.4200 
     55 CA         21.2257  -34.9463  -42.3968 C.3       9 UNK         0.0839 
     56 C          20.8813  -35.8472  -41.1742 C.2       9 UNK         0.5513 
     57 N          20.5920  -35.2997  -39.9995 N.am      9 UNK        -0.7519 
     58 O          20.8933  -37.0699  -41.2914 O.2       9 UNK        -0.4960 
     59 C59        20.2891  -35.2062  -43.6112 C.3       10 UNK        -0.0876 
     60 S60        18.6354  -34.4404  -43.4426 S.3       10 UNK        -0.2414 
     61 C61        18.8587  -32.9208  -44.4247 C.3       10 UNK         0.0169 
     62 H62        13.2119  -24.4330  -46.1998 H         1 UNK         0.0903 
     63 H63        13.7903  -22.7764  -46.3870 H         1 UNK         0.0903 
     64 H64        13.3484  -23.7241  -47.8099 H         1 UNK         0.0903 
     65 H65        14.8830  -25.8521  -45.7350 H         1 UNK         0.3096 
     66 H66        17.2986  -26.0026  -47.2842 H         1 UNK         0.1121 
     67 H67        16.5115  -27.3768  -44.6642 H         1 UNK         0.0849 
     68 H68        17.9259  -27.7949  -45.5948 H         1 UNK         0.0849 
     69 H69        14.4241  -28.9879  -44.8686 H         1 UNK         0.0865 
     70 H70        14.5877  -30.3956  -45.8851 H         1 UNK         0.0865 
     71 H71        16.8930  -31.6516  -45.8493 H         1 UNK         0.1346 
     72 H72        18.7699  -31.6943  -41.9884 H         1 UNK         0.1412 
     73 H73        15.6550  -28.8803  -42.8185 H         1 UNK         0.1426 
     74 H74        17.2414  -30.5073  -40.1342 H         1 UNK         0.0716 
     75 H75        16.5610  -28.9734  -40.6150 H         1 UNK         0.0716 
     76 H76        18.3121  -26.5700  -40.7433 H         1 UNK         0.0695 
     77 H77        18.0799  -27.4425  -42.2334 H         1 UNK         0.0695 
     78 H78        20.6344  -27.6180  -42.4361 H         1 UNK         0.0983 
     79 H79        19.0125  -25.3019  -43.0260 H         1 UNK         0.3095 
     80 H80        19.9162  -23.5785  -44.5406 H         1 UNK         0.0454 
     81 H81        22.2120  -23.5874  -45.5012 H         1 UNK         0.0851 
     82 H82        21.0135  -23.2859  -46.7478 H         1 UNK         0.0851 
     83 H83        21.7689  -24.8736  -46.6139 H         1 UNK         0.0851 
     84 H84        19.4142  -25.5393  -46.6795 H         1 UNK         0.2976 
     85 H85        22.5520  -26.1112  -42.2765 H         1 UNK         0.3116 
     86 H86        23.1851  -25.0697  -39.5970 H         1 UNK         0.0646 
     87 H87        25.4808  -24.8752  -40.5720 H         1 UNK         0.0847 
     88 H88        24.9717  -25.7434  -42.0136 H         1 UNK         0.0847 
     89 H89        24.3046  -24.1525  -41.6546 H         1 UNK         0.0847 
     90 H90        24.7894  -26.1295  -38.2146 H         1 UNK         0.3040 
     91 H91        24.2001  -28.7821  -37.6255 H         1 UNK         0.1015 
     92 H92        26.1133  -28.6094  -36.0149 H         1 UNK         0.0786 
     93 H93        25.1053  -27.1739  -35.9747 H         1 UNK         0.0786 
     94 H94        26.6594  -27.1393  -36.8097 H         1 UNK         0.0786 
     95 H95        26.7766  -27.6100  -39.7224 H         1 UNK         0.3172 
     96 H96        28.0643  -30.2366  -39.9983 H         1 UNK         0.0595 
     97 H97        28.5309  -27.5817  -41.4612 H         1 UNK         0.0839 
     98 H98        29.5481  -29.0105  -41.5721 H         1 UNK         0.0839 
     99 H99        29.4215  -28.1504  -40.0480 H         1 UNK         0.0839 
    100 H100       25.3517  -28.6546  -41.4619 H         1 UNK         0.2998 
    101 H101       25.6407  -30.0903  -44.0618 H         1 UNK         0.0822 
    102 H102       23.9180  -28.4744  -44.8311 H         1 UNK         0.0787 
    103 H103       23.8133  -27.7779  -43.2229 H         1 UNK         0.0787 
    104 H104       25.2980  -27.6192  -44.1608 H         1 UNK         0.0787 
    105 H105       23.7010  -29.9095  -41.1337 H         1 UNK         0.3055 
    106 H106       21.3137  -31.0234  -41.8991 H         1 UNK         0.1106 
    107 H107       21.7640  -29.9994  -39.6815 H         1 UNK         0.0828 
    108 H108       21.0677  -31.5962  -39.4715 H         1 UNK         0.0828 
    109 H109       22.7954  -31.3558  -39.2328 H         1 UNK         0.0828 
    110 H110       20.4847  -32.9845  -42.3242 H         1 UNK         0.2931 
    111 H111       22.2222  -35.2688  -42.7052 H         1 UNK         0.0412 
    112 H112       20.3776  -35.8974  -39.2165 H         1 UNK         0.3472 
    113 H113       20.5858  -34.2995  -39.8875 H         1 UNK         0.3472 
    114 H114       20.7627  -34.8333  -44.5207 H         1 UNK         0.0970 
    115 H115       20.1604  -36.2769  -43.7811 H         1 UNK         0.0970 
    116 H116       19.8867  -32.5649  -44.3451 H         1 UNK         0.0612 
    117 H117       18.6984  -33.1582  -45.4775 H         1 UNK         0.0612 
@<TRIPOS>BOND
     1    1    2 1    
     2    1   62 1    
     3    1   63 1    
     4    1   64 1    
     5    2    3 2    
     6    2    4 am   BACKBONE|DICT|INTERRES
     7    4    5 1    
     8    4   65 1    
     9    5    6 1    
    10    5   25 1    
    11    5   66 1    
    12    6    7 1    
    13    6   67 1    
    14    6   68 1    
    15    7    8 1    
    16    8    9 1    
    17    8   69 1    
    18    8   70 1    
    19    9   10 ar   
    20    9   14 ar   
    21   10   11 ar   
    22   10   71 1    
    23   11   12 ar   
    24   11   61 1    
    25   12   13 ar   
    26   12   72 1    
    27   13   14 ar   
    28   13   15 1    
    29   14   73 1    
    30   15   16 1    
    31   15   74 1    
    32   15   75 1    
    33   16   17 1    
    34   17   18 1    
    35   17   76 1    
    36   17   77 1    
    37   18   19 1    
    38   18   27 1    
    39   18   78 1    
    40   19   20 am   BACKBONE|DICT|INTERRES
    41   19   79 1    
    42   20   21 2    
    43   20   22 1    
    44   22   23 1    
    45   22   24 1    
    46   22   80 1    
    47   23   81 1    
    48   23   82 1    
    49   23   83 1    
    50   24   25 am   BACKBONE|DICT|INTERRES
    51   24   84 1    
    52   25   26 2    
    53   27   28 2    
    54   27   29 am   BACKBONE|DICT|INTERRES
    55   29   30 1    
    56   29   85 1    
    57   30   31 1    
    58   30   32 1    
    59   30   86 1    
    60   31   87 1    
    61   31   88 1    
    62   31   89 1    
    63   32   33 2    
    64   32   34 am   BACKBONE|DICT|INTERRES
    65   34   35 1    
    66   34   90 1    
    67   35   36 1    
    68   35   37 1    
    69   35   91 1    
    70   36   92 1    
    71   36   93 1    
    72   36   94 1    
    73   37   38 2    
    74   37   39 am   BACKBONE|DICT|INTERRES
    75   39   40 1    
    76   39   95 1    
    77   40   41 1    
    78   40   42 1    
    79   40   96 1    
    80   41   97 1    
    81   41   98 1    
    82   41   99 1    
    83   42   43 2    
    84   42   44 am   BACKBONE|DICT|INTERRES
    85   44   45 1    
    86   44  100 1    
    87   45   46 1    
    88   45   47 1    
    89   45  101 1    
    90   46  102 1    
    91   46  103 1    
    92   46  104 1    
    93   47   48 2    
    94   47   49 am   BACKBONE|DICT|INTERRES
    95   49   50 1    
    96   49  105 1    
    97   50   51 1    
    98   50   52 1    
    99   50  106 1    
   100   51  107 1    
   101   51  108 1    
   102   51  109 1    
   103   52   53 2    
   104   52   54 am   BACKBONE|DICT|INTERRES
   105   54   55 1    
   106   54  110 1    
   107   55   56 1    
   108   55   59 1    
   109   55  111 1    
   110   56   57 am   BACKBONE|DICT|INTERRES
   111   56   58 2    
   112   57  112 1    
   113   57  113 1    
   114   59   60 1    
   115   59  114 1    
   116   59  115 1    
   117   60   61 1    
   118   61  116 1    
   119   61  117 1    
@<TRIPOS>SUBSTRUCTURE
     1 UNK         1 GROUP             0       ****    0 ROOT    
