@<TRIPOS>MOLECULE
3R8
117   119    1
SMALL
USER_CHARGES


@<TRIPOS>ATOM
      1 CA         15.6800  -30.8219  -40.6508 C.3       0 UNK        -0.2013 
      2 C          15.3235  -29.4155  -40.1839 C.2       0 UNK         0.4866 
      3 O          14.7373  -29.2778  -39.1118 O.2       0 UNK        -0.5176 
      4 N          15.6209  -28.3403  -40.9281 N.am      1 UNK        -0.4884 
      5 CA         16.3708  -28.2199  -42.1879 C.3       1 UNK         0.0853 
      6 C6         15.8953  -29.1662  -43.3248 C.3       10 UNK        -0.0849 
      7 S7         15.9476  -28.3578  -44.9603 S.3       10 UNK        -0.2776 
      8 C8         16.5183  -29.7074  -46.0415 C.3       10 UNK         0.0316 
      9 C9         18.0361  -29.8112  -46.0656 C.ar      10 UNK        -0.0863 
     10 C10        18.7005  -30.7214  -45.2404 C.ar      10 UNK        -0.1009 
     11 C11        20.0964  -30.8197  -45.2611 C.ar      10 UNK        -0.0712 
     12 C12        20.8249  -30.0157  -46.1450 C.ar      10 UNK        -0.0894 
     13 C13        20.1678  -29.1314  -47.0057 C.ar      10 UNK        -0.0745 
     14 C14        18.7759  -29.0208  -46.9482 C.ar      10 UNK        -0.0972 
     15 C15        20.9439  -28.3368  -48.0443 C.3       10 UNK         0.0209 
     16 S16        21.1621  -26.6014  -47.5568 S.3       10 UNK        -0.2568 
     17 C17        22.6843  -26.6787  -46.5595 C.3       10 UNK        -0.0983 
     18 CA         22.5631  -25.8750  -45.2353 C.3       3 UNK         0.0876 
     19 N          21.8302  -26.6049  -44.1953 N.am      3 UNK        -0.4424 
     20 C          20.5303  -26.4769  -43.9144 C.2       2 UNK         0.4918 
     21 O          19.7425  -25.7599  -44.5360 O.2       2 UNK        -0.4875 
     22 CA         20.0500  -27.2149  -42.6606 C.3       2 UNK         0.0481 
     23 CB         20.3601  -26.3580  -41.4144 C.3       2 UNK        -0.1831 
     24 N          18.6143  -27.4485  -42.7553 N.am      2 UNK        -0.4498 
     25 C          17.8975  -28.2521  -41.9617 C.2       1 UNK         0.5027 
     26 O          18.3875  -28.9628  -41.0768 O.2       1 UNK        -0.4969 
     27 C          23.9302  -25.4130  -44.6811 C.2       3 UNK         0.5005 
     28 O          24.9063  -25.3420  -45.4298 O.2       3 UNK        -0.5279 
     29 N          23.9903  -25.1147  -43.3728 N.am      4 UNK        -0.4463 
     30 CA         25.1376  -24.6453  -42.5761 C.3       4 UNK         0.0283 
     31 CB         25.6734  -23.2943  -43.0879 C.3       4 UNK        -0.1875 
     32 C          26.2765  -25.6700  -42.4178 C.2       4 UNK         0.4949 
     33 O          26.7214  -25.9047  -41.2947 O.2       4 UNK        -0.5039 
     34 N          26.7115  -26.2801  -43.5275 N.am      5 UNK        -0.4663 
     35 CA         27.6822  -27.3803  -43.5694 C.3       5 UNK         0.0242 
     36 CB         28.1614  -27.5721  -45.0171 C.3       5 UNK        -0.1982 
     37 C          27.1101  -28.6965  -43.0105 C.2       5 UNK         0.5017 
     38 O          27.8715  -29.5421  -42.5401 O.2       5 UNK        -0.5012 
     39 N          25.7811  -28.8241  -43.0561 N.am      6 UNK        -0.4439 
     40 CA         24.9771  -29.8365  -42.3893 C.3       6 UNK         0.0297 
     41 CB         24.5043  -30.8793  -43.4135 C.3       6 UNK        -0.2006 
     42 C          23.7881  -29.0983  -41.7687 C.2       6 UNK         0.4892 
     43 O          23.3092  -28.1253  -42.3615 O.2       6 UNK        -0.5089 
     44 N          23.3376  -29.5626  -40.6017 N.am      7 UNK        -0.4243 
     45 CA         22.2219  -28.9945  -39.8545 C.3       7 UNK         0.0196 
     46 CB         22.6950  -27.7775  -39.0372 C.3       7 UNK        -0.2007 
     47 C          21.6167  -30.0695  -38.9525 C.2       7 UNK         0.5020 
     48 O          22.3024  -31.0420  -38.6257 O.2       7 UNK        -0.5147 
     49 N          20.3457  -29.8642  -38.5729 N.am      8 UNK        -0.4734 
     50 CA         19.4945  -30.7898  -37.8103 C.3       8 UNK         0.0238 
     51 CB         20.0120  -30.9609  -36.3653 C.3       8 UNK        -0.1912 
     52 C          19.3104  -32.1272  -38.5539 C.2       8 UNK         0.5038 
     53 O          19.4381  -33.1983  -37.9585 O.2       8 UNK        -0.5046 
     54 N          19.0479  -32.0168  -39.8617 N.am      9 UNK        -0.4200 
     55 CA         19.0021  -33.1142  -40.8404 C.3       9 UNK         0.0839 
     56 C          17.8337  -34.1355  -40.6790 C.2       9 UNK         0.5513 
     57 N          16.9349  -33.9890  -39.7140 N.am      9 UNK        -0.7519 
     58 O          17.7446  -35.0900  -41.4485 O.2       9 UNK        -0.4960 
     59 C59        19.0579  -32.5496  -42.2830 C.3       10 UNK        -0.0876 
     60 S60        20.5499  -31.5375  -42.5991 S.3       10 UNK        -0.2414 
     61 C61        20.8209  -31.8295  -44.3779 C.3       10 UNK         0.0169 
     62 H62        15.6321  -31.5155  -39.8116 H         1 UNK         0.0903 
     63 H63        16.6852  -30.8717  -41.0590 H         1 UNK         0.0903 
     64 H64        14.9730  -31.1670  -41.4047 H         1 UNK         0.0903 
     65 H65        15.3545  -27.4452  -40.5409 H         1 UNK         0.3096 
     66 H66        16.1377  -27.1987  -42.4964 H         1 UNK         0.1121 
     67 H67        16.4679  -30.0942  -43.3399 H         1 UNK         0.0849 
     68 H68        14.8557  -29.4562  -43.1654 H         1 UNK         0.0849 
     69 H69        16.0677  -30.6520  -45.7325 H         1 UNK         0.0865 
     70 H70        16.1525  -29.5207  -47.0525 H         1 UNK         0.0865 
     71 H71        18.1249  -31.3608  -44.5911 H         1 UNK         0.1346 
     72 H72        21.9019  -30.1018  -46.1885 H         1 UNK         0.1412 
     73 H73        18.2668  -28.3298  -47.6065 H         1 UNK         0.1426 
     74 H74        20.4009  -28.3630  -48.9902 H         1 UNK         0.0716 
     75 H75        21.9140  -28.7939  -48.2452 H         1 UNK         0.0716 
     76 H76        22.9582  -27.7139  -46.3508 H         1 UNK         0.0695 
     77 H77        23.4696  -26.2840  -47.2060 H         1 UNK         0.0695 
     78 H78        22.0354  -24.9431  -45.4507 H         1 UNK         0.0983 
     79 H79        22.3938  -27.2109  -43.5970 H         1 UNK         0.3095 
     80 H80        20.5561  -28.1805  -42.6059 H         1 UNK         0.0454 
     81 H81        19.8897  -25.3759  -41.4779 H         1 UNK         0.0851 
     82 H82        20.0110  -26.8270  -40.4954 H         1 UNK         0.0851 
     83 H83        21.4327  -26.1971  -41.3066 H         1 UNK         0.0851 
     84 H84        18.1627  -26.9350  -43.5033 H         1 UNK         0.2976 
     85 H85        23.1387  -25.2395  -42.8444 H         1 UNK         0.3116 
     86 H86        24.7391  -24.4732  -41.5752 H         1 UNK         0.0646 
     87 H87        26.4560  -22.9138  -42.4303 H         1 UNK         0.0847 
     88 H88        24.8854  -22.5424  -43.1214 H         1 UNK         0.0847 
     89 H89        26.1036  -23.3734  -44.0862 H         1 UNK         0.0847 
     90 H90        26.2697  -26.0075  -44.4041 H         1 UNK         0.3040 
     91 H91        28.5401  -27.1058  -42.9516 H         1 UNK         0.1015 
     92 H92        28.6322  -26.6671  -45.4017 H         1 UNK         0.0786 
     93 H93        27.3377  -27.8313  -45.6837 H         1 UNK         0.0786 
     94 H94        28.8991  -28.3732  -45.0816 H         1 UNK         0.0786 
     95 H95        25.2442  -28.0386  -43.3997 H         1 UNK         0.3172 
     96 H96        25.5531  -30.3231  -41.5991 H         1 UNK         0.0595 
     97 H97        23.8814  -31.6382  -42.9381 H         1 UNK         0.0839 
     98 H98        25.3485  -31.3921  -43.8745 H         1 UNK         0.0839 
     99 H99        23.9154  -30.4213  -44.2093 H         1 UNK         0.0839 
    100 H100       23.7317  -30.4004  -40.1911 H         1 UNK         0.2998 
    101 H101       21.4503  -28.6986  -40.5627 H         1 UNK         0.0822 
    102 H102       21.8668  -27.3223  -38.4931 H         1 UNK         0.0787 
    103 H103       23.4526  -28.0589  -38.3047 H         1 UNK         0.0787 
    104 H104       23.1239  -27.0068  -39.6776 H         1 UNK         0.0787 
    105 H105       19.8724  -29.0438  -38.9310 H         1 UNK         0.3055 
    106 H106       18.5041  -30.3331  -37.7550 H         1 UNK         0.1106 
    107 H107       20.9773  -31.4678  -36.3343 H         1 UNK         0.0828 
    108 H108       20.1227  -29.9978  -35.8666 H         1 UNK         0.0828 
    109 H109       19.3165  -31.5547  -35.7709 H         1 UNK         0.0828 
    110 H110       18.9830  -31.0860  -40.2541 H         1 UNK         0.2931 
    111 H111       19.9116  -33.6987  -40.6863 H         1 UNK         0.0412 
    112 H112       16.1927  -34.6655  -39.6254 H         1 UNK         0.3472 
    113 H113       17.0336  -33.2526  -39.0338 H         1 UNK         0.3472 
    114 H114       18.1756  -31.9392  -42.4734 H         1 UNK         0.0970 
    115 H115       19.0282  -33.3660  -43.0073 H         1 UNK         0.0970 
    116 H116       21.8943  -31.7868  -44.5622 H         1 UNK         0.0612 
    117 H117       20.5152  -32.8395  -44.6524 H         1 UNK         0.0612 
@<TRIPOS>BOND
     1    1    2 1    
     2    1   62 1    
     3    1   63 1    
     4    1   64 1    
     5    2    3 2    
     6    2    4 am   BACKBONE|DICT|INTERRES
     7    4    5 1    
     8    4   65 1    
     9    5    6 1    
    10    5   25 1    
    11    5   66 1    
    12    6    7 1    
    13    6   67 1    
    14    6   68 1    
    15    7    8 1    
    16    8    9 1    
    17    8   69 1    
    18    8   70 1    
    19    9   10 ar   
    20    9   14 ar   
    21   10   11 ar   
    22   10   71 1    
    23   11   12 ar   
    24   11   61 1    
    25   12   13 ar   
    26   12   72 1    
    27   13   14 ar   
    28   13   15 1    
    29   14   73 1    
    30   15   16 1    
    31   15   74 1    
    32   15   75 1    
    33   16   17 1    
    34   17   18 1    
    35   17   76 1    
    36   17   77 1    
    37   18   19 1    
    38   18   27 1    
    39   18   78 1    
    40   19   20 am   BACKBONE|DICT|INTERRES
    41   19   79 1    
    42   20   21 2    
    43   20   22 1    
    44   22   23 1    
    45   22   24 1    
    46   22   80 1    
    47   23   81 1    
    48   23   82 1    
    49   23   83 1    
    50   24   25 am   BACKBONE|DICT|INTERRES
    51   24   84 1    
    52   25   26 2    
    53   27   28 2    
    54   27   29 am   BACKBONE|DICT|INTERRES
    55   29   30 1    
    56   29   85 1    
    57   30   31 1    
    58   30   32 1    
    59   30   86 1    
    60   31   87 1    
    61   31   88 1    
    62   31   89 1    
    63   32   33 2    
    64   32   34 am   BACKBONE|DICT|INTERRES
    65   34   35 1    
    66   34   90 1    
    67   35   36 1    
    68   35   37 1    
    69   35   91 1    
    70   36   92 1    
    71   36   93 1    
    72   36   94 1    
    73   37   38 2    
    74   37   39 am   BACKBONE|DICT|INTERRES
    75   39   40 1    
    76   39   95 1    
    77   40   41 1    
    78   40   42 1    
    79   40   96 1    
    80   41   97 1    
    81   41   98 1    
    82   41   99 1    
    83   42   43 2    
    84   42   44 am   BACKBONE|DICT|INTERRES
    85   44   45 1    
    86   44  100 1    
    87   45   46 1    
    88   45   47 1    
    89   45  101 1    
    90   46  102 1    
    91   46  103 1    
    92   46  104 1    
    93   47   48 2    
    94   47   49 am   BACKBONE|DICT|INTERRES
    95   49   50 1    
    96   49  105 1    
    97   50   51 1    
    98   50   52 1    
    99   50  106 1    
   100   51  107 1    
   101   51  108 1    
   102   51  109 1    
   103   52   53 2    
   104   52   54 am   BACKBONE|DICT|INTERRES
   105   54   55 1    
   106   54  110 1    
   107   55   56 1    
   108   55   59 1    
   109   55  111 1    
   110   56   57 am   BACKBONE|DICT|INTERRES
   111   56   58 2    
   112   57  112 1    
   113   57  113 1    
   114   59   60 1    
   115   59  114 1    
   116   59  115 1    
   117   60   61 1    
   118   61  116 1    
   119   61  117 1    
@<TRIPOS>SUBSTRUCTURE
     1 UNK         1 GROUP             0       ****    0 ROOT    
