@<TRIPOS>MOLECULE
3R8
117   119    1
SMALL
USER_CHARGES


@<TRIPOS>ATOM
      1 CA         14.9208  -22.9908  -43.4751 C.3       0 UNK        -0.2013 
      2 C          15.9557  -24.0969  -43.6146 C.2       0 UNK         0.4866 
      3 O          16.7589  -24.2975  -42.7029 O.2       0 UNK        -0.5176 
      4 N          15.9498  -24.8024  -44.7547 N.am      1 UNK        -0.4884 
      5 CA         16.8084  -25.9376  -45.1381 C.3       1 UNK         0.0853 
      6 C6         16.7071  -27.1603  -44.1886 C.3       10 UNK        -0.0849 
      7 S7         15.0682  -27.9610  -44.2468 S.3       10 UNK        -0.2776 
      8 C8         15.2437  -29.1053  -45.6603 C.3       10 UNK         0.0316 
      9 C9         16.4253  -30.0539  -45.5041 C.ar      10 UNK        -0.0863 
     10 C10        16.4067  -31.0471  -44.5217 C.ar      10 UNK        -0.1009 
     11 C11        17.4981  -31.9026  -44.3406 C.ar      10 UNK        -0.0712 
     12 C12        18.6197  -31.7524  -45.1698 C.ar      10 UNK        -0.0894 
     13 C13        18.6513  -30.7628  -46.1584 C.ar      10 UNK        -0.0745 
     14 C14        17.5472  -29.9236  -46.3273 C.ar      10 UNK        -0.0972 
     15 C15        19.8817  -30.5948  -47.0418 C.3       10 UNK         0.0209 
     16 S16        20.7326  -29.0071  -46.7575 S.3       10 UNK        -0.2568 
     17 C17        21.2230  -29.1736  -45.0113 C.3       10 UNK        -0.0983 
     18 CA         21.9025  -27.9017  -44.4463 C.3       3 UNK         0.0876 
     19 N          21.0558  -26.7063  -44.5815 N.am      3 UNK        -0.4424 
     20 C          21.3300  -25.4702  -44.1375 C.2       2 UNK         0.4918 
     21 O          22.3502  -25.1853  -43.5103 O.2       2 UNK        -0.4875 
     22 CA         20.2925  -24.3578  -44.3934 C.3       2 UNK         0.0481 
     23 CB         20.6772  -23.5215  -45.6288 C.3       2 UNK        -0.1831 
     24 N          18.8925  -24.8060  -44.4569 N.am      2 UNK        -0.4498 
     25 C          18.2864  -25.5681  -45.3764 C.2       1 UNK         0.5027 
     26 O          18.8582  -26.0167  -46.3689 O.2       1 UNK        -0.4969 
     27 C          22.3464  -28.1701  -42.9960 C.2       3 UNK         0.5005 
     28 O          23.5079  -28.5106  -42.7715 O.2       3 UNK        -0.5279 
     29 N          21.4273  -27.9657  -42.0405 N.am      4 UNK        -0.4463 
     30 CA         21.6063  -28.1690  -40.5981 C.3       4 UNK         0.0283 
     31 CB         20.2660  -27.9012  -39.8939 C.3       4 UNK        -0.1875 
     32 C          22.7296  -27.3365  -39.9464 C.2       4 UNK         0.4949 
     33 O          23.1252  -27.6434  -38.8219 O.2       4 UNK        -0.5039 
     34 N          23.2331  -26.3082  -40.6446 N.am      5 UNK        -0.4663 
     35 CA         24.4051  -25.5317  -40.2365 C.3       5 UNK         0.0242 
     36 CB         24.4358  -24.2161  -41.0312 C.3       5 UNK        -0.1982 
     37 C          25.7340  -26.2941  -40.4100 C.2       5 UNK         0.5017 
     38 O          26.7241  -25.8916  -39.7974 O.2       5 UNK        -0.5012 
     39 N          25.7478  -27.3509  -41.2365 N.am      6 UNK        -0.4439 
     40 CA         26.9329  -28.1569  -41.5417 C.3       6 UNK         0.0297 
     41 CB         27.4079  -27.8446  -42.9709 C.3       6 UNK        -0.2006 
     42 C          26.6739  -29.6613  -41.3738 C.2       6 UNK         0.4892 
     43 O          27.5265  -30.3571  -40.8201 O.2       6 UNK        -0.5089 
     44 N          25.5247  -30.1443  -41.8610 N.am      7 UNK        -0.4243 
     45 CA         25.1062  -31.5424  -41.7855 C.3       7 UNK         0.0196 
     46 CB         24.1432  -31.8306  -42.9522 C.3       7 UNK        -0.2007 
     47 C          24.4207  -31.8474  -40.4461 C.2       7 UNK         0.5020 
     48 O          23.9360  -30.9399  -39.7692 O.2       7 UNK        -0.5147 
     49 N          24.3339  -33.1425  -40.1209 N.am      8 UNK        -0.4734 
     50 CA         23.6111  -33.6617  -38.9528 C.3       8 UNK         0.0238 
     51 CB         24.2013  -35.0326  -38.5776 C.3       8 UNK        -0.1912 
     52 C          22.0858  -33.7643  -39.1671 C.2       8 UNK         0.5038 
     53 O          21.3784  -34.1454  -38.2335 O.2       8 UNK        -0.5046 
     54 N          21.6147  -33.4620  -40.3855 N.am      9 UNK        -0.4200 
     55 CA         20.2072  -33.4896  -40.8060 C.3       9 UNK         0.0839 
     56 C          19.3038  -32.5464  -39.9642 C.2       9 UNK         0.5513 
     57 N          18.1359  -33.0117  -39.5429 N.am      9 UNK        -0.7519 
     58 O          19.6394  -31.3885  -39.7289 O.2       9 UNK        -0.4960 
     59 C59        20.0813  -33.1859  -42.3259 C.3       10 UNK        -0.0876 
     60 S60        18.7626  -34.1638  -43.1216 S.3       10 UNK        -0.2414 
     61 C61        17.3998  -32.9523  -43.2298 C.3       10 UNK         0.0169 
     62 H62        15.4155  -22.0295  -43.3384 H         1 UNK         0.0903 
     63 H63        14.2768  -22.9197  -44.3515 H         1 UNK         0.0903 
     64 H64        14.2904  -23.1763  -42.6059 H         1 UNK         0.0903 
     65 H65        15.2703  -24.5492  -45.4594 H         1 UNK         0.3096 
     66 H66        16.4392  -26.2548  -46.1150 H         1 UNK         0.1121 
     67 H67        16.9019  -26.8667  -43.1565 H         1 UNK         0.0849 
     68 H68        17.4745  -27.9014  -44.4147 H         1 UNK         0.0849 
     69 H69        14.3269  -29.6884  -45.7585 H         1 UNK         0.0865 
     70 H70        15.3320  -28.5254  -46.5802 H         1 UNK         0.0865 
     71 H71        15.5390  -31.1425  -43.8825 H         1 UNK         0.1346 
     72 H72        19.4789  -32.3959  -45.0529 H         1 UNK         0.1412 
     73 H73        17.5773  -29.1523  -47.0854 H         1 UNK         0.1426 
     74 H74        19.5789  -30.6494  -48.0883 H         1 UNK         0.0716 
     75 H75        20.5898  -31.4101  -46.8853 H         1 UNK         0.0716 
     76 H76        21.8917  -30.0336  -44.9339 H         1 UNK         0.0695 
     77 H77        20.3355  -29.4177  -44.4243 H         1 UNK         0.0695 
     78 H78        22.8087  -27.7113  -45.0249 H         1 UNK         0.0983 
     79 H79        20.2377  -26.8111  -45.1720 H         1 UNK         0.3095 
     80 H80        20.3383  -23.6953  -43.5277 H         1 UNK         0.0454 
     81 H81        20.6924  -24.1188  -46.5407 H         1 UNK         0.0851 
     82 H82        21.6726  -23.0915  -45.5104 H         1 UNK         0.0851 
     83 H83        19.9838  -22.6944  -45.7799 H         1 UNK         0.0851 
     84 H84        18.3077  -24.5258  -43.6706 H         1 UNK         0.2976 
     85 H85        20.5127  -27.6560  -42.3349 H         1 UNK         0.3116 
     86 H86        21.8640  -29.2199  -40.4509 H         1 UNK         0.0646 
     87 H87        19.4806  -28.5564  -40.2715 H         1 UNK         0.0847 
     88 H88        19.9394  -26.8688  -40.0241 H         1 UNK         0.0847 
     89 H89        20.3450  -28.0864  -38.8217 H         1 UNK         0.0847 
     90 H90        22.8516  -26.1051  -41.5616 H         1 UNK         0.3040 
     91 H91        24.3055  -25.2880  -39.1763 H         1 UNK         0.1015 
     92 H92        25.2601  -23.5811  -40.7036 H         1 UNK         0.0786 
     93 H93        23.5155  -23.6475  -40.8966 H         1 UNK         0.0786 
     94 H94        24.5671  -24.3940  -42.0994 H         1 UNK         0.0786 
     95 H95        24.8778  -27.6292  -41.6818 H         1 UNK         0.3172 
     96 H96        27.7454  -27.9042  -40.8573 H         1 UNK         0.0595 
     97 H97        26.6337  -28.0567  -43.7096 H         1 UNK         0.0839 
     98 H98        28.2828  -28.4415  -43.2321 H         1 UNK         0.0839 
     99 H99        27.6889  -26.7963  -43.0731 H         1 UNK         0.0839 
    100 H100       24.8381  -29.5037  -42.2565 H         1 UNK         0.2998 
    101 H101       25.9844  -32.1841  -41.8872 H         1 UNK         0.0822 
    102 H102       24.5921  -31.5673  -43.9102 H         1 UNK         0.0787 
    103 H103       23.8846  -32.8889  -43.0002 H         1 UNK         0.0787 
    104 H104       23.2125  -31.2698  -42.8562 H         1 UNK         0.0787 
    105 H105       24.7547  -33.8293  -40.7320 H         1 UNK         0.3055 
    106 H106       23.7670  -32.9821  -38.1115 H         1 UNK         0.1106 
    107 H107       24.0601  -35.7654  -39.3729 H         1 UNK         0.0828 
    108 H108       23.7270  -35.4319  -37.6799 H         1 UNK         0.0828 
    109 H109       25.2692  -34.9620  -38.3699 H         1 UNK         0.0828 
    110 H110       22.2794  -33.1356  -41.0680 H         1 UNK         0.2931 
    111 H111       19.8816  -34.5169  -40.6284 H         1 UNK         0.0412 
    112 H112       17.5330  -32.4092  -39.0050 H         1 UNK         0.3472 
    113 H113       17.8516  -33.9583  -39.7423 H         1 UNK         0.3472 
    114 H114       19.9446  -32.1197  -42.5204 H         1 UNK         0.0970 
    115 H115       21.0015  -33.4562  -42.8462 H         1 UNK         0.0970 
    116 H116       17.2989  -32.4436  -42.2706 H         1 UNK         0.0612 
    117 H117       16.4769  -33.5159  -43.3738 H         1 UNK         0.0612 
@<TRIPOS>BOND
     1    1    2 1    
     2    1   62 1    
     3    1   63 1    
     4    1   64 1    
     5    2    3 2    
     6    2    4 am   BACKBONE|DICT|INTERRES
     7    4    5 1    
     8    4   65 1    
     9    5    6 1    
    10    5   25 1    
    11    5   66 1    
    12    6    7 1    
    13    6   67 1    
    14    6   68 1    
    15    7    8 1    
    16    8    9 1    
    17    8   69 1    
    18    8   70 1    
    19    9   10 ar   
    20    9   14 ar   
    21   10   11 ar   
    22   10   71 1    
    23   11   12 ar   
    24   11   61 1    
    25   12   13 ar   
    26   12   72 1    
    27   13   14 ar   
    28   13   15 1    
    29   14   73 1    
    30   15   16 1    
    31   15   74 1    
    32   15   75 1    
    33   16   17 1    
    34   17   18 1    
    35   17   76 1    
    36   17   77 1    
    37   18   19 1    
    38   18   27 1    
    39   18   78 1    
    40   19   20 am   BACKBONE|DICT|INTERRES
    41   19   79 1    
    42   20   21 2    
    43   20   22 1    
    44   22   23 1    
    45   22   24 1    
    46   22   80 1    
    47   23   81 1    
    48   23   82 1    
    49   23   83 1    
    50   24   25 am   BACKBONE|DICT|INTERRES
    51   24   84 1    
    52   25   26 2    
    53   27   28 2    
    54   27   29 am   BACKBONE|DICT|INTERRES
    55   29   30 1    
    56   29   85 1    
    57   30   31 1    
    58   30   32 1    
    59   30   86 1    
    60   31   87 1    
    61   31   88 1    
    62   31   89 1    
    63   32   33 2    
    64   32   34 am   BACKBONE|DICT|INTERRES
    65   34   35 1    
    66   34   90 1    
    67   35   36 1    
    68   35   37 1    
    69   35   91 1    
    70   36   92 1    
    71   36   93 1    
    72   36   94 1    
    73   37   38 2    
    74   37   39 am   BACKBONE|DICT|INTERRES
    75   39   40 1    
    76   39   95 1    
    77   40   41 1    
    78   40   42 1    
    79   40   96 1    
    80   41   97 1    
    81   41   98 1    
    82   41   99 1    
    83   42   43 2    
    84   42   44 am   BACKBONE|DICT|INTERRES
    85   44   45 1    
    86   44  100 1    
    87   45   46 1    
    88   45   47 1    
    89   45  101 1    
    90   46  102 1    
    91   46  103 1    
    92   46  104 1    
    93   47   48 2    
    94   47   49 am   BACKBONE|DICT|INTERRES
    95   49   50 1    
    96   49  105 1    
    97   50   51 1    
    98   50   52 1    
    99   50  106 1    
   100   51  107 1    
   101   51  108 1    
   102   51  109 1    
   103   52   53 2    
   104   52   54 am   BACKBONE|DICT|INTERRES
   105   54   55 1    
   106   54  110 1    
   107   55   56 1    
   108   55   59 1    
   109   55  111 1    
   110   56   57 am   BACKBONE|DICT|INTERRES
   111   56   58 2    
   112   57  112 1    
   113   57  113 1    
   114   59   60 1    
   115   59  114 1    
   116   59  115 1    
   117   60   61 1    
   118   61  116 1    
   119   61  117 1    
@<TRIPOS>SUBSTRUCTURE
     1 UNK         1 GROUP             0       ****    0 ROOT    
