@<TRIPOS>MOLECULE
3R8
117   119    1
SMALL
USER_CHARGES


@<TRIPOS>ATOM
      1 CA         15.7976  -23.1333  -43.8392 C.3       0 UNK        -0.2013 
      2 C          15.6264  -24.3810  -42.9752 C.2       0 UNK         0.4866 
      3 O          15.0358  -24.2899  -41.9004 O.2       0 UNK        -0.5176 
      4 N          16.0992  -25.5639  -43.3935 N.am      1 UNK        -0.4884 
      5 CA         16.8785  -25.8443  -44.6074 C.3       1 UNK         0.0853 
      6 C6         17.0355  -27.3680  -44.8411 C.3       10 UNK        -0.0849 
      7 S7         15.4419  -28.2529  -44.9580 S.3       10 UNK        -0.2776 
      8 C8         15.8127  -29.5502  -46.1881 C.3       10 UNK         0.0316 
      9 C9         17.0581  -30.3505  -45.8263 C.ar      10 UNK        -0.0863 
     10 C10        17.0777  -31.1508  -44.6802 C.ar      10 UNK        -0.1009 
     11 C11        18.2322  -31.8469  -44.3063 C.ar      10 UNK        -0.0712 
     12 C12        19.3742  -31.7440  -45.1137 C.ar      10 UNK        -0.0894 
     13 C13        19.3658  -30.9515  -46.2664 C.ar      10 UNK        -0.0745 
     14 C14        18.2023  -30.2665  -46.6235 C.ar      10 UNK        -0.0972 
     15 C15        20.6299  -30.7979  -47.1022 C.3       10 UNK         0.0209 
     16 S16        21.3305  -29.1175  -46.9834 S.3       10 UNK        -0.2568 
     17 C17        21.5791  -28.9658  -45.1824 C.3       10 UNK        -0.0983 
     18 CA         21.9887  -27.5474  -44.7180 C.3       3 UNK         0.0876 
     19 N          21.0773  -26.5243  -45.2347 N.am      3 UNK        -0.4424 
     20 C          21.3405  -25.2153  -45.3306 C.2       2 UNK         0.4918 
     21 O          22.4158  -24.7081  -45.0131 O.2       2 UNK        -0.4875 
     22 CA         20.2027  -24.3145  -45.8552 C.3       2 UNK         0.0481 
     23 CB         20.4438  -23.9576  -47.3306 C.3       2 UNK        -0.1831 
     24 N          18.8567  -24.8901  -45.7116 N.am      2 UNK        -0.4498 
     25 C          18.2775  -25.1966  -44.5415 C.2       1 UNK         0.5027 
     26 O          18.8310  -25.0389  -43.4513 O.2       1 UNK        -0.4969 
     27 C          22.1088  -27.5367  -43.1770 C.2       3 UNK         0.5005 
     28 O          22.9418  -28.2788  -42.6536 O.2       3 UNK        -0.5279 
     29 N          21.2752  -26.7570  -42.4664 N.am      4 UNK        -0.4463 
     30 CA         21.2307  -26.6846  -41.0016 C.3       4 UNK         0.0283 
     31 CB         20.1837  -25.6488  -40.5631 C.3       4 UNK        -0.1875 
     32 C          22.6024  -26.3685  -40.3797 C.2       4 UNK         0.4949 
     33 O          23.2133  -25.3588  -40.7326 O.2       4 UNK        -0.5039 
     34 N          23.0576  -27.2702  -39.4996 N.am      5 UNK        -0.4663 
     35 CA         24.3573  -27.3065  -38.8133 C.3       5 UNK         0.0242 
     36 CB         24.6216  -26.0116  -38.0158 C.3       5 UNK        -0.1982 
     37 C          25.5565  -27.6886  -39.7060 C.2       5 UNK         0.5017 
     38 O          26.6489  -27.8725  -39.1668 O.2       5 UNK        -0.5012 
     39 N          25.3529  -27.8415  -41.0222 N.am      6 UNK        -0.4439 
     40 CA         26.3330  -28.4098  -41.9500 C.3       6 UNK         0.0297 
     41 CB         26.2387  -27.7124  -43.3179 C.3       6 UNK        -0.2006 
     42 C          26.1041  -29.9228  -42.0753 C.2       6 UNK         0.4892 
     43 O          27.0553  -30.6937  -41.9413 O.2       6 UNK        -0.5089 
     44 N          24.8419  -30.3175  -42.2875 N.am      7 UNK        -0.4243 
     45 CA         24.3742  -31.6977  -42.2056 C.3       7 UNK         0.0196 
     46 CB         23.1866  -31.8872  -43.1633 C.3       7 UNK        -0.2007 
     47 C          23.9469  -32.0082  -40.7653 C.2       7 UNK         0.5020 
     48 O          23.4342  -31.1269  -40.0695 O.2       7 UNK        -0.5147 
     49 N          24.1138  -33.2734  -40.3591 N.am      8 UNK        -0.4734 
     50 CA         23.7547  -33.7778  -39.0267 C.3       8 UNK         0.0238 
     51 CB         24.2906  -35.2099  -38.8657 C.3       8 UNK        -0.1912 
     52 C          22.2457  -33.7303  -38.7220 C.2       8 UNK         0.5038 
     53 O          21.8715  -33.6742  -37.5499 O.2       8 UNK        -0.5046 
     54 N          21.4168  -33.7412  -39.7734 N.am      9 UNK        -0.4200 
     55 CA         19.9634  -33.5434  -39.7043 C.3       9 UNK         0.0839 
     56 C          19.5180  -32.0686  -39.4692 C.2       9 UNK         0.5513 
     57 N          20.4086  -31.0823  -39.4892 N.am      9 UNK        -0.7519 
     58 O          18.3360  -31.8179  -39.2492 O.2       9 UNK        -0.4960 
     59 C59        19.2454  -34.2009  -40.9126 C.3       10 UNK        -0.0876 
     60 S60        19.7325  -33.5104  -42.5337 S.3       10 UNK        -0.2414 
     61 C61        18.1853  -32.6651  -43.0132 C.3       10 UNK         0.0169 
     62 H62        15.1224  -22.3463  -43.5037 H         1 UNK         0.0903 
     63 H63        16.8148  -22.7503  -43.7629 H         1 UNK         0.0903 
     64 H64        15.5698  -23.3295  -44.8858 H         1 UNK         0.0903 
     65 H65        15.9561  -26.3666  -42.7979 H         1 UNK         0.3096 
     66 H66        16.3421  -25.4250  -45.4607 H         1 UNK         0.1121 
     67 H67        17.5953  -27.5461  -45.7611 H         1 UNK         0.0849 
     68 H68        17.6161  -27.8288  -44.0384 H         1 UNK         0.0849 
     69 H69        14.9593  -30.2259  -46.2614 H         1 UNK         0.0865 
     70 H70        15.9196  -29.0868  -47.1703 H         1 UNK         0.0865 
     71 H71        16.1928  -31.2091  -44.0605 H         1 UNK         0.1346 
     72 H72        20.2855  -32.2578  -44.8450 H         1 UNK         0.1412 
     73 H73        18.2034  -29.6426  -47.5072 H         1 UNK         0.1426 
     74 H74        20.4013  -31.0150  -48.1465 H         1 UNK         0.0716 
     75 H75        21.3885  -31.5204  -46.7968 H         1 UNK         0.0716 
     76 H76        22.3396  -29.6928  -44.8957 H         1 UNK         0.0695 
     77 H77        20.6606  -29.2625  -44.6739 H         1 UNK         0.0695 
     78 H78        22.9854  -27.3375  -45.1122 H         1 UNK         0.0983 
     79 H79        20.1834  -26.8578  -45.5600 H         1 UNK         0.3095 
     80 H80        20.2290  -23.3906  -45.2736 H         1 UNK         0.0454 
     81 H81        20.4086  -24.8398  -47.9711 H         1 UNK         0.0851 
     82 H82        21.4236  -23.4972  -47.4659 H         1 UNK         0.0851 
     83 H83        19.7029  -23.2459  -47.6949 H         1 UNK         0.0851 
     84 H84        18.3494  -25.0559  -46.5698 H         1 UNK         0.2976 
     85 H85        20.6179  -26.1664  -42.9623 H         1 UNK         0.3116 
     86 H86        20.9017  -27.6635  -40.6467 H         1 UNK         0.0646 
     87 H87        19.1841  -25.9282  -40.8963 H         1 UNK         0.0847 
     88 H88        20.4057  -24.6585  -40.9632 H         1 UNK         0.0847 
     89 H89        20.1483  -25.5620  -39.4763 H         1 UNK         0.0847 
     90 H90        22.4778  -28.0814  -39.3290 H         1 UNK         0.3040 
     91 H91        24.2732  -28.1178  -38.0880 H         1 UNK         0.1015 
     92 H92        24.8084  -25.1593  -38.6694 H         1 UNK         0.0786 
     93 H93        25.4982  -26.1214  -37.3761 H         1 UNK         0.0786 
     94 H94        23.7800  -25.7633  -37.3692 H         1 UNK         0.0786 
     95 H95        24.4126  -27.7154  -41.3830 H         1 UNK         0.3172 
     96 H96        27.3435  -28.2488  -41.5682 H         1 UNK         0.0595 
     97 H97        25.2735  -27.8693  -43.7983 H         1 UNK         0.0839 
     98 H98        27.0023  -28.0925  -43.9977 H         1 UNK         0.0839 
     99 H99        26.3942  -26.6375  -43.2248 H         1 UNK         0.0839 
    100 H100       24.1158  -29.6059  -42.3562 H         1 UNK         0.2998 
    101 H101       25.1766  -32.3774  -42.5007 H         1 UNK         0.0822 
    102 H102       23.4745  -31.6789  -44.1935 H         1 UNK         0.0787 
    103 H103       22.8187  -32.9135  -43.1346 H         1 UNK         0.0787 
    104 H104       22.3510  -31.2340  -42.9059 H         1 UNK         0.0787 
    105 H105       24.5290  -33.9387  -40.9967 H         1 UNK         0.3055 
    106 H106       24.2472  -33.1414  -38.2879 H         1 UNK         0.1106 
    107 H107       23.8496  -35.8914  -39.5941 H         1 UNK         0.0828 
    108 H108       24.0630  -35.6026  -37.8735 H         1 UNK         0.0828 
    109 H109       25.3739  -35.2451  -38.9833 H         1 UNK         0.0828 
    110 H110       21.8134  -33.7739  -40.7004 H         1 UNK         0.2931 
    111 H111       19.6173  -34.0833  -38.8206 H         1 UNK         0.0412 
    112 H112       20.0907  -30.1416  -39.3250 H         1 UNK         0.3472 
    113 H113       21.3899  -31.2608  -39.6670 H         1 UNK         0.3472 
    114 H114       18.1624  -34.1392  -40.7895 H         1 UNK         0.0970 
    115 H115       19.4687  -35.2687  -40.9274 H         1 UNK         0.0970 
    116 H116       17.3986  -33.4155  -43.1045 H         1 UNK         0.0612 
    117 H117       17.8925  -32.0010  -42.1984 H         1 UNK         0.0612 
@<TRIPOS>BOND
     1    1    2 1    
     2    1   62 1    
     3    1   63 1    
     4    1   64 1    
     5    2    3 2    
     6    2    4 am   BACKBONE|DICT|INTERRES
     7    4    5 1    
     8    4   65 1    
     9    5    6 1    
    10    5   25 1    
    11    5   66 1    
    12    6    7 1    
    13    6   67 1    
    14    6   68 1    
    15    7    8 1    
    16    8    9 1    
    17    8   69 1    
    18    8   70 1    
    19    9   10 ar   
    20    9   14 ar   
    21   10   11 ar   
    22   10   71 1    
    23   11   12 ar   
    24   11   61 1    
    25   12   13 ar   
    26   12   72 1    
    27   13   14 ar   
    28   13   15 1    
    29   14   73 1    
    30   15   16 1    
    31   15   74 1    
    32   15   75 1    
    33   16   17 1    
    34   17   18 1    
    35   17   76 1    
    36   17   77 1    
    37   18   19 1    
    38   18   27 1    
    39   18   78 1    
    40   19   20 am   BACKBONE|DICT|INTERRES
    41   19   79 1    
    42   20   21 2    
    43   20   22 1    
    44   22   23 1    
    45   22   24 1    
    46   22   80 1    
    47   23   81 1    
    48   23   82 1    
    49   23   83 1    
    50   24   25 am   BACKBONE|DICT|INTERRES
    51   24   84 1    
    52   25   26 2    
    53   27   28 2    
    54   27   29 am   BACKBONE|DICT|INTERRES
    55   29   30 1    
    56   29   85 1    
    57   30   31 1    
    58   30   32 1    
    59   30   86 1    
    60   31   87 1    
    61   31   88 1    
    62   31   89 1    
    63   32   33 2    
    64   32   34 am   BACKBONE|DICT|INTERRES
    65   34   35 1    
    66   34   90 1    
    67   35   36 1    
    68   35   37 1    
    69   35   91 1    
    70   36   92 1    
    71   36   93 1    
    72   36   94 1    
    73   37   38 2    
    74   37   39 am   BACKBONE|DICT|INTERRES
    75   39   40 1    
    76   39   95 1    
    77   40   41 1    
    78   40   42 1    
    79   40   96 1    
    80   41   97 1    
    81   41   98 1    
    82   41   99 1    
    83   42   43 2    
    84   42   44 am   BACKBONE|DICT|INTERRES
    85   44   45 1    
    86   44  100 1    
    87   45   46 1    
    88   45   47 1    
    89   45  101 1    
    90   46  102 1    
    91   46  103 1    
    92   46  104 1    
    93   47   48 2    
    94   47   49 am   BACKBONE|DICT|INTERRES
    95   49   50 1    
    96   49  105 1    
    97   50   51 1    
    98   50   52 1    
    99   50  106 1    
   100   51  107 1    
   101   51  108 1    
   102   51  109 1    
   103   52   53 2    
   104   52   54 am   BACKBONE|DICT|INTERRES
   105   54   55 1    
   106   54  110 1    
   107   55   56 1    
   108   55   59 1    
   109   55  111 1    
   110   56   57 am   BACKBONE|DICT|INTERRES
   111   56   58 2    
   112   57  112 1    
   113   57  113 1    
   114   59   60 1    
   115   59  114 1    
   116   59  115 1    
   117   60   61 1    
   118   61  116 1    
   119   61  117 1    
@<TRIPOS>SUBSTRUCTURE
     1 UNK         1 GROUP             0       ****    0 ROOT    
