@<TRIPOS>MOLECULE
3R8
117   119    1
SMALL
USER_CHARGES


@<TRIPOS>ATOM
      1 CA         17.9338  -24.8143  -38.4415 C.3       0 UNK        -0.2013 
      2 C          17.5311  -25.3193  -39.8189 C.2       0 UNK         0.4866 
      3 O          16.3393  -25.4579  -40.0937 O.2       0 UNK        -0.5176 
      4 N          18.5162  -25.5841  -40.6827 N.am      1 UNK        -0.4884 
      5 CA         18.3420  -26.0188  -42.0676 C.3       1 UNK         0.0853 
      6 C6         18.5979  -27.5377  -42.2517 C.3       10 UNK        -0.0849 
      7 S7         17.1996  -28.5787  -41.7244 S.3       10 UNK        -0.2776 
      8 C8         16.5052  -29.0847  -43.3357 C.3       10 UNK         0.0316 
      9 C9         17.3691  -30.1374  -44.0190 C.ar      10 UNK        -0.0863 
     10 C10        17.2403  -31.4807  -43.6600 C.ar      10 UNK        -0.1009 
     11 C11        18.0443  -32.4592  -44.2532 C.ar      10 UNK        -0.0712 
     12 C12        18.9896  -32.0822  -45.2132 C.ar      10 UNK        -0.0894 
     13 C13        19.1198  -30.7421  -45.5932 C.ar      10 UNK        -0.0745 
     14 C14        18.2914  -29.7790  -45.0078 C.ar      10 UNK        -0.0972 
     15 C15        20.1408  -30.3387  -46.6507 C.3       10 UNK         0.0209 
     16 S16        21.8276  -30.1891  -45.9715 S.3       10 UNK        -0.2568 
     17 C17        21.7059  -28.6452  -45.0117 C.3       10 UNK        -0.0983 
     18 CA         22.2641  -27.4138  -45.7758 C.3       3 UNK         0.0876 
     19 N          21.5864  -26.1863  -45.3760 N.am      3 UNK        -0.4424 
     20 C          20.4397  -25.7417  -45.8930 C.2       2 UNK         0.4918 
     21 O          19.8209  -26.3162  -46.7905 O.2       2 UNK        -0.4875 
     22 CA         19.8413  -24.4899  -45.2345 C.3       2 UNK         0.0481 
     23 CB         19.0500  -23.6284  -46.2349 C.3       2 UNK        -0.1831 
     24 N          18.9488  -24.9384  -44.1692 N.am      2 UNK        -0.4498 
     25 C          19.3435  -25.2328  -42.9245 C.2       1 UNK         0.5027 
     26 O          20.4625  -24.9730  -42.4724 O.2       1 UNK        -0.4969 
     27 C          23.7627  -27.2224  -45.5124 C.2       3 UNK         0.5005 
     28 O          24.1244  -26.5222  -44.5623 O.2       3 UNK        -0.5279 
     29 N          24.6103  -27.8923  -46.3052 N.am      4 UNK        -0.4463 
     30 CA         26.0674  -27.9261  -46.1168 C.3       4 UNK         0.0283 
     31 CB         26.7239  -28.6072  -47.3282 C.3       4 UNK        -0.1875 
     32 C          26.4912  -28.6251  -44.8105 C.2       4 UNK         0.4949 
     33 O          27.5469  -28.3076  -44.2640 O.2       4 UNK        -0.5039 
     34 N          25.6427  -29.5406  -44.3256 N.am      5 UNK        -0.4663 
     35 CA         25.7831  -30.2419  -43.0494 C.3       5 UNK         0.0242 
     36 CB         25.1628  -31.6387  -43.2056 C.3       5 UNK        -0.1982 
     37 C          25.1568  -29.4811  -41.8607 C.2       5 UNK         0.5017 
     38 O          25.1886  -30.0052  -40.7465 O.2       5 UNK        -0.5012 
     39 N          24.6173  -28.2756  -42.1051 N.am      6 UNK        -0.4439 
     40 CA         23.9319  -27.3906  -41.1568 C.3       6 UNK         0.0297 
     41 CB         24.8775  -26.9543  -40.0127 C.3       6 UNK        -0.2006 
     42 C          22.5780  -27.9580  -40.6797 C.2       6 UNK         0.4892 
     43 O          21.9246  -28.6870  -41.4279 O.2       6 UNK        -0.5089 
     44 N          22.1499  -27.5535  -39.4751 N.am      7 UNK        -0.4243 
     45 CA         20.8586  -27.8790  -38.8639 C.3       7 UNK         0.0196 
     46 CB         20.7363  -27.1209  -37.5319 C.3       7 UNK        -0.2007 
     47 C          20.6451  -29.3842  -38.6374 C.2       7 UNK         0.5020 
     48 O          21.6053  -30.1023  -38.3527 O.2       7 UNK        -0.5147 
     49 N          19.3768  -29.8139  -38.7276 N.am      8 UNK        -0.4734 
     50 CA         18.8842  -31.1781  -38.4788 C.3       8 UNK         0.0238 
     51 CB         18.9438  -31.5003  -36.9700 C.3       8 UNK        -0.1912 
     52 C          19.5822  -32.2449  -39.3464 C.2       8 UNK         0.5038 
     53 O          19.9592  -33.3040  -38.8404 O.2       8 UNK        -0.5046 
     54 N          19.7524  -31.9218  -40.6346 N.am      9 UNK        -0.4200 
     55 CA         20.4733  -32.7137  -41.6455 C.3       9 UNK         0.0839 
     56 C          22.0186  -32.7587  -41.4463 C.2       9 UNK         0.5513 
     57 N          22.6090  -31.9385  -40.5859 N.am      9 UNK        -0.7519 
     58 O          22.7005  -33.5429  -42.1007 O.2       9 UNK        -0.4960 
     59 C59        19.8836  -34.1372  -41.8886 C.3       10 UNK        -0.0876 
     60 S60        18.0697  -34.2012  -42.0820 S.3       10 UNK        -0.2414 
     61 C61        17.8701  -33.9231  -43.8706 C.3       10 UNK         0.0169 
     62 H62        18.9908  -24.5538  -38.3961 H         1 UNK         0.0903 
     63 H63        17.3587  -23.9251  -38.1843 H         1 UNK         0.0903 
     64 H64        17.7355  -25.5774  -37.6894 H         1 UNK         0.0903 
     65 H65        19.4762  -25.3695  -40.4436 H         1 UNK         0.3096 
     66 H66        17.3357  -25.7710  -42.4140 H         1 UNK         0.1121 
     67 H67        19.4856  -27.8504  -41.7047 H         1 UNK         0.0849 
     68 H68        18.8211  -27.7660  -43.2922 H         1 UNK         0.0849 
     69 H69        16.3802  -28.2100  -43.9759 H         1 UNK         0.0865 
     70 H70        15.5030  -29.4853  -43.1753 H         1 UNK         0.0865 
     71 H71        16.5175  -31.7665  -42.9077 H         1 UNK         0.1346 
     72 H72        19.6213  -32.8303  -45.6722 H         1 UNK         0.1412 
     73 H73        18.3777  -28.7458  -45.3155 H         1 UNK         0.1426 
     74 H74        19.8566  -29.3963  -47.1223 H         1 UNK         0.0716 
     75 H75        20.1495  -31.0847  -47.4468 H         1 UNK         0.0716 
     76 H76        22.2108  -28.7912  -44.0552 H         1 UNK         0.0695 
     77 H77        20.6626  -28.4858  -44.7479 H         1 UNK         0.0695 
     78 H78        22.1217  -27.5434  -46.8516 H         1 UNK         0.0983 
     79 H79        22.0543  -25.6684  -44.6415 H         1 UNK         0.3095 
     80 H80        20.6480  -23.8783  -44.8243 H         1 UNK         0.0454 
     81 H81        18.2100  -24.1709  -46.6705 H         1 UNK         0.0851 
     82 H82        19.6888  -23.3034  -47.0570 H         1 UNK         0.0851 
     83 H83        18.6557  -22.7314  -45.7575 H         1 UNK         0.0851 
     84 H84        18.0204  -25.2086  -44.4625 H         1 UNK         0.2976 
     85 H85        24.2355  -28.4596  -47.0535 H         1 UNK         0.3116 
     86 H86        26.4245  -26.8951  -46.0680 H         1 UNK         0.0646 
     87 H87        26.3939  -29.6407  -47.4405 H         1 UNK         0.0847 
     88 H88        27.8099  -28.6226  -47.2249 H         1 UNK         0.0847 
     89 H89        26.4971  -28.0782  -48.2539 H         1 UNK         0.0847 
     90 H90        24.8044  -29.7374  -44.8540 H         1 UNK         0.3040 
     91 H91        26.8442  -30.3659  -42.8214 H         1 UNK         0.1015 
     92 H92        25.6474  -32.2026  -44.0027 H         1 UNK         0.0786 
     93 H93        24.0986  -31.5785  -43.4370 H         1 UNK         0.0786 
     94 H94        25.2674  -32.2233  -42.2908 H         1 UNK         0.0786 
     95 H95        24.6324  -27.9344  -43.0591 H         1 UNK         0.3172 
     96 H96        23.6856  -26.4952  -41.7295 H         1 UNK         0.0595 
     97 H97        25.0598  -27.7622  -39.3029 H         1 UNK         0.0839 
     98 H98        24.4693  -26.1099  -39.4565 H         1 UNK         0.0839 
     99 H99        25.8435  -26.6332  -40.4027 H         1 UNK         0.0839 
    100 H100       22.7715  -26.9818  -38.9232 H         1 UNK         0.2998 
    101 H101       20.0803  -27.5206  -39.5356 H         1 UNK         0.0822 
    102 H102       20.8465  -26.0456  -37.6709 H         1 UNK         0.0787 
    103 H103       19.7615  -27.2899  -37.0723 H         1 UNK         0.0787 
    104 H104       21.4928  -27.4449  -36.8157 H         1 UNK         0.0787 
    105 H105       18.6653  -29.1427  -38.9851 H         1 UNK         0.3055 
    106 H106       17.8343  -31.1911  -38.7771 H         1 UNK         0.1106 
    107 H107       18.4811  -32.4648  -36.7567 H         1 UNK         0.0828 
    108 H108       18.4130  -30.7514  -36.3824 H         1 UNK         0.0828 
    109 H109       19.9712  -31.5453  -36.6070 H         1 UNK         0.0828 
    110 H110       19.4291  -31.0177  -40.9466 H         1 UNK         0.2931 
    111 H111       20.3405  -32.1527  -42.5705 H         1 UNK         0.0412 
    112 H112       22.0707  -31.2902  -40.0243 H         1 UNK         0.3472 
    113 H113       23.6131  -31.9443  -40.5002 H         1 UNK         0.3472 
    114 H114       20.1448  -34.7946  -41.0578 H         1 UNK         0.0970 
    115 H115       20.3410  -34.5885  -42.7708 H         1 UNK         0.0970 
    116 H116       18.5625  -34.5628  -44.4198 H         1 UNK         0.0612 
    117 H117       16.8668  -34.2383  -44.1598 H         1 UNK         0.0612 
@<TRIPOS>BOND
     1    1    2 1    
     2    1   62 1    
     3    1   63 1    
     4    1   64 1    
     5    2    3 2    
     6    2    4 am   BACKBONE|DICT|INTERRES
     7    4    5 1    
     8    4   65 1    
     9    5    6 1    
    10    5   25 1    
    11    5   66 1    
    12    6    7 1    
    13    6   67 1    
    14    6   68 1    
    15    7    8 1    
    16    8    9 1    
    17    8   69 1    
    18    8   70 1    
    19    9   10 ar   
    20    9   14 ar   
    21   10   11 ar   
    22   10   71 1    
    23   11   12 ar   
    24   11   61 1    
    25   12   13 ar   
    26   12   72 1    
    27   13   14 ar   
    28   13   15 1    
    29   14   73 1    
    30   15   16 1    
    31   15   74 1    
    32   15   75 1    
    33   16   17 1    
    34   17   18 1    
    35   17   76 1    
    36   17   77 1    
    37   18   19 1    
    38   18   27 1    
    39   18   78 1    
    40   19   20 am   BACKBONE|DICT|INTERRES
    41   19   79 1    
    42   20   21 2    
    43   20   22 1    
    44   22   23 1    
    45   22   24 1    
    46   22   80 1    
    47   23   81 1    
    48   23   82 1    
    49   23   83 1    
    50   24   25 am   BACKBONE|DICT|INTERRES
    51   24   84 1    
    52   25   26 2    
    53   27   28 2    
    54   27   29 am   BACKBONE|DICT|INTERRES
    55   29   30 1    
    56   29   85 1    
    57   30   31 1    
    58   30   32 1    
    59   30   86 1    
    60   31   87 1    
    61   31   88 1    
    62   31   89 1    
    63   32   33 2    
    64   32   34 am   BACKBONE|DICT|INTERRES
    65   34   35 1    
    66   34   90 1    
    67   35   36 1    
    68   35   37 1    
    69   35   91 1    
    70   36   92 1    
    71   36   93 1    
    72   36   94 1    
    73   37   38 2    
    74   37   39 am   BACKBONE|DICT|INTERRES
    75   39   40 1    
    76   39   95 1    
    77   40   41 1    
    78   40   42 1    
    79   40   96 1    
    80   41   97 1    
    81   41   98 1    
    82   41   99 1    
    83   42   43 2    
    84   42   44 am   BACKBONE|DICT|INTERRES
    85   44   45 1    
    86   44  100 1    
    87   45   46 1    
    88   45   47 1    
    89   45  101 1    
    90   46  102 1    
    91   46  103 1    
    92   46  104 1    
    93   47   48 2    
    94   47   49 am   BACKBONE|DICT|INTERRES
    95   49   50 1    
    96   49  105 1    
    97   50   51 1    
    98   50   52 1    
    99   50  106 1    
   100   51  107 1    
   101   51  108 1    
   102   51  109 1    
   103   52   53 2    
   104   52   54 am   BACKBONE|DICT|INTERRES
   105   54   55 1    
   106   54  110 1    
   107   55   56 1    
   108   55   59 1    
   109   55  111 1    
   110   56   57 am   BACKBONE|DICT|INTERRES
   111   56   58 2    
   112   57  112 1    
   113   57  113 1    
   114   59   60 1    
   115   59  114 1    
   116   59  115 1    
   117   60   61 1    
   118   61  116 1    
   119   61  117 1    
@<TRIPOS>SUBSTRUCTURE
     1 UNK         1 GROUP             0       ****    0 ROOT    
