@<TRIPOS>MOLECULE
3R8
117   119    1
SMALL
USER_CHARGES


@<TRIPOS>ATOM
      1 CA         19.8886  -27.5018  -42.2031 C.3       0 UNK        -0.2013 
      2 C          19.1133  -26.3007  -42.7064 C.2       0 UNK         0.4866 
      3 O          19.5152  -25.1634  -42.4628 O.2       0 UNK        -0.5176 
      4 N          18.0007  -26.5487  -43.4080 N.am      1 UNK        -0.4884 
      5 CA         17.1029  -25.5117  -43.9358 C.3       1 UNK         0.0853 
      6 C6         15.7483  -26.0980  -44.4014 C.3       10 UNK        -0.0849 
      7 S7         14.8913  -26.9668  -43.0396 S.3       10 UNK        -0.2776 
      8 C8         14.7487  -28.6742  -43.6631 C.3       10 UNK         0.0316 
      9 C9         16.0982  -29.3576  -43.8493 C.ar      10 UNK        -0.0863 
     10 C10        16.8244  -29.8160  -42.7429 C.ar      10 UNK        -0.1009 
     11 C11        18.0484  -30.4745  -42.9162 C.ar      10 UNK        -0.0712 
     12 C12        18.5323  -30.6776  -44.2114 C.ar      10 UNK        -0.0894 
     13 C13        17.8187  -30.2255  -45.3232 C.ar      10 UNK        -0.0745 
     14 C14        16.6029  -29.5646  -45.1367 C.ar      10 UNK        -0.0972 
     15 C15        18.3569  -30.4672  -46.7262 C.3       10 UNK         0.0209 
     16 S16        19.2939  -29.0392  -47.3528 S.3       10 UNK        -0.2568 
     17 C17        20.7601  -29.0611  -46.2660 C.3       10 UNK        -0.0983 
     18 CA         21.7136  -27.8447  -46.4517 C.3       3 UNK         0.0876 
     19 N          21.0133  -26.5723  -46.2637 N.am      3 UNK        -0.4424 
     20 C          20.5492  -25.7981  -47.2543 C.2       2 UNK         0.4918 
     21 O          20.8488  -25.9475  -48.4404 O.2       2 UNK        -0.4875 
     22 CA         19.5062  -24.7389  -46.8535 C.3       2 UNK         0.0481 
     23 CB         18.7194  -24.1869  -48.0618 C.3       2 UNK        -0.1831 
     24 N          18.5993  -25.3286  -45.8662 N.am      2 UNK        -0.4498 
     25 C          17.7736  -24.6707  -45.0433 C.2       1 UNK         0.5027 
     26 O          17.5686  -23.4571  -45.0962 O.2       1 UNK        -0.4969 
     27 C          22.9508  -27.8817  -45.5275 C.2       3 UNK         0.5005 
     28 O          23.7379  -26.9325  -45.5386 O.2       3 UNK        -0.5279 
     29 N          23.1185  -28.9796  -44.7728 N.am      4 UNK        -0.4463 
     30 CA         24.2340  -29.2591  -43.8650 C.3       4 UNK         0.0283 
     31 CB         24.0436  -30.6635  -43.2641 C.3       4 UNK        -0.1875 
     32 C          24.3755  -28.2306  -42.7319 C.2       4 UNK         0.4949 
     33 O          23.3685  -27.7750  -42.1850 O.2       4 UNK        -0.5039 
     34 N          25.6295  -27.9337  -42.3666 N.am      5 UNK        -0.4663 
     35 CA         25.9916  -27.0673  -41.2426 C.3       5 UNK         0.0242 
     36 CB         27.5156  -26.8682  -41.2260 C.3       5 UNK        -0.1982 
     37 C          25.5104  -27.6470  -39.9025 C.2       5 UNK         0.5017 
     38 O          25.5719  -28.8638  -39.7093 O.2       5 UNK        -0.5012 
     39 N          25.0143  -26.7666  -39.0207 N.am      6 UNK        -0.4439 
     40 CA         24.4373  -27.0662  -37.6998 C.3       6 UNK         0.0297 
     41 CB         25.5329  -27.5690  -36.7352 C.3       6 UNK        -0.2006 
     42 C          23.2171  -28.0150  -37.7372 C.2       6 UNK         0.4892 
     43 O          22.8861  -28.6119  -36.7116 O.2       6 UNK        -0.5089 
     44 N          22.5818  -28.1415  -38.9141 N.am      7 UNK        -0.4243 
     45 CA         21.4927  -29.0655  -39.2450 C.3       7 UNK         0.0196 
     46 CB         20.1940  -28.6824  -38.5044 C.3       7 UNK        -0.2007 
     47 C          21.8735  -30.5488  -39.0786 C.2       7 UNK         0.5020 
     48 O          21.0139  -31.3704  -38.7575 O.2       7 UNK        -0.5147 
     49 N          23.1458  -30.8863  -39.3347 N.am      8 UNK        -0.4734 
     50 CA         23.7027  -32.2407  -39.2366 C.3       8 UNK         0.0238 
     51 CB         25.2283  -32.1315  -39.0547 C.3       8 UNK        -0.1912 
     52 C          23.3119  -33.1510  -40.4226 C.2       8 UNK         0.5038 
     53 O          24.1772  -33.8147  -40.9967 O.2       8 UNK        -0.5046 
     54 N          22.0215  -33.1607  -40.7767 N.am      9 UNK        -0.4200 
     55 CA         21.4330  -33.9892  -41.8397 C.3       9 UNK         0.0839 
     56 C          21.0227  -35.4222  -41.3920 C.2       9 UNK         0.5513 
     57 N          21.1193  -35.7760  -40.1156 N.am      9 UNK        -0.7519 
     58 O          20.6286  -36.2358  -42.2237 O.2       9 UNK        -0.4960 
     59 C59        20.2943  -33.2411  -42.5815 C.3       10 UNK        -0.0876 
     60 S60        18.8855  -32.7473  -41.5200 S.3       10 UNK        -0.2414 
     61 C61        18.8605  -30.9347  -41.7084 C.3       10 UNK         0.0169 
     62 H62        20.0750  -28.2153  -43.0039 H         1 UNK         0.0903 
     63 H63        20.8496  -27.1839  -41.8015 H         1 UNK         0.0903 
     64 H64        19.3313  -27.9973  -41.4093 H         1 UNK         0.0903 
     65 H65        17.6908  -27.5032  -43.5411 H         1 UNK         0.3096 
     66 H66        16.8956  -24.8213  -43.1144 H         1 UNK         0.1121 
     67 H67        15.8849  -26.7685  -45.2510 H         1 UNK         0.0849 
     68 H68        15.0903  -25.2997  -44.7504 H         1 UNK         0.0849 
     69 H69        14.1512  -29.2542  -42.9582 H         1 UNK         0.0865 
     70 H70        14.1846  -28.6675  -44.5973 H         1 UNK         0.0865 
     71 H71        16.4344  -29.6561  -41.7467 H         1 UNK         0.1346 
     72 H72        19.4724  -31.1824  -44.3664 H         1 UNK         0.1412 
     73 H73        16.0464  -29.2213  -45.9985 H         1 UNK         0.1426 
     74 H74        17.5284  -30.6695  -47.4067 H         1 UNK         0.0716 
     75 H75        18.9901  -31.3556  -46.7480 H         1 UNK         0.0716 
     76 H76        21.2854  -29.9990  -46.4564 H         1 UNK         0.0695 
     77 H77        20.4126  -29.0895  -45.2345 H         1 UNK         0.0695 
     78 H78        22.1160  -27.8930  -47.4660 H         1 UNK         0.0983 
     79 H79        20.8247  -26.3098  -45.3076 H         1 UNK         0.3095 
     80 H80        20.0485  -23.9173  -46.3818 H         1 UNK         0.0454 
     81 H81        18.0161  -23.4090  -47.7662 H         1 UNK         0.0851 
     82 H82        18.1565  -24.9739  -48.5647 H         1 UNK         0.0851 
     83 H83        19.3913  -23.7433  -48.7976 H         1 UNK         0.0851 
     84 H84        18.6731  -26.3316  -45.7588 H         1 UNK         0.2976 
     85 H85        22.4124  -29.6973  -44.8277 H         1 UNK         0.3116 
     86 H86        25.1491  -29.2535  -44.4607 H         1 UNK         0.0646 
     87 H87        23.1228  -30.7326  -42.6828 H         1 UNK         0.0847 
     88 H88        24.8657  -30.9188  -42.5935 H         1 UNK         0.0847 
     89 H89        24.0121  -31.4309  -44.0377 H         1 UNK         0.0847 
     90 H90        26.3936  -28.3889  -42.8446 H         1 UNK         0.3040 
     91 H91        25.5125  -26.0991  -41.4046 H         1 UNK         0.1015 
     92 H92        28.0440  -27.8122  -41.0846 H         1 UNK         0.0786 
     93 H93        27.8142  -26.2037  -40.4138 H         1 UNK         0.0786 
     94 H94        27.8689  -26.4203  -42.1551 H         1 UNK         0.0786 
     95 H95        24.9998  -25.7897  -39.2828 H         1 UNK         0.3172 
     96 H96        24.0652  -26.1176  -37.3102 H         1 UNK         0.0595 
     97 H97        25.9033  -28.5538  -37.0222 H         1 UNK         0.0839 
     98 H98        25.1527  -27.6508  -35.7161 H         1 UNK         0.0839 
     99 H99        26.3820  -26.8863  -36.7067 H         1 UNK         0.0839 
    100 H100       22.9508  -27.6178  -39.6975 H         1 UNK         0.2998 
    101 H101       21.3167  -28.9440  -40.3122 H         1 UNK         0.0822 
    102 H102       19.9313  -27.6392  -38.6794 H         1 UNK         0.0787 
    103 H103       19.3533  -29.2879  -38.8439 H         1 UNK         0.0787 
    104 H104       20.2841  -28.8305  -37.4280 H         1 UNK         0.0787 
    105 H105       23.8008  -30.1532  -39.5852 H         1 UNK         0.3055 
    106 H106       23.2984  -32.7118  -38.3378 H         1 UNK         0.1106 
    107 H107       25.7066  -31.6919  -39.9310 H         1 UNK         0.0828 
    108 H108       25.4823  -31.5141  -38.1927 H         1 UNK         0.0828 
    109 H109       25.6779  -33.1120  -38.8925 H         1 UNK         0.0828 
    110 H110       21.3719  -32.6130  -40.2204 H         1 UNK         0.2931 
    111 H111       22.2113  -34.1520  -42.5879 H         1 UNK         0.0412 
    112 H112       21.4356  -35.1154  -39.4244 H         1 UNK         0.3472 
    113 H113       20.8572  -36.7097  -39.8402 H         1 UNK         0.3472 
    114 H114       20.7296  -32.3580  -43.0463 H         1 UNK         0.0970 
    115 H115       19.9099  -33.8447  -43.4058 H         1 UNK         0.0970 
    116 H116       18.4425  -30.5093  -40.7952 H         1 UNK         0.0612 
    117 H117       19.8805  -30.5549  -41.7762 H         1 UNK         0.0612 
@<TRIPOS>BOND
     1    1    2 1    
     2    1   62 1    
     3    1   63 1    
     4    1   64 1    
     5    2    3 2    
     6    2    4 am   BACKBONE|DICT|INTERRES
     7    4    5 1    
     8    4   65 1    
     9    5    6 1    
    10    5   25 1    
    11    5   66 1    
    12    6    7 1    
    13    6   67 1    
    14    6   68 1    
    15    7    8 1    
    16    8    9 1    
    17    8   69 1    
    18    8   70 1    
    19    9   10 ar   
    20    9   14 ar   
    21   10   11 ar   
    22   10   71 1    
    23   11   12 ar   
    24   11   61 1    
    25   12   13 ar   
    26   12   72 1    
    27   13   14 ar   
    28   13   15 1    
    29   14   73 1    
    30   15   16 1    
    31   15   74 1    
    32   15   75 1    
    33   16   17 1    
    34   17   18 1    
    35   17   76 1    
    36   17   77 1    
    37   18   19 1    
    38   18   27 1    
    39   18   78 1    
    40   19   20 am   BACKBONE|DICT|INTERRES
    41   19   79 1    
    42   20   21 2    
    43   20   22 1    
    44   22   23 1    
    45   22   24 1    
    46   22   80 1    
    47   23   81 1    
    48   23   82 1    
    49   23   83 1    
    50   24   25 am   BACKBONE|DICT|INTERRES
    51   24   84 1    
    52   25   26 2    
    53   27   28 2    
    54   27   29 am   BACKBONE|DICT|INTERRES
    55   29   30 1    
    56   29   85 1    
    57   30   31 1    
    58   30   32 1    
    59   30   86 1    
    60   31   87 1    
    61   31   88 1    
    62   31   89 1    
    63   32   33 2    
    64   32   34 am   BACKBONE|DICT|INTERRES
    65   34   35 1    
    66   34   90 1    
    67   35   36 1    
    68   35   37 1    
    69   35   91 1    
    70   36   92 1    
    71   36   93 1    
    72   36   94 1    
    73   37   38 2    
    74   37   39 am   BACKBONE|DICT|INTERRES
    75   39   40 1    
    76   39   95 1    
    77   40   41 1    
    78   40   42 1    
    79   40   96 1    
    80   41   97 1    
    81   41   98 1    
    82   41   99 1    
    83   42   43 2    
    84   42   44 am   BACKBONE|DICT|INTERRES
    85   44   45 1    
    86   44  100 1    
    87   45   46 1    
    88   45   47 1    
    89   45  101 1    
    90   46  102 1    
    91   46  103 1    
    92   46  104 1    
    93   47   48 2    
    94   47   49 am   BACKBONE|DICT|INTERRES
    95   49   50 1    
    96   49  105 1    
    97   50   51 1    
    98   50   52 1    
    99   50  106 1    
   100   51  107 1    
   101   51  108 1    
   102   51  109 1    
   103   52   53 2    
   104   52   54 am   BACKBONE|DICT|INTERRES
   105   54   55 1    
   106   54  110 1    
   107   55   56 1    
   108   55   59 1    
   109   55  111 1    
   110   56   57 am   BACKBONE|DICT|INTERRES
   111   56   58 2    
   112   57  112 1    
   113   57  113 1    
   114   59   60 1    
   115   59  114 1    
   116   59  115 1    
   117   60   61 1    
   118   61  116 1    
   119   61  117 1    
@<TRIPOS>SUBSTRUCTURE
     1 UNK         1 GROUP             0       ****    0 ROOT    
