@<TRIPOS>MOLECULE
3R8
117   119    1
SMALL
USER_CHARGES


@<TRIPOS>ATOM
      1 CA         19.8888  -26.4371  -38.4784 C.3       0 UNK        -0.2013 
      2 C          19.4442  -25.9589  -39.8529 C.2       0 UNK         0.4866 
      3 O          19.1818  -24.7695  -40.0321 O.2       0 UNK        -0.5176 
      4 N          19.3458  -26.8788  -40.8191 N.am      1 UNK        -0.4884 
      5 CA         18.8875  -26.6074  -42.1857 C.3       1 UNK         0.0853 
      6 C6         18.4210  -27.8971  -42.9034 C.3       10 UNK        -0.0849 
      7 S7         17.2116  -28.8721  -41.9376 S.3       10 UNK        -0.2776 
      8 C8         16.5203  -30.0077  -43.1876 C.3       10 UNK         0.0316 
      9 C9         17.6031  -30.6231  -44.0616 C.ar      10 UNK        -0.0863 
     10 C10        18.4324  -31.6309  -43.5667 C.ar      10 UNK        -0.1009 
     11 C11        19.4649  -32.1513  -44.3547 C.ar      10 UNK        -0.0712 
     12 C12        19.6746  -31.6374  -45.6399 C.ar      10 UNK        -0.0894 
     13 C13        18.8585  -30.6179  -46.1434 C.ar      10 UNK        -0.0745 
     14 C14        17.8041  -30.1423  -45.3561 C.ar      10 UNK        -0.0972 
     15 C15        19.1288  -30.0386  -47.5313 C.3       10 UNK         0.0209 
     16 S16        18.8127  -28.2391  -47.6290 S.3       10 UNK        -0.2568 
     17 C17        20.3365  -27.5878  -48.3921 C.3       10 UNK        -0.0983 
     18 CA         21.3388  -26.9657  -47.3851 C.3       3 UNK         0.0876 
     19 N          20.6936  -26.0346  -46.4477 N.am      3 UNK        -0.4424 
     20 C          21.3358  -25.0974  -45.7376 C.2       2 UNK         0.4918 
     21 O          22.5534  -24.9254  -45.7771 O.2       2 UNK        -0.4875 
     22 CA         20.4827  -24.2404  -44.7874 C.3       2 UNK         0.0481 
     23 CB         19.6759  -23.1940  -45.5730 C.3       2 UNK        -0.1831 
     24 N          19.5830  -25.0291  -43.9381 N.am      2 UNK        -0.4498 
     25 C          19.9896  -25.9049  -43.0075 C.2       1 UNK         0.5027 
     26 O          21.1754  -26.1909  -42.8148 O.2       1 UNK        -0.4969 
     27 C          22.2066  -28.0368  -46.6888 C.2       3 UNK         0.5005 
     28 O          23.0990  -28.5936  -47.3302 O.2       3 UNK        -0.5279 
     29 N          21.9660  -28.2820  -45.3926 N.am      4 UNK        -0.4463 
     30 CA         22.8107  -29.1225  -44.5397 C.3       4 UNK         0.0283 
     31 CB         21.9905  -29.5998  -43.3311 C.3       4 UNK        -0.1875 
     32 C          24.0776  -28.3935  -44.0523 C.2       4 UNK         0.4949 
     33 O          24.9944  -29.0607  -43.5735 O.2       4 UNK        -0.5039 
     34 N          24.0958  -27.0542  -44.1665 N.am      5 UNK        -0.4663 
     35 CA         25.0636  -26.1189  -43.5828 C.3       5 UNK         0.0242 
     36 CB         26.4793  -26.3284  -44.1630 C.3       5 UNK        -0.1982 
     37 C          25.0109  -26.1577  -42.0435 C.2       5 UNK         0.5017 
     38 O          26.0472  -26.3074  -41.3928 O.2       5 UNK        -0.5012 
     39 N          23.7854  -26.0305  -41.5094 N.am      6 UNK        -0.4439 
     40 CA         23.3877  -26.1904  -40.1067 C.3       6 UNK         0.0297 
     41 CB         24.2019  -25.2813  -39.1589 C.3       6 UNK        -0.2006 
     42 C          23.3794  -27.6708  -39.6786 C.2       6 UNK         0.4892 
     43 O          23.5166  -28.5586  -40.5210 O.2       6 UNK        -0.5089 
     44 N          23.1418  -27.9171  -38.3816 N.am      7 UNK        -0.4243 
     45 CA         23.0558  -29.2164  -37.6885 C.3       7 UNK         0.0196 
     46 CB         24.3930  -29.9787  -37.7726 C.3       7 UNK        -0.2007 
     47 C          21.8819  -30.1319  -38.0998 C.2       7 UNK         0.5020 
     48 O          21.3779  -30.8594  -37.2436 O.2       7 UNK        -0.5147 
     49 N          21.4628  -30.0762  -39.3714 N.am      8 UNK        -0.4734 
     50 CA         20.4416  -30.9087  -40.0208 C.3       8 UNK         0.0238 
     51 CB         19.0557  -30.7095  -39.3634 C.3       8 UNK        -0.1912 
     52 C          20.8794  -32.3859  -40.1230 C.2       8 UNK         0.5038 
     53 O          22.0799  -32.6676  -40.1514 O.2       8 UNK        -0.5046 
     54 N          19.9092  -33.2984  -40.2256 N.am      9 UNK        -0.4200 
     55 CA         20.0996  -34.7472  -40.3589 C.3       9 UNK         0.0839 
     56 C          18.8276  -35.5115  -39.9056 C.2       9 UNK         0.5513 
     57 N          18.9251  -36.8197  -39.7116 N.am      9 UNK        -0.7519 
     58 O          17.7558  -34.9343  -39.7262 O.2       9 UNK        -0.4960 
     59 C59        20.6037  -35.1707  -41.7713 C.3       10 UNK        -0.0876 
     60 S60        19.5079  -34.6577  -43.1430 S.3       10 UNK        -0.2414 
     61 C61        20.4035  -33.2064  -43.7857 C.3       10 UNK         0.0169 
     62 H62        20.1773  -27.4875  -38.4852 H         1 UNK         0.0903 
     63 H63        20.7373  -25.8498  -38.1296 H         1 UNK         0.0903 
     64 H64        19.0767  -26.3154  -37.7620 H         1 UNK         0.0903 
     65 H65        19.5703  -27.8424  -40.6231 H         1 UNK         0.3096 
     66 H66        18.0316  -25.9316  -42.1180 H         1 UNK         0.1121 
     67 H67        19.2713  -28.5446  -43.1199 H         1 UNK         0.0849 
     68 H68        17.9722  -27.6461  -43.8664 H         1 UNK         0.0849 
     69 H69        15.9618  -30.7976  -42.6834 H         1 UNK         0.0865 
     70 H70        15.7959  -29.4650  -43.7972 H         1 UNK         0.0865 
     71 H71        18.2856  -31.9976  -42.5604 H         1 UNK         0.1346 
     72 H72        20.4904  -32.0154  -46.2408 H         1 UNK         0.1412 
     73 H73        17.1569  -29.3635  -45.7345 H         1 UNK         0.1426 
     74 H74        18.4941  -30.5481  -48.2571 H         1 UNK         0.0716 
     75 H75        20.1598  -30.2454  -47.8216 H         1 UNK         0.0716 
     76 H76        20.0249  -26.8135  -49.0948 H         1 UNK         0.0695 
     77 H77        20.8103  -28.3536  -49.0093 H         1 UNK         0.0695 
     78 H78        22.0429  -26.3745  -47.9759 H         1 UNK         0.0983 
     79 H79        19.6916  -26.1259  -46.3578 H         1 UNK         0.3095 
     80 H80        21.1681  -23.7042  -44.1274 H         1 UNK         0.0454 
     81 H81        20.3301  -22.5900  -46.2034 H         1 UNK         0.0851 
     82 H82        19.1563  -22.5092  -44.9027 H         1 UNK         0.0851 
     83 H83        18.9320  -23.6548  -46.2240 H         1 UNK         0.0851 
     84 H84        18.5939  -24.8531  -44.0457 H         1 UNK         0.2976 
     85 H85        21.2182  -27.7784  -44.9393 H         1 UNK         0.3116 
     86 H86        23.1231  -30.0012  -45.1081 H         1 UNK         0.0646 
     87 H87        21.7349  -28.7759  -42.6649 H         1 UNK         0.0847 
     88 H88        21.0664  -30.0809  -43.6406 H         1 UNK         0.0847 
     89 H89        22.5548  -30.3237  -42.7413 H         1 UNK         0.0847 
     90 H90        23.3007  -26.6123  -44.6113 H         1 UNK         0.3040 
     91 H91        24.7378  -25.1188  -43.8745 H         1 UNK         0.1015 
     92 H92        27.1577  -25.5470  -43.8187 H         1 UNK         0.0786 
     93 H93        26.4698  -26.2929  -45.2524 H         1 UNK         0.0786 
     94 H94        26.9096  -27.2836  -43.8614 H         1 UNK         0.0786 
     95 H95        22.9978  -25.9949  -42.1524 H         1 UNK         0.3172 
     96 H96        22.3526  -25.8537  -40.0725 H         1 UNK         0.0595 
     97 H97        25.2110  -25.6613  -38.9958 H         1 UNK         0.0839 
     98 H98        23.7263  -25.1974  -38.1815 H         1 UNK         0.0839 
     99 H99        24.2866  -24.2698  -39.5562 H         1 UNK         0.0839 
    100 H100       23.0113  -27.1166  -37.7793 H         1 UNK         0.2998 
    101 H101       22.8904  -28.9704  -36.6382 H         1 UNK         0.0822 
    102 H102       24.3626  -30.8848  -37.1659 H         1 UNK         0.0787 
    103 H103       25.2208  -29.3710  -37.4073 H         1 UNK         0.0787 
    104 H104       24.6242  -30.2833  -38.7939 H         1 UNK         0.0787 
    105 H105       22.0533  -29.5288  -39.9951 H         1 UNK         0.3055 
    106 H106       20.3700  -30.5500  -41.0484 H         1 UNK         0.1106 
    107 H107       18.8272  -29.6524  -39.2308 H         1 UNK         0.0828 
    108 H108       18.2584  -31.1255  -39.9800 H         1 UNK         0.0828 
    109 H109       18.9953  -31.1851  -38.3839 H         1 UNK         0.0828 
    110 H110       18.9399  -33.0188  -40.1572 H         1 UNK         0.2931 
    111 H111       20.8705  -35.0239  -39.6368 H         1 UNK         0.0412 
    112 H112       19.7983  -37.3058  -39.8456 H         1 UNK         0.3472 
    113 H113       18.1080  -37.3325  -39.4179 H         1 UNK         0.3472 
    114 H114       20.7230  -36.2540  -41.8226 H         1 UNK         0.0970 
    115 H115       21.6054  -34.7727  -41.9388 H         1 UNK         0.0970 
    116 H116       21.1176  -33.5445  -44.5380 H         1 UNK         0.0612 
    117 H117       20.9896  -32.7417  -42.9936 H         1 UNK         0.0612 
@<TRIPOS>BOND
     1    1    2 1    
     2    1   62 1    
     3    1   63 1    
     4    1   64 1    
     5    2    3 2    
     6    2    4 am   BACKBONE|DICT|INTERRES
     7    4    5 1    
     8    4   65 1    
     9    5    6 1    
    10    5   25 1    
    11    5   66 1    
    12    6    7 1    
    13    6   67 1    
    14    6   68 1    
    15    7    8 1    
    16    8    9 1    
    17    8   69 1    
    18    8   70 1    
    19    9   10 ar   
    20    9   14 ar   
    21   10   11 ar   
    22   10   71 1    
    23   11   12 ar   
    24   11   61 1    
    25   12   13 ar   
    26   12   72 1    
    27   13   14 ar   
    28   13   15 1    
    29   14   73 1    
    30   15   16 1    
    31   15   74 1    
    32   15   75 1    
    33   16   17 1    
    34   17   18 1    
    35   17   76 1    
    36   17   77 1    
    37   18   19 1    
    38   18   27 1    
    39   18   78 1    
    40   19   20 am   BACKBONE|DICT|INTERRES
    41   19   79 1    
    42   20   21 2    
    43   20   22 1    
    44   22   23 1    
    45   22   24 1    
    46   22   80 1    
    47   23   81 1    
    48   23   82 1    
    49   23   83 1    
    50   24   25 am   BACKBONE|DICT|INTERRES
    51   24   84 1    
    52   25   26 2    
    53   27   28 2    
    54   27   29 am   BACKBONE|DICT|INTERRES
    55   29   30 1    
    56   29   85 1    
    57   30   31 1    
    58   30   32 1    
    59   30   86 1    
    60   31   87 1    
    61   31   88 1    
    62   31   89 1    
    63   32   33 2    
    64   32   34 am   BACKBONE|DICT|INTERRES
    65   34   35 1    
    66   34   90 1    
    67   35   36 1    
    68   35   37 1    
    69   35   91 1    
    70   36   92 1    
    71   36   93 1    
    72   36   94 1    
    73   37   38 2    
    74   37   39 am   BACKBONE|DICT|INTERRES
    75   39   40 1    
    76   39   95 1    
    77   40   41 1    
    78   40   42 1    
    79   40   96 1    
    80   41   97 1    
    81   41   98 1    
    82   41   99 1    
    83   42   43 2    
    84   42   44 am   BACKBONE|DICT|INTERRES
    85   44   45 1    
    86   44  100 1    
    87   45   46 1    
    88   45   47 1    
    89   45  101 1    
    90   46  102 1    
    91   46  103 1    
    92   46  104 1    
    93   47   48 2    
    94   47   49 am   BACKBONE|DICT|INTERRES
    95   49   50 1    
    96   49  105 1    
    97   50   51 1    
    98   50   52 1    
    99   50  106 1    
   100   51  107 1    
   101   51  108 1    
   102   51  109 1    
   103   52   53 2    
   104   52   54 am   BACKBONE|DICT|INTERRES
   105   54   55 1    
   106   54  110 1    
   107   55   56 1    
   108   55   59 1    
   109   55  111 1    
   110   56   57 am   BACKBONE|DICT|INTERRES
   111   56   58 2    
   112   57  112 1    
   113   57  113 1    
   114   59   60 1    
   115   59  114 1    
   116   59  115 1    
   117   60   61 1    
   118   61  116 1    
   119   61  117 1    
@<TRIPOS>SUBSTRUCTURE
     1 UNK         1 GROUP             0       ****    0 ROOT    
