@<TRIPOS>MOLECULE
3R8
117   119    1
SMALL
USER_CHARGES


@<TRIPOS>ATOM
      1 CA         13.0023  -24.3723  -42.4005 C.3       0 UNK        -0.2013 
      2 C          14.4101  -24.4932  -42.9649 C.2       0 UNK         0.4866 
      3 O          15.2812  -23.6959  -42.6148 O.2       0 UNK        -0.5176 
      4 N          14.6355  -25.4762  -43.8447 N.am      1 UNK        -0.4884 
      5 CA         15.9382  -25.7933  -44.4383 C.3       1 UNK         0.0853 
      6 C6         15.8014  -26.5944  -45.7645 C.3       10 UNK        -0.0849 
      7 S7         14.5366  -27.9206  -45.8200 S.3       10 UNK        -0.2776 
      8 C8         15.1191  -29.1939  -44.6401 C.3       10 UNK         0.0316 
      9 C9         16.5020  -29.7992  -44.8955 C.ar      10 UNK        -0.0863 
     10 C10        17.1171  -30.5020  -43.8537 C.ar      10 UNK        -0.1009 
     11 C11        18.3737  -31.1016  -44.0220 C.ar      10 UNK        -0.0712 
     12 C12        19.0190  -30.9729  -45.2554 C.ar      10 UNK        -0.0894 
     13 C13        18.4186  -30.2804  -46.3101 C.ar      10 UNK        -0.0745 
     14 C14        17.1554  -29.7124  -46.1302 C.ar      10 UNK        -0.0972 
     15 C15        19.1142  -30.1669  -47.6581 C.3       10 UNK         0.0209 
     16 S16        19.8219  -28.5104  -47.9213 S.3       10 UNK        -0.2568 
     17 C17        21.3526  -28.5894  -46.9329 C.3       10 UNK        -0.0983 
     18 CA         21.6034  -27.2678  -46.1535 C.3       3 UNK         0.0876 
     19 N          20.5923  -26.9905  -45.1259 N.am      3 UNK        -0.4424 
     20 C          20.3901  -27.6819  -43.9919 C.2       2 UNK         0.4918 
     21 O          21.0728  -28.6462  -43.6456 O.2       2 UNK        -0.4875 
     22 CA         19.2384  -27.2295  -43.0809 C.3       2 UNK         0.0481 
     23 CB         19.7627  -26.3772  -41.9119 C.3       2 UNK        -0.1831 
     24 N          18.1839  -26.5212  -43.8101 N.am      2 UNK        -0.4498 
     25 C          16.8981  -26.4756  -43.4381 C.2       1 UNK         0.5027 
     26 O          16.4688  -26.9585  -42.3863 O.2       1 UNK        -0.4969 
     27 C          23.0246  -27.1539  -45.5640 C.2       3 UNK         0.5005 
     28 O          23.5123  -26.0347  -45.3942 O.2       3 UNK        -0.5279 
     29 N          23.6567  -28.2961  -45.2583 N.am      4 UNK        -0.4463 
     30 CA         24.9834  -28.3809  -44.6459 C.3       4 UNK         0.0283 
     31 CB         25.4798  -29.8343  -44.7065 C.3       4 UNK        -0.1875 
     32 C          25.0203  -27.8662  -43.1973 C.2       4 UNK         0.4949 
     33 O          26.0467  -27.3220  -42.7891 O.2       4 UNK        -0.5039 
     34 N          23.9213  -28.0612  -42.4502 N.am      5 UNK        -0.4663 
     35 CA         23.6716  -27.6801  -41.0500 C.3       5 UNK         0.0242 
     36 CB         23.6810  -26.1493  -40.8788 C.3       5 UNK        -0.1982 
     37 C          24.5816  -28.3634  -40.0090 C.2       5 UNK         0.5017 
     38 O          24.0775  -28.9040  -39.0247 O.2       5 UNK        -0.5012 
     39 N          25.8996  -28.3363  -40.2353 N.am      6 UNK        -0.4439 
     40 CA         26.9185  -28.9496  -39.3814 C.3       6 UNK         0.0297 
     41 CB         28.3054  -28.4277  -39.7892 C.3       6 UNK        -0.2006 
     42 C          26.8871  -30.4867  -39.4189 C.2       6 UNK         0.4892 
     43 O          27.1767  -31.1189  -38.4024 O.2       6 UNK        -0.5089 
     44 N          26.5404  -31.0560  -40.5825 N.am      7 UNK        -0.4243 
     45 CA         26.3934  -32.4992  -40.7820 C.3       7 UNK         0.0196 
     46 CB         26.4465  -32.8214  -42.2845 C.3       7 UNK        -0.2007 
     47 C          25.0978  -33.0396  -40.1560 C.2       7 UNK         0.5020 
     48 O          25.1230  -34.0998  -39.5306 O.2       7 UNK        -0.5147 
     49 N          23.9979  -32.2985  -40.3294 N.am      8 UNK        -0.4734 
     50 CA         22.6615  -32.5951  -39.8223 C.3       8 UNK         0.0238 
     51 CB         22.0527  -33.8021  -40.5662 C.3       8 UNK        -0.1912 
     52 C          21.7829  -31.3567  -40.0279 C.2       8 UNK         0.5038 
     53 O          22.0744  -30.5519  -40.9146 O.2       8 UNK        -0.5046 
     54 N          20.7069  -31.2641  -39.2382 N.am      9 UNK        -0.4200 
     55 CA         19.6286  -30.2602  -39.3207 C.3       9 UNK         0.0839 
     56 C          19.9823  -28.8329  -38.8102 C.2       9 UNK         0.5513 
     57 N          21.1996  -28.5504  -38.3694 N.am      9 UNK        -0.7519 
     58 O          19.1133  -27.9664  -38.7709 O.2       9 UNK        -0.4960 
     59 C59        18.9277  -30.2101  -40.7078 C.3       10 UNK        -0.0876 
     60 S60        18.3182  -31.8374  -41.2640 S.3       10 UNK        -0.2414 
     61 C61        19.0589  -31.9333  -42.9318 C.3       10 UNK         0.0169 
     62 H62        12.5871  -23.3920  -42.6333 H         1 UNK         0.0903 
     63 H63        12.3329  -25.1295  -42.8083 H         1 UNK         0.0903 
     64 H64        13.0222  -24.4858  -41.3169 H         1 UNK         0.0903 
     65 H65        13.8918  -26.1163  -44.0870 H         1 UNK         0.3096 
     66 H66        16.4098  -24.8399  -44.6899 H         1 UNK         0.1121 
     67 H67        16.7612  -26.9902  -46.0980 H         1 UNK         0.0849 
     68 H68        15.5178  -25.8904  -46.5485 H         1 UNK         0.0849 
     69 H69        15.0748  -28.7803  -43.6327 H         1 UNK         0.0865 
     70 H70        14.3946  -30.0092  -44.6529 H         1 UNK         0.0865 
     71 H71        16.5940  -30.5890  -42.9126 H         1 UNK         0.1346 
     72 H72        19.9897  -31.4277  -45.3981 H         1 UNK         0.1412 
     73 H73        16.6912  -29.2020  -46.9619 H         1 UNK         0.1426 
     74 H74        19.8957  -30.9214  -47.7622 H         1 UNK         0.0716 
     75 H75        18.3925  -30.3680  -48.4512 H         1 UNK         0.0716 
     76 H76        22.1707  -28.7882  -47.6279 H         1 UNK         0.0695 
     77 H77        21.3087  -29.4421  -46.2548 H         1 UNK         0.0695 
     78 H78        21.5298  -26.4519  -46.8751 H         1 UNK         0.0983 
     79 H79        20.0587  -26.1525  -45.2886 H         1 UNK         0.3095 
     80 H80        18.7979  -28.1408  -42.6780 H         1 UNK         0.0454 
     81 H81        18.9711  -26.1523  -41.1970 H         1 UNK         0.0851 
     82 H82        20.5436  -26.9056  -41.3645 H         1 UNK         0.0851 
     83 H83        20.1842  -25.4328  -42.2572 H         1 UNK         0.0851 
     84 H84        18.4346  -26.1355  -44.7069 H         1 UNK         0.2976 
     85 H85        23.1575  -29.1644  -45.3884 H         1 UNK         0.3116 
     86 H86        25.6657  -27.7621  -45.2327 H         1 UNK         0.0646 
     87 H87        25.5611  -30.1831  -45.7361 H         1 UNK         0.0847 
     88 H88        26.4690  -29.9304  -44.2562 H         1 UNK         0.0847 
     89 H89        24.8099  -30.5110  -44.1751 H         1 UNK         0.0847 
     90 H90        23.1374  -28.5290  -42.8947 H         1 UNK         0.3040 
     91 H91        22.6570  -28.0185  -40.8370 H         1 UNK         0.1015 
     92 H92        24.6652  -25.7213  -41.0707 H         1 UNK         0.0786 
     93 H93        23.3978  -25.8707  -39.8629 H         1 UNK         0.0786 
     94 H94        22.9718  -25.6726  -41.5555 H         1 UNK         0.0786 
     95 H95        26.2080  -27.8761  -41.0911 H         1 UNK         0.3172 
     96 H96        26.7264  -28.6393  -38.3521 H         1 UNK         0.0595 
     97 H97        28.5462  -28.6816  -40.8224 H         1 UNK         0.0839 
     98 H98        29.0850  -28.8557  -39.1574 H         1 UNK         0.0839 
     99 H99        28.3668  -27.3440  -39.6877 H         1 UNK         0.0839 
    100 H100       26.3286  -30.4548  -41.3642 H         1 UNK         0.2998 
    101 H101       27.2344  -33.0018  -40.2985 H         1 UNK         0.0822 
    102 H102       26.3941  -33.8983  -42.4511 H         1 UNK         0.0787 
    103 H103       25.6159  -32.3698  -42.8271 H         1 UNK         0.0787 
    104 H104       27.3751  -32.4700  -42.7349 H         1 UNK         0.0787 
    105 H105       24.0526  -31.4199  -40.8299 H         1 UNK         0.3055 
    106 H106       22.7313  -32.8093  -38.7536 H         1 UNK         0.1106 
    107 H107       21.0344  -34.0002  -40.2289 H         1 UNK         0.0828 
    108 H108       22.0091  -33.6277  -41.6421 H         1 UNK         0.0828 
    109 H109       22.6263  -34.7133  -40.3979 H         1 UNK         0.0828 
    110 H110       20.5691  -31.9714  -38.5313 H         1 UNK         0.2931 
    111 H111       18.8823  -30.6166  -38.6096 H         1 UNK         0.0412 
    112 H112       21.3861  -27.6255  -38.0175 H         1 UNK         0.3472 
    113 H113       21.9592  -29.2114  -38.4539 H         1 UNK         0.3472 
    114 H114       18.0747  -29.5290  -40.6875 H         1 UNK         0.0970 
    115 H115       19.6179  -29.8081  -41.4496 H         1 UNK         0.0970 
    116 H116       20.1122  -31.6545  -42.8655 H         1 UNK         0.0612 
    117 H117       19.0391  -32.9782  -43.2435 H         1 UNK         0.0612 
@<TRIPOS>BOND
     1    1    2 1    
     2    1   62 1    
     3    1   63 1    
     4    1   64 1    
     5    2    3 2    
     6    2    4 am   BACKBONE|DICT|INTERRES
     7    4    5 1    
     8    4   65 1    
     9    5    6 1    
    10    5   25 1    
    11    5   66 1    
    12    6    7 1    
    13    6   67 1    
    14    6   68 1    
    15    7    8 1    
    16    8    9 1    
    17    8   69 1    
    18    8   70 1    
    19    9   10 ar   
    20    9   14 ar   
    21   10   11 ar   
    22   10   71 1    
    23   11   12 ar   
    24   11   61 1    
    25   12   13 ar   
    26   12   72 1    
    27   13   14 ar   
    28   13   15 1    
    29   14   73 1    
    30   15   16 1    
    31   15   74 1    
    32   15   75 1    
    33   16   17 1    
    34   17   18 1    
    35   17   76 1    
    36   17   77 1    
    37   18   19 1    
    38   18   27 1    
    39   18   78 1    
    40   19   20 am   BACKBONE|DICT|INTERRES
    41   19   79 1    
    42   20   21 2    
    43   20   22 1    
    44   22   23 1    
    45   22   24 1    
    46   22   80 1    
    47   23   81 1    
    48   23   82 1    
    49   23   83 1    
    50   24   25 am   BACKBONE|DICT|INTERRES
    51   24   84 1    
    52   25   26 2    
    53   27   28 2    
    54   27   29 am   BACKBONE|DICT|INTERRES
    55   29   30 1    
    56   29   85 1    
    57   30   31 1    
    58   30   32 1    
    59   30   86 1    
    60   31   87 1    
    61   31   88 1    
    62   31   89 1    
    63   32   33 2    
    64   32   34 am   BACKBONE|DICT|INTERRES
    65   34   35 1    
    66   34   90 1    
    67   35   36 1    
    68   35   37 1    
    69   35   91 1    
    70   36   92 1    
    71   36   93 1    
    72   36   94 1    
    73   37   38 2    
    74   37   39 am   BACKBONE|DICT|INTERRES
    75   39   40 1    
    76   39   95 1    
    77   40   41 1    
    78   40   42 1    
    79   40   96 1    
    80   41   97 1    
    81   41   98 1    
    82   41   99 1    
    83   42   43 2    
    84   42   44 am   BACKBONE|DICT|INTERRES
    85   44   45 1    
    86   44  100 1    
    87   45   46 1    
    88   45   47 1    
    89   45  101 1    
    90   46  102 1    
    91   46  103 1    
    92   46  104 1    
    93   47   48 2    
    94   47   49 am   BACKBONE|DICT|INTERRES
    95   49   50 1    
    96   49  105 1    
    97   50   51 1    
    98   50   52 1    
    99   50  106 1    
   100   51  107 1    
   101   51  108 1    
   102   51  109 1    
   103   52   53 2    
   104   52   54 am   BACKBONE|DICT|INTERRES
   105   54   55 1    
   106   54  110 1    
   107   55   56 1    
   108   55   59 1    
   109   55  111 1    
   110   56   57 am   BACKBONE|DICT|INTERRES
   111   56   58 2    
   112   57  112 1    
   113   57  113 1    
   114   59   60 1    
   115   59  114 1    
   116   59  115 1    
   117   60   61 1    
   118   61  116 1    
   119   61  117 1    
@<TRIPOS>SUBSTRUCTURE
     1 UNK         1 GROUP             0       ****    0 ROOT    
