@<TRIPOS>MOLECULE
3R8
117   119    1
SMALL
USER_CHARGES


@<TRIPOS>ATOM
      1 CA         15.5417  -22.7353  -46.7158 C.3       0 UNK        -0.2013 
      2 C          15.9231  -23.7803  -45.6779 C.2       0 UNK         0.4866 
      3 O          15.5242  -23.6614  -44.5195 O.2       0 UNK        -0.5176 
      4 N          16.7015  -24.7935  -46.0864 N.am      1 UNK        -0.4884 
      5 CA         17.1611  -25.9327  -45.2710 C.3       1 UNK         0.0853 
      6 C6         16.0050  -26.8550  -44.7893 C.3       10 UNK        -0.0849 
      7 S7         15.2061  -27.6697  -46.2197 S.3       10 UNK        -0.2776 
      8 C8         15.3549  -29.4546  -45.8494 C.3       10 UNK         0.0316 
      9 C9         16.7456  -29.8911  -45.3954 C.ar      10 UNK        -0.0863 
     10 C10        16.8856  -30.6253  -44.2152 C.ar      10 UNK        -0.1009 
     11 C11        18.1429  -31.0273  -43.7563 C.ar      10 UNK        -0.0712 
     12 C12        19.2788  -30.6697  -44.4971 C.ar      10 UNK        -0.0894 
     13 C13        19.1584  -29.9259  -45.6768 C.ar      10 UNK        -0.0745 
     14 C14        17.8861  -29.5647  -46.1339 C.ar      10 UNK        -0.0972 
     15 C15        20.4018  -29.5113  -46.4557 C.3       10 UNK         0.0209 
     16 S16        20.4746  -27.7027  -46.6941 S.3       10 UNK        -0.2568 
     17 C17        22.1696  -27.2788  -46.1528 C.3       10 UNK        -0.0983 
     18 CA         22.2432  -26.6822  -44.7225 C.3       3 UNK         0.0876 
     19 N          21.2804  -25.5948  -44.5405 N.am      3 UNK        -0.4424 
     20 C          21.1518  -24.7942  -43.4740 C.2       2 UNK         0.4918 
     21 O          21.9280  -24.7928  -42.5181 O.2       2 UNK        -0.4875 
     22 CA         19.9043  -23.8880  -43.4510 C.3       2 UNK         0.0481 
     23 CB         20.2747  -22.4537  -43.8581 C.3       2 UNK        -0.1831 
     24 N          18.8161  -24.3728  -44.3134 N.am      2 UNK        -0.4498 
     25 C          18.1487  -25.5282  -44.1508 C.2       1 UNK         0.5027 
     26 O          18.3567  -26.2900  -43.2059 O.2       1 UNK        -0.4969 
     27 C          22.1544  -27.7893  -43.6504 C.2       3 UNK         0.5005 
     28 O          23.1255  -28.5288  -43.4992 O.2       3 UNK        -0.5279 
     29 N          21.0437  -27.8773  -42.8997 N.am      4 UNK        -0.4463 
     30 CA         20.8367  -28.8302  -41.8037 C.3       4 UNK         0.0283 
     31 CB         19.4417  -28.6186  -41.1981 C.3       4 UNK        -0.1875 
     32 C          21.9069  -28.7856  -40.7006 C.2       4 UNK         0.4949 
     33 O          22.2158  -29.8274  -40.1213 O.2       4 UNK        -0.5039 
     34 N          22.4732  -27.5960  -40.4546 N.am      5 UNK        -0.4663 
     35 CA         23.5766  -27.3852  -39.5156 C.3       5 UNK         0.0242 
     36 CB         23.6734  -25.8878  -39.1836 C.3       5 UNK        -0.1982 
     37 C          24.9258  -27.9076  -40.0416 C.2       5 UNK         0.5017 
     38 O          25.7617  -28.3190  -39.2373 O.2       5 UNK        -0.5012 
     39 N          25.1155  -27.8839  -41.3685 N.am      6 UNK        -0.4439 
     40 CA         26.3139  -28.3823  -42.0480 C.3       6 UNK         0.0297 
     41 CB         26.5085  -27.6291  -43.3746 C.3       6 UNK        -0.2006 
     42 C          26.2299  -29.8969  -42.2873 C.2       6 UNK         0.4892 
     43 O          27.2220  -30.5988  -42.0906 O.2       6 UNK        -0.5089 
     44 N          25.0406  -30.3709  -42.6843 N.am      7 UNK        -0.4243 
     45 CA         24.7067  -31.7848  -42.8650 C.3       7 UNK         0.0196 
     46 CB         23.3650  -31.8850  -43.6092 C.3       7 UNK        -0.2007 
     47 C          24.6413  -32.5658  -41.5405 C.2       7 UNK         0.5020 
     48 O          24.8155  -33.7842  -41.5587 O.2       7 UNK        -0.5147 
     49 N          24.3915  -31.8525  -40.4316 N.am      8 UNK        -0.4734 
     50 CA         24.2207  -32.3473  -39.0620 C.3       8 UNK         0.0238 
     51 CB         25.5307  -32.9630  -38.5258 C.3       8 UNK        -0.1912 
     52 C          23.0079  -33.2872  -38.9474 C.2       8 UNK         0.5038 
     53 O          23.1387  -34.4120  -38.4590 O.2       8 UNK        -0.5046 
     54 N          21.8553  -32.8055  -39.4316 N.am      9 UNK        -0.4200 
     55 CA         20.5660  -33.5124  -39.4071 C.3       9 UNK         0.0839 
     56 C          20.0926  -33.8526  -37.9664 C.2       9 UNK         0.5513 
     57 N          19.4868  -35.0162  -37.7714 N.am      9 UNK        -0.7519 
     58 O          20.2260  -33.0532  -37.0413 O.2       9 UNK        -0.4960 
     59 C59        19.4643  -32.7154  -40.1481 C.3       10 UNK        -0.0876 
     60 S60        19.8257  -32.4317  -41.9125 S.3       10 UNK        -0.2414 
     61 C61        18.1939  -31.8042  -42.4382 C.3       10 UNK         0.0169 
     62 H62        15.9709  -22.9536  -47.6936 H         1 UNK         0.0903 
     63 H63        14.4582  -22.6936  -46.8237 H         1 UNK         0.0903 
     64 H64        15.8910  -21.7512  -46.4042 H         1 UNK         0.0903 
     65 H65        16.9839  -24.8268  -47.0570 H         1 UNK         0.3096 
     66 H66        17.7775  -26.5342  -45.9406 H         1 UNK         0.1121 
     67 H67        15.2549  -26.2896  -44.2353 H         1 UNK         0.0849 
     68 H68        16.3668  -27.6157  -44.0966 H         1 UNK         0.0849 
     69 H69        14.6094  -29.7043  -45.0929 H         1 UNK         0.0865 
     70 H70        15.0829  -30.0214  -46.7406 H         1 UNK         0.0865 
     71 H71        16.0066  -30.8825  -43.6395 H         1 UNK         0.1346 
     72 H72        20.2634  -30.9559  -44.1590 H         1 UNK         0.1412 
     73 H73        17.7861  -28.9978  -47.0496 H         1 UNK         0.1426 
     74 H74        21.3018  -29.8584  -45.9461 H         1 UNK         0.0716 
     75 H75        20.3931  -29.9983  -47.4315 H         1 UNK         0.0716 
     76 H76        22.5498  -26.5399  -46.8597 H         1 UNK         0.0695 
     77 H77        22.8317  -28.1401  -46.2628 H         1 UNK         0.0695 
     78 H78        23.2345  -26.2398  -44.6027 H         1 UNK         0.0983 
     79 H79        20.5892  -25.5168  -45.2716 H         1 UNK         0.3095 
     80 H80        19.5328  -23.8688  -42.4245 H         1 UNK         0.0454 
     81 H81        19.4202  -21.7826  -43.7708 H         1 UNK         0.0851 
     82 H82        20.6385  -22.4046  -44.8852 H         1 UNK         0.0851 
     83 H83        21.0617  -22.0571  -43.2150 H         1 UNK         0.0851 
     84 H84        18.5778  -23.8025  -45.1123 H         1 UNK         0.2976 
     85 H85        20.2727  -27.2481  -43.0943 H         1 UNK         0.3116 
     86 H86        20.8798  -29.8254  -42.2398 H         1 UNK         0.0646 
     87 H87        18.6607  -28.7507  -41.9469 H         1 UNK         0.0847 
     88 H88        19.2483  -29.3338  -40.3981 H         1 UNK         0.0847 
     89 H89        19.3323  -27.6184  -40.7774 H         1 UNK         0.0847 
     90 H90        22.1551  -26.7917  -40.9798 H         1 UNK         0.3040 
     91 H91        23.3527  -27.9274  -38.5938 H         1 UNK         0.1015 
     92 H92        23.8710  -25.2882  -40.0734 H         1 UNK         0.0786 
     93 H93        24.4794  -25.6958  -38.4739 H         1 UNK         0.0786 
     94 H94        22.7513  -25.5219  -38.7315 H         1 UNK         0.0786 
     95 H95        24.3423  -27.6066  -41.9592 H         1 UNK         0.3172 
     96 H96        27.1867  -28.1869  -41.4210 H         1 UNK         0.0595 
     97 H97        25.6777  -27.7888  -44.0627 H         1 UNK         0.0839 
     98 H98        27.4160  -27.9627  -43.8797 H         1 UNK         0.0839 
     99 H99        26.6063  -26.5559  -43.2103 H         1 UNK         0.0839 
    100 H100       24.2985  -29.7023  -42.8904 H         1 UNK         0.2998 
    101 H101       25.4829  -32.2418  -43.4823 H         1 UNK         0.0822 
    102 H102       23.0898  -32.9256  -43.7858 H         1 UNK         0.0787 
    103 H103       22.5578  -31.4267  -43.0375 H         1 UNK         0.0787 
    104 H104       23.4097  -31.3896  -44.5793 H         1 UNK         0.0787 
    105 H105       24.1912  -30.8684  -40.5561 H         1 UNK         0.3055 
    106 H106       23.9910  -31.4767  -38.4452 H         1 UNK         0.1106 
    107 H107       26.3595  -32.2598  -38.6057 H         1 UNK         0.0828 
    108 H108       25.4318  -33.2302  -37.4731 H         1 UNK         0.0828 
    109 H109       25.8068  -33.8694  -39.0647 H         1 UNK         0.0828 
    110 H110       21.8462  -31.8619  -39.8025 H         1 UNK         0.2931 
    111 H111       20.7169  -34.4528  -39.9409 H         1 UNK         0.0412 
    112 H112       19.3647  -35.6741  -38.5266 H         1 UNK         0.3472 
    113 H113       19.1569  -35.2487  -36.8474 H         1 UNK         0.3472 
    114 H114       18.5120  -33.2465  -40.0857 H         1 UNK         0.0970 
    115 H115       19.3067  -31.7491  -39.6654 H         1 UNK         0.0970 
    116 H116       17.5123  -32.6539  -42.5009 H         1 UNK         0.0612 
    117 H117       17.8037  -31.1535  -41.6546 H         1 UNK         0.0612 
@<TRIPOS>BOND
     1    1    2 1    
     2    1   62 1    
     3    1   63 1    
     4    1   64 1    
     5    2    3 2    
     6    2    4 am   BACKBONE|DICT|INTERRES
     7    4    5 1    
     8    4   65 1    
     9    5    6 1    
    10    5   25 1    
    11    5   66 1    
    12    6    7 1    
    13    6   67 1    
    14    6   68 1    
    15    7    8 1    
    16    8    9 1    
    17    8   69 1    
    18    8   70 1    
    19    9   10 ar   
    20    9   14 ar   
    21   10   11 ar   
    22   10   71 1    
    23   11   12 ar   
    24   11   61 1    
    25   12   13 ar   
    26   12   72 1    
    27   13   14 ar   
    28   13   15 1    
    29   14   73 1    
    30   15   16 1    
    31   15   74 1    
    32   15   75 1    
    33   16   17 1    
    34   17   18 1    
    35   17   76 1    
    36   17   77 1    
    37   18   19 1    
    38   18   27 1    
    39   18   78 1    
    40   19   20 am   BACKBONE|DICT|INTERRES
    41   19   79 1    
    42   20   21 2    
    43   20   22 1    
    44   22   23 1    
    45   22   24 1    
    46   22   80 1    
    47   23   81 1    
    48   23   82 1    
    49   23   83 1    
    50   24   25 am   BACKBONE|DICT|INTERRES
    51   24   84 1    
    52   25   26 2    
    53   27   28 2    
    54   27   29 am   BACKBONE|DICT|INTERRES
    55   29   30 1    
    56   29   85 1    
    57   30   31 1    
    58   30   32 1    
    59   30   86 1    
    60   31   87 1    
    61   31   88 1    
    62   31   89 1    
    63   32   33 2    
    64   32   34 am   BACKBONE|DICT|INTERRES
    65   34   35 1    
    66   34   90 1    
    67   35   36 1    
    68   35   37 1    
    69   35   91 1    
    70   36   92 1    
    71   36   93 1    
    72   36   94 1    
    73   37   38 2    
    74   37   39 am   BACKBONE|DICT|INTERRES
    75   39   40 1    
    76   39   95 1    
    77   40   41 1    
    78   40   42 1    
    79   40   96 1    
    80   41   97 1    
    81   41   98 1    
    82   41   99 1    
    83   42   43 2    
    84   42   44 am   BACKBONE|DICT|INTERRES
    85   44   45 1    
    86   44  100 1    
    87   45   46 1    
    88   45   47 1    
    89   45  101 1    
    90   46  102 1    
    91   46  103 1    
    92   46  104 1    
    93   47   48 2    
    94   47   49 am   BACKBONE|DICT|INTERRES
    95   49   50 1    
    96   49  105 1    
    97   50   51 1    
    98   50   52 1    
    99   50  106 1    
   100   51  107 1    
   101   51  108 1    
   102   51  109 1    
   103   52   53 2    
   104   52   54 am   BACKBONE|DICT|INTERRES
   105   54   55 1    
   106   54  110 1    
   107   55   56 1    
   108   55   59 1    
   109   55  111 1    
   110   56   57 am   BACKBONE|DICT|INTERRES
   111   56   58 2    
   112   57  112 1    
   113   57  113 1    
   114   59   60 1    
   115   59  114 1    
   116   59  115 1    
   117   60   61 1    
   118   61  116 1    
   119   61  117 1    
@<TRIPOS>SUBSTRUCTURE
     1 UNK         1 GROUP             0       ****    0 ROOT    
