@<TRIPOS>MOLECULE
3R8
117   119    1
SMALL
USER_CHARGES


@<TRIPOS>ATOM
      1 CA         19.5110  -22.0914  -45.7081 C.3       0 UNK        -0.2013 
      2 C          19.2159  -23.5838  -45.6891 C.2       0 UNK         0.4866 
      3 O          19.6935  -24.3137  -46.5584 O.2       0 UNK        -0.5176 
      4 N          18.4255  -24.0415  -44.7094 N.am      1 UNK        -0.4884 
      5 CA         18.1080  -25.4552  -44.4828 C.3       1 UNK         0.0853 
      6 C6         16.8264  -25.5977  -43.6075 C.3       10 UNK        -0.0849 
      7 S7         16.6101  -27.1594  -42.6850 S.3       10 UNK        -0.2776 
      8 C8         15.9937  -28.3076  -43.9719 C.3       10 UNK         0.0316 
      9 C9         16.5287  -29.7272  -43.7821 C.ar      10 UNK        -0.0863 
     10 C10        16.9329  -30.4953  -44.8828 C.ar      10 UNK        -0.1009 
     11 C11        17.4524  -31.7853  -44.7016 C.ar      10 UNK        -0.0712 
     12 C12        17.5774  -32.2973  -43.4072 C.ar      10 UNK        -0.0894 
     13 C13        17.1954  -31.5345  -42.3025 C.ar      10 UNK        -0.0745 
     14 C14        16.6307  -30.2758  -42.5004 C.ar      10 UNK        -0.0972 
     15 C15        17.4282  -32.0507  -40.8936 C.3       10 UNK         0.0209 
     16 S16        19.0648  -31.5350  -40.2784 S.3       10 UNK        -0.2568 
     17 C17        18.7676  -29.8137  -39.7407 C.3       10 UNK        -0.0983 
     18 CA         19.8363  -28.8272  -40.2785 C.3       3 UNK         0.0876 
     19 N          19.7849  -28.6557  -41.7384 N.am      3 UNK        -0.4424 
     20 C          20.8699  -28.6014  -42.5248 C.2       2 UNK         0.4918 
     21 O          22.0211  -28.7749  -42.1288 O.2       2 UNK        -0.4875 
     22 CA         20.6637  -28.3045  -44.0190 C.3       2 UNK         0.0481 
     23 CB         20.5343  -29.6162  -44.7872 C.3       2 UNK        -0.1831 
     24 N          19.5159  -27.4600  -44.3432 N.am      2 UNK        -0.4498 
     25 C          19.3515  -26.1959  -43.9376 C.2       1 UNK         0.5027 
     26 O          20.1119  -25.6353  -43.1457 O.2       1 UNK        -0.4969 
     27 C          19.7772  -27.4741  -39.5336 C.2       3 UNK         0.5005 
     28 O          19.9619  -27.4644  -38.3149 O.2       3 UNK        -0.5279 
     29 N          19.5555  -26.3558  -40.2459 N.am      4 UNK        -0.4463 
     30 CA         19.8395  -25.0088  -39.7343 C.3       4 UNK         0.0283 
     31 CB         18.9985  -23.9585  -40.4791 C.3       4 UNK        -0.1875 
     32 C          21.3470  -24.7155  -39.8503 C.2       4 UNK         0.4949 
     33 O          21.9270  -24.1195  -38.9423 O.2       4 UNK        -0.5039 
     34 N          21.9577  -25.2010  -40.9410 N.am      5 UNK        -0.4663 
     35 CA         23.3992  -25.3920  -41.1037 C.3       5 UNK         0.0242 
     36 CB         23.6927  -25.5760  -42.6047 C.3       5 UNK        -0.1982 
     37 C          23.9085  -26.5931  -40.2749 C.2       5 UNK         0.5017 
     38 O          23.1354  -27.2444  -39.5681 O.2       5 UNK        -0.5012 
     39 N          25.2123  -26.8812  -40.3733 N.am      6 UNK        -0.4439 
     40 CA         25.9137  -27.9302  -39.6224 C.3       6 UNK         0.0297 
     41 CB         27.4186  -27.5985  -39.6066 C.3       6 UNK        -0.2006 
     42 C          25.6280  -29.3683  -40.1177 C.2       6 UNK         0.4892 
     43 O          26.5720  -30.1128  -40.3883 O.2       6 UNK        -0.5089 
     44 N          24.3396  -29.7340  -40.2026 N.am      7 UNK        -0.4243 
     45 CA         23.7888  -31.0502  -40.5594 C.3       7 UNK         0.0196 
     46 CB         24.0419  -32.0614  -39.4218 C.3       7 UNK        -0.2007 
     47 C          24.2860  -31.5521  -41.9288 C.2       7 UNK         0.5020 
     48 O          24.9120  -32.6099  -42.0162 O.2       7 UNK        -0.5147 
     49 N          24.0274  -30.7567  -42.9750 N.am      8 UNK        -0.4734 
     50 CA         24.5267  -30.9997  -44.3348 C.3       8 UNK         0.0238 
     51 CB         24.4299  -29.7043  -45.1585 C.3       8 UNK        -0.1912 
     52 C          23.8579  -32.1830  -45.0646 C.2       8 UNK         0.5038 
     53 O          24.4656  -32.7303  -45.9858 O.2       8 UNK        -0.5046 
     54 N          22.6413  -32.5601  -44.6507 N.am      9 UNK        -0.4200 
     55 CA         21.9264  -33.7531  -45.1253 C.3       9 UNK         0.0839 
     56 C          22.4323  -35.0036  -44.3618 C.2       9 UNK         0.5513 
     57 N          22.8395  -36.0473  -45.0705 N.am      9 UNK        -0.7519 
     58 O          22.4141  -35.0477  -43.1339 O.2       9 UNK        -0.4960 
     59 C59        20.3887  -33.6003  -44.9749 C.3       10 UNK        -0.0876 
     60 S60        19.6661  -32.5091  -46.2476 S.3       10 UNK        -0.2414 
     61 C61        17.8790  -32.6304  -45.8971 C.3       10 UNK         0.0169 
     62 H62        19.0144  -21.5662  -44.8925 H         1 UNK         0.0903 
     63 H63        20.5835  -21.9209  -45.6173 H         1 UNK         0.0903 
     64 H64        19.1745  -21.6540  -46.6477 H         1 UNK         0.0903 
     65 H65        18.0850  -23.3961  -44.0113 H         1 UNK         0.3096 
     66 H66        17.8820  -25.8945  -45.4573 H         1 UNK         0.1121 
     67 H67        15.9390  -25.4204  -44.2174 H         1 UNK         0.0849 
     68 H68        16.8148  -24.8123  -42.8498 H         1 UNK         0.0849 
     69 H69        14.9036  -28.3274  -43.9418 H         1 UNK         0.0865 
     70 H70        16.2700  -27.9337  -44.9585 H         1 UNK         0.0865 
     71 H71        16.8488  -30.0912  -45.8825 H         1 UNK         0.1346 
     72 H72        17.9875  -33.2856  -43.2550 H         1 UNK         0.1412 
     73 H73        16.3000  -29.7040  -41.6458 H         1 UNK         0.1426 
     74 H74        17.3762  -33.1404  -40.8844 H         1 UNK         0.0716 
     75 H75        16.6463  -31.7023  -40.2169 H         1 UNK         0.0716 
     76 H76        18.7785  -29.8324  -38.6492 H         1 UNK         0.0695 
     77 H77        17.7676  -29.4836  -40.0163 H         1 UNK         0.0695 
     78 H78        20.8085  -29.2453  -40.0074 H         1 UNK         0.0983 
     79 H79        18.8698  -28.5483  -42.1541 H         1 UNK         0.3095 
     80 H80        21.5562  -27.7871  -44.3766 H         1 UNK         0.0454 
     81 H81        19.6658  -30.1792  -44.4520 H         1 UNK         0.0851 
     82 H82        21.4014  -30.2484  -44.6229 H         1 UNK         0.0851 
     83 H83        20.4480  -29.4547  -45.8618 H         1 UNK         0.0851 
     84 H84        18.8335  -27.8626  -44.9683 H         1 UNK         0.2976 
     85 H85        19.4334  -26.4356  -41.2466 H         1 UNK         0.3116 
     86 H86        19.5650  -24.9621  -38.6782 H         1 UNK         0.0646 
     87 H87        17.9366  -24.2016  -40.4431 H         1 UNK         0.0847 
     88 H88        19.2865  -23.8601  -41.5247 H         1 UNK         0.0847 
     89 H89        19.1216  -22.9762  -40.0215 H         1 UNK         0.0847 
     90 H90        21.3737  -25.6046  -41.6659 H         1 UNK         0.3040 
     91 H91        23.9102  -24.4952  -40.7468 H         1 UNK         0.1015 
     92 H92        24.7640  -25.5949  -42.8058 H         1 UNK         0.0786 
     93 H93        23.2736  -24.7588  -43.1926 H         1 UNK         0.0786 
     94 H94        23.2723  -26.5066  -42.9866 H         1 UNK         0.0786 
     95 H95        25.7801  -26.3301  -41.0006 H         1 UNK         0.3172 
     96 H96        25.5662  -27.8896  -38.5877 H         1 UNK         0.0595 
     97 H97        27.8481  -27.6231  -40.6089 H         1 UNK         0.0839 
     98 H98        27.9719  -28.3148  -38.9975 H         1 UNK         0.0839 
     99 H99        27.6050  -26.6110  -39.1840 H         1 UNK         0.0839 
    100 H100       23.6547  -29.0065  -40.0075 H         1 UNK         0.2998 
    101 H101       22.7085  -30.9252  -40.6483 H         1 UNK         0.0822 
    102 H102       23.6240  -31.7089  -38.4789 H         1 UNK         0.0787 
    103 H103       23.5754  -33.0221  -39.6439 H         1 UNK         0.0787 
    104 H104       25.1065  -32.2430  -39.2703 H         1 UNK         0.0787 
    105 H105       23.4930  -29.9084  -42.8068 H         1 UNK         0.3055 
    106 H106       25.5862  -31.2537  -44.2510 H         1 UNK         0.1106 
    107 H107       23.4034  -29.3618  -45.2746 H         1 UNK         0.0828 
    108 H108       24.8369  -29.8496  -46.1602 H         1 UNK         0.0828 
    109 H109       24.9993  -28.8983  -44.6951 H         1 UNK         0.0828 
    110 H110       22.2493  -32.0959  -43.8464 H         1 UNK         0.2931 
    111 H111       22.1449  -33.8907  -46.1868 H         1 UNK         0.0412 
    112 H112       22.8505  -36.0192  -46.0787 H         1 UNK         0.3472 
    113 H113       23.1560  -36.8748  -44.5889 H         1 UNK         0.3472 
    114 H114       19.8935  -34.5696  -45.0627 H         1 UNK         0.0970 
    115 H115       20.1476  -33.2194  -43.9824 H         1 UNK         0.0970 
    116 H116       17.6070  -33.6747  -45.7365 H         1 UNK         0.0612 
    117 H117       17.3322  -32.3109  -46.7854 H         1 UNK         0.0612 
@<TRIPOS>BOND
     1    1    2 1    
     2    1   62 1    
     3    1   63 1    
     4    1   64 1    
     5    2    3 2    
     6    2    4 am   BACKBONE|DICT|INTERRES
     7    4    5 1    
     8    4   65 1    
     9    5    6 1    
    10    5   25 1    
    11    5   66 1    
    12    6    7 1    
    13    6   67 1    
    14    6   68 1    
    15    7    8 1    
    16    8    9 1    
    17    8   69 1    
    18    8   70 1    
    19    9   10 ar   
    20    9   14 ar   
    21   10   11 ar   
    22   10   71 1    
    23   11   12 ar   
    24   11   61 1    
    25   12   13 ar   
    26   12   72 1    
    27   13   14 ar   
    28   13   15 1    
    29   14   73 1    
    30   15   16 1    
    31   15   74 1    
    32   15   75 1    
    33   16   17 1    
    34   17   18 1    
    35   17   76 1    
    36   17   77 1    
    37   18   19 1    
    38   18   27 1    
    39   18   78 1    
    40   19   20 am   BACKBONE|DICT|INTERRES
    41   19   79 1    
    42   20   21 2    
    43   20   22 1    
    44   22   23 1    
    45   22   24 1    
    46   22   80 1    
    47   23   81 1    
    48   23   82 1    
    49   23   83 1    
    50   24   25 am   BACKBONE|DICT|INTERRES
    51   24   84 1    
    52   25   26 2    
    53   27   28 2    
    54   27   29 am   BACKBONE|DICT|INTERRES
    55   29   30 1    
    56   29   85 1    
    57   30   31 1    
    58   30   32 1    
    59   30   86 1    
    60   31   87 1    
    61   31   88 1    
    62   31   89 1    
    63   32   33 2    
    64   32   34 am   BACKBONE|DICT|INTERRES
    65   34   35 1    
    66   34   90 1    
    67   35   36 1    
    68   35   37 1    
    69   35   91 1    
    70   36   92 1    
    71   36   93 1    
    72   36   94 1    
    73   37   38 2    
    74   37   39 am   BACKBONE|DICT|INTERRES
    75   39   40 1    
    76   39   95 1    
    77   40   41 1    
    78   40   42 1    
    79   40   96 1    
    80   41   97 1    
    81   41   98 1    
    82   41   99 1    
    83   42   43 2    
    84   42   44 am   BACKBONE|DICT|INTERRES
    85   44   45 1    
    86   44  100 1    
    87   45   46 1    
    88   45   47 1    
    89   45  101 1    
    90   46  102 1    
    91   46  103 1    
    92   46  104 1    
    93   47   48 2    
    94   47   49 am   BACKBONE|DICT|INTERRES
    95   49   50 1    
    96   49  105 1    
    97   50   51 1    
    98   50   52 1    
    99   50  106 1    
   100   51  107 1    
   101   51  108 1    
   102   51  109 1    
   103   52   53 2    
   104   52   54 am   BACKBONE|DICT|INTERRES
   105   54   55 1    
   106   54  110 1    
   107   55   56 1    
   108   55   59 1    
   109   55  111 1    
   110   56   57 am   BACKBONE|DICT|INTERRES
   111   56   58 2    
   112   57  112 1    
   113   57  113 1    
   114   59   60 1    
   115   59  114 1    
   116   59  115 1    
   117   60   61 1    
   118   61  116 1    
   119   61  117 1    
@<TRIPOS>SUBSTRUCTURE
     1 UNK         1 GROUP             0       ****    0 ROOT    
