@<TRIPOS>MOLECULE
3R8
117   119    1
SMALL
USER_CHARGES


@<TRIPOS>ATOM
      1 CA         19.1297  -23.2630  -39.7248 C.3       0 UNK        -0.2013 
      2 C          18.3031  -23.5275  -40.9743 C.2       0 UNK         0.4866 
      3 O          17.5184  -22.6710  -41.3836 O.2       0 UNK        -0.5176 
      4 N          18.4662  -24.7117  -41.5759 N.am      1 UNK        -0.4884 
      5 CA         17.8001  -25.1311  -42.8149 C.3       1 UNK         0.0853 
      6 C6         17.9628  -26.6540  -43.0761 C.3       10 UNK        -0.0849 
      7 S7         17.5370  -27.6918  -41.6348 S.3       10 UNK        -0.2776 
      8 C8         17.1212  -29.2834  -42.4187 C.3       10 UNK         0.0316 
      9 C9         18.2870  -29.8637  -43.2090 C.ar      10 UNK        -0.0863 
     10 C10        19.3800  -30.4324  -42.5464 C.ar      10 UNK        -0.1009 
     11 C11        20.4470  -30.9699  -43.2735 C.ar      10 UNK        -0.0712 
     12 C12        20.4176  -30.9341  -44.6711 C.ar      10 UNK        -0.0894 
     13 C13        19.3258  -30.3789  -45.3438 C.ar      10 UNK        -0.0745 
     14 C14        18.2634  -29.8463  -44.6070 C.ar      10 UNK        -0.0972 
     15 C15        19.2903  -30.3525  -46.8668 C.3       10 UNK         0.0209 
     16 S16        20.4057  -29.0940  -47.5681 S.3       10 UNK        -0.2568 
     17 C17        19.8011  -27.5878  -46.7355 C.3       10 UNK        -0.0983 
     18 CA         20.5626  -26.2865  -47.1184 C.3       3 UNK         0.0876 
     19 N          19.8050  -25.1088  -46.7106 N.am      3 UNK        -0.4424 
     20 C          18.6370  -24.6920  -47.2035 C.2       2 UNK         0.4918 
     21 O          18.1100  -25.1639  -48.2122 O.2       2 UNK        -0.4875 
     22 CA         17.9066  -23.6204  -46.3688 C.3       2 UNK         0.0481 
     23 CB         16.6579  -23.0656  -47.0784 C.3       2 UNK        -0.1831 
     24 N          17.5131  -24.1753  -45.0670 N.am      2 UNK        -0.4498 
     25 C          18.3397  -24.3360  -44.0235 C.2       1 UNK         0.5027 
     26 O          19.5098  -23.9429  -44.0240 O.2       1 UNK        -0.4969 
     27 C          21.9404  -26.1994  -46.4273 C.2       3 UNK         0.5005 
     28 O          22.2000  -25.2541  -45.6745 O.2       3 UNK        -0.5279 
     29 N          22.7880  -27.2122  -46.6444 N.am      4 UNK        -0.4463 
     30 CA         24.0110  -27.4691  -45.8824 C.3       4 UNK         0.0283 
     31 CB         24.9270  -28.3978  -46.6999 C.3       4 UNK        -0.1875 
     32 C          23.6453  -28.0648  -44.5097 C.2       4 UNK         0.4949 
     33 O          23.7948  -29.2684  -44.2937 O.2       4 UNK        -0.5039 
     34 N          23.1128  -27.2096  -43.6287 N.am      5 UNK        -0.4663 
     35 CA         22.5387  -27.5346  -42.3213 C.3       5 UNK         0.0242 
     36 CB         21.6938  -26.3338  -41.8559 C.3       5 UNK        -0.1982 
     37 C          23.5916  -27.9458  -41.2728 C.2       5 UNK         0.5017 
     38 O          23.7435  -27.2733  -40.2501 O.2       5 UNK        -0.5012 
     39 N          24.3016  -29.0491  -41.5348 N.am      6 UNK        -0.4439 
     40 CA         25.2746  -29.6865  -40.6434 C.3       6 UNK         0.0297 
     41 CB         26.1647  -30.6283  -41.4751 C.3       6 UNK        -0.2006 
     42 C          24.5794  -30.4074  -39.4701 C.2       6 UNK         0.4892 
     43 O          24.6181  -31.6367  -39.3867 O.2       6 UNK        -0.5089 
     44 N          23.9258  -29.6174  -38.6065 N.am      7 UNK        -0.4243 
     45 CA         23.0417  -30.0315  -37.5134 C.3       7 UNK         0.0196 
     46 CB         23.8396  -30.7432  -36.3956 C.3       7 UNK        -0.2007 
     47 C          21.8438  -30.8318  -38.0615 C.2       7 UNK         0.5020 
     48 O          21.2068  -30.3792  -39.0139 O.2       7 UNK        -0.5147 
     49 N          21.5569  -31.9976  -37.4699 N.am      8 UNK        -0.4734 
     50 CA         20.5238  -32.9259  -37.9391 C.3       8 UNK         0.0238 
     51 CB         20.1061  -33.8373  -36.7726 C.3       8 UNK        -0.1912 
     52 C          20.9671  -33.7704  -39.1497 C.2       8 UNK         0.5038 
     53 O          20.1014  -34.3458  -39.8086 O.2       8 UNK        -0.5046 
     54 N          22.2868  -33.8476  -39.3884 N.am      9 UNK        -0.4200 
     55 CA         22.9906  -34.6015  -40.4441 C.3       9 UNK         0.0839 
     56 C          22.6198  -36.1078  -40.6149 C.2       9 UNK         0.5513 
     57 N          22.0929  -36.7725  -39.5937 N.am      9 UNK        -0.7519 
     58 O          22.8561  -36.7009  -41.6647 O.2       9 UNK        -0.4960 
     59 C59        23.1455  -33.8114  -41.7763 C.3       10 UNK        -0.0876 
     60 S60        21.5948  -33.4009  -42.6454 S.3       10 UNK        -0.2414 
     61 C61        21.6366  -31.5856  -42.5556 C.3       10 UNK         0.0169 
     62 H62        19.7929  -24.0950  -39.4906 H         1 UNK         0.0903 
     63 H63        19.7413  -22.3722  -39.8622 H         1 UNK         0.0903 
     64 H64        18.4757  -23.0989  -38.8695 H         1 UNK         0.0903 
     65 H65        19.1131  -25.3825  -41.1892 H         1 UNK         0.3096 
     66 H66        16.7360  -24.9088  -42.7070 H         1 UNK         0.1121 
     67 H67        17.3344  -26.9538  -43.9168 H         1 UNK         0.0849 
     68 H68        18.9855  -26.8992  -43.3668 H         1 UNK         0.0849 
     69 H69        16.8253  -29.9913  -41.6431 H         1 UNK         0.0865 
     70 H70        16.2458  -29.1518  -43.0566 H         1 UNK         0.0865 
     71 H71        19.4015  -30.4524  -41.4647 H         1 UNK         0.1346 
     72 H72        21.2454  -31.3423  -45.2350 H         1 UNK         0.1412 
     73 H73        17.4188  -29.4123  -45.1245 H         1 UNK         0.1426 
     74 H74        18.2766  -30.1671  -47.2253 H         1 UNK         0.0716 
     75 H75        19.5752  -31.3321  -47.2530 H         1 UNK         0.0716 
     76 H76        18.7441  -27.5045  -46.9909 H         1 UNK         0.0695 
     77 H77        19.8328  -27.7303  -45.6540 H         1 UNK         0.0695 
     78 H78        20.7143  -26.2409  -48.1988 H         1 UNK         0.0983 
     79 H79        20.1851  -24.6485  -45.8863 H         1 UNK         0.3095 
     80 H80        18.5979  -22.7890  -46.2146 H         1 UNK         0.0454 
     81 H81        16.9189  -22.6362  -48.0465 H         1 UNK         0.0851 
     82 H82        16.1870  -22.2763  -46.4925 H         1 UNK         0.0851 
     83 H83        15.9122  -23.8414  -47.2567 H         1 UNK         0.0851 
     84 H84        16.5765  -24.5496  -45.0096 H         1 UNK         0.2976 
     85 H85        22.4558  -27.9746  -47.2221 H         1 UNK         0.3116 
     86 H86        24.5417  -26.5288  -45.7177 H         1 UNK         0.0646 
     87 H87        24.4459  -29.3513  -46.9218 H         1 UNK         0.0847 
     88 H88        25.2139  -27.9391  -47.6461 H         1 UNK         0.0847 
     89 H89        25.8458  -28.6163  -46.1540 H         1 UNK         0.0847 
     90 H90        22.9968  -26.2514  -43.9397 H         1 UNK         0.3040 
     91 H91        21.8647  -28.3845  -42.4521 H         1 UNK         0.1015 
     92 H92        21.1393  -26.5770  -40.9486 H         1 UNK         0.0786 
     93 H93        20.9714  -26.0377  -42.6148 H         1 UNK         0.0786 
     94 H94        22.3137  -25.4626  -41.6398 H         1 UNK         0.0786 
     95 H95        24.1466  -29.4860  -42.4403 H         1 UNK         0.3172 
     96 H96        25.9163  -28.9124  -40.2175 H         1 UNK         0.0595 
     97 H97        25.5826  -31.4070  -41.9684 H         1 UNK         0.0839 
     98 H98        26.9056  -31.1230  -40.8456 H         1 UNK         0.0839 
     99 H99        26.7089  -30.0810  -42.2450 H         1 UNK         0.0839 
    100 H100       23.8976  -28.6290  -38.8414 H         1 UNK         0.2998 
    101 H101       22.6253  -29.1154  -37.0922 H         1 UNK         0.0822 
    102 H102       23.2139  -30.9367  -35.5233 H         1 UNK         0.0787 
    103 H103       24.6686  -30.1224  -36.0556 H         1 UNK         0.0787 
    104 H104       24.2589  -31.6943  -36.7252 H         1 UNK         0.0787 
    105 H105       22.1201  -32.2931  -36.6849 H         1 UNK         0.3055 
    106 H106       19.6495  -32.3504  -38.2525 H         1 UNK         0.1106 
    107 H107       19.7205  -33.2570  -35.9341 H         1 UNK         0.0828 
    108 H108       19.3154  -34.5244  -37.0777 H         1 UNK         0.0828 
    109 H109       20.9392  -34.4404  -36.4100 H         1 UNK         0.0828 
    110 H110       22.8939  -33.3022  -38.7929 H         1 UNK         0.2931 
    111 H111       24.0055  -34.6653  -40.0498 H         1 UNK         0.0412 
    112 H112       21.8688  -37.7492  -39.7030 H         1 UNK         0.3472 
    113 H113       21.8945  -36.3020  -38.7257 H         1 UNK         0.3472 
    114 H114       23.6896  -32.8895  -41.5724 H         1 UNK         0.0970 
    115 H115       23.7838  -34.3607  -42.4704 H         1 UNK         0.0970 
    116 H116       22.5603  -31.2260  -43.0089 H         1 UNK         0.0612 
    117 H117       21.6613  -31.2768  -41.5098 H         1 UNK         0.0612 
@<TRIPOS>BOND
     1    1    2 1    
     2    1   62 1    
     3    1   63 1    
     4    1   64 1    
     5    2    3 2    
     6    2    4 am   BACKBONE|DICT|INTERRES
     7    4    5 1    
     8    4   65 1    
     9    5    6 1    
    10    5   25 1    
    11    5   66 1    
    12    6    7 1    
    13    6   67 1    
    14    6   68 1    
    15    7    8 1    
    16    8    9 1    
    17    8   69 1    
    18    8   70 1    
    19    9   10 ar   
    20    9   14 ar   
    21   10   11 ar   
    22   10   71 1    
    23   11   12 ar   
    24   11   61 1    
    25   12   13 ar   
    26   12   72 1    
    27   13   14 ar   
    28   13   15 1    
    29   14   73 1    
    30   15   16 1    
    31   15   74 1    
    32   15   75 1    
    33   16   17 1    
    34   17   18 1    
    35   17   76 1    
    36   17   77 1    
    37   18   19 1    
    38   18   27 1    
    39   18   78 1    
    40   19   20 am   BACKBONE|DICT|INTERRES
    41   19   79 1    
    42   20   21 2    
    43   20   22 1    
    44   22   23 1    
    45   22   24 1    
    46   22   80 1    
    47   23   81 1    
    48   23   82 1    
    49   23   83 1    
    50   24   25 am   BACKBONE|DICT|INTERRES
    51   24   84 1    
    52   25   26 2    
    53   27   28 2    
    54   27   29 am   BACKBONE|DICT|INTERRES
    55   29   30 1    
    56   29   85 1    
    57   30   31 1    
    58   30   32 1    
    59   30   86 1    
    60   31   87 1    
    61   31   88 1    
    62   31   89 1    
    63   32   33 2    
    64   32   34 am   BACKBONE|DICT|INTERRES
    65   34   35 1    
    66   34   90 1    
    67   35   36 1    
    68   35   37 1    
    69   35   91 1    
    70   36   92 1    
    71   36   93 1    
    72   36   94 1    
    73   37   38 2    
    74   37   39 am   BACKBONE|DICT|INTERRES
    75   39   40 1    
    76   39   95 1    
    77   40   41 1    
    78   40   42 1    
    79   40   96 1    
    80   41   97 1    
    81   41   98 1    
    82   41   99 1    
    83   42   43 2    
    84   42   44 am   BACKBONE|DICT|INTERRES
    85   44   45 1    
    86   44  100 1    
    87   45   46 1    
    88   45   47 1    
    89   45  101 1    
    90   46  102 1    
    91   46  103 1    
    92   46  104 1    
    93   47   48 2    
    94   47   49 am   BACKBONE|DICT|INTERRES
    95   49   50 1    
    96   49  105 1    
    97   50   51 1    
    98   50   52 1    
    99   50  106 1    
   100   51  107 1    
   101   51  108 1    
   102   51  109 1    
   103   52   53 2    
   104   52   54 am   BACKBONE|DICT|INTERRES
   105   54   55 1    
   106   54  110 1    
   107   55   56 1    
   108   55   59 1    
   109   55  111 1    
   110   56   57 am   BACKBONE|DICT|INTERRES
   111   56   58 2    
   112   57  112 1    
   113   57  113 1    
   114   59   60 1    
   115   59  114 1    
   116   59  115 1    
   117   60   61 1    
   118   61  116 1    
   119   61  117 1    
@<TRIPOS>SUBSTRUCTURE
     1 UNK         1 GROUP             0       ****    0 ROOT    
