@<TRIPOS>MOLECULE
3R8
117   119    1
SMALL
USER_CHARGES


@<TRIPOS>ATOM
      1 CA         22.8203  -31.8344  -45.6803 C.3       0 UNK        -0.2013 
      2 C          21.6168  -31.0080  -45.2575 C.2       0 UNK         0.4866 
      3 O          21.1931  -31.1017  -44.1062 O.2       0 UNK        -0.5176 
      4 N          21.0793  -30.1980  -46.1780 N.am      1 UNK        -0.4884 
      5 CA         19.9208  -29.3180  -45.9670 C.3       1 UNK         0.0853 
      6 C6         18.8765  -29.4440  -47.1088 C.3       10 UNK        -0.0849 
      7 S7         18.1018  -31.0947  -47.1486 S.3       10 UNK        -0.2776 
      8 C8         16.5349  -30.7759  -46.2674 C.3       10 UNK         0.0316 
      9 C9         16.7660  -30.3020  -44.8378 C.ar      10 UNK        -0.0863 
     10 C10        17.3497  -31.1608  -43.9046 C.ar      10 UNK        -0.1009 
     11 C11        17.5848  -30.7406  -42.5907 C.ar      10 UNK        -0.0712 
     12 C12        17.2415  -29.4358  -42.2197 C.ar      10 UNK        -0.0894 
     13 C13        16.6538  -28.5639  -43.1429 C.ar      10 UNK        -0.0745 
     14 C14        16.4120  -29.0068  -44.4483 C.ar      10 UNK        -0.0972 
     15 C15        16.2546  -27.1523  -42.7300 C.3       10 UNK         0.0209 
     16 S16        17.1873  -25.8896  -43.6562 S.3       10 UNK        -0.2568 
     17 C17        18.0891  -24.9921  -42.3467 C.3       10 UNK        -0.0983 
     18 CA         19.5013  -25.5637  -42.0653 C.3       3 UNK         0.0876 
     19 N          20.2934  -25.7202  -43.2924 N.am      3 UNK        -0.4424 
     20 C          21.5848  -26.0659  -43.3894 C.2       2 UNK         0.4918 
     21 O          22.3358  -26.2315  -42.4281 O.2       2 UNK        -0.4875 
     22 CA         22.0992  -26.3491  -44.8104 C.3       2 UNK         0.0481 
     23 CB         23.6355  -26.3583  -44.8940 C.3       2 UNK        -0.1831 
     24 N          21.5890  -27.6464  -45.2534 N.am      2 UNK        -0.4498 
     25 C          20.3585  -27.8552  -45.7412 C.2       1 UNK         0.5027 
     26 O          19.5801  -26.9339  -45.9930 O.2       1 UNK        -0.4969 
     27 C          20.2243  -24.7111  -41.0010 C.2       3 UNK         0.5005 
     28 O          20.6515  -23.5952  -41.3070 O.2       3 UNK        -0.5279 
     29 N          20.3882  -25.2744  -39.7947 N.am      4 UNK        -0.4463 
     30 CA         21.1284  -24.7662  -38.6281 C.3       4 UNK         0.0283 
     31 CB         20.5446  -23.4315  -38.1248 C.3       4 UNK        -0.1875 
     32 C          22.6583  -24.6639  -38.8074 C.2       4 UNK         0.4949 
     33 O          23.3838  -24.9136  -37.8449 O.2       4 UNK        -0.5039 
     34 N          23.1271  -24.2985  -40.0064 N.am      5 UNK        -0.4663 
     35 CA         24.5393  -24.1097  -40.3449 C.3       5 UNK         0.0242 
     36 CB         24.6436  -23.3587  -41.6826 C.3       5 UNK        -0.1982 
     37 C          25.3372  -25.4230  -40.3952 C.2       5 UNK         0.5017 
     38 O          26.4280  -25.4882  -39.8270 O.2       5 UNK        -0.5012 
     39 N          24.7856  -26.4356  -41.0732 N.am      6 UNK        -0.4439 
     40 CA         25.3841  -27.7556  -41.2717 C.3       6 UNK         0.0297 
     41 CB         26.5326  -27.6894  -42.3011 C.3       6 UNK        -0.2006 
     42 C          24.2772  -28.7420  -41.6659 C.2       6 UNK         0.4892 
     43 O          24.3424  -29.3692  -42.7260 O.2       6 UNK        -0.5089 
     44 N          23.2489  -28.8278  -40.8130 N.am      7 UNK        -0.4243 
     45 CA         22.0454  -29.6347  -41.0122 C.3       7 UNK         0.0196 
     46 CB         20.9197  -29.0641  -40.1323 C.3       7 UNK        -0.2007 
     47 C          22.3089  -31.1277  -40.7449 C.2       7 UNK         0.5020 
     48 O          21.7789  -31.6882  -39.7843 O.2       7 UNK        -0.5147 
     49 N          23.1433  -31.7424  -41.5930 N.am      8 UNK        -0.4734 
     50 CA         23.4947  -33.1658  -41.5499 C.3       8 UNK         0.0238 
     51 CB         24.6485  -33.4411  -42.5267 C.3       8 UNK        -0.1912 
     52 C          22.3019  -34.0961  -41.8337 C.2       8 UNK         0.5038 
     53 O          22.2808  -35.2146  -41.3194 O.2       8 UNK        -0.5046 
     54 N          21.3237  -33.6058  -42.6085 N.am      9 UNK        -0.4200 
     55 CA         20.0148  -34.2297  -42.8525 C.3       9 UNK         0.0839 
     56 C          20.0340  -35.5450  -43.6880 C.2       9 UNK         0.5513 
     57 N          21.1328  -35.8934  -44.3467 N.am      9 UNK        -0.7519 
     58 O          19.0283  -36.2450  -43.7722 O.2       9 UNK        -0.4960 
     59 C59        19.1649  -34.3194  -41.5419 C.3       10 UNK        -0.0876 
     60 S60        17.6072  -33.3823  -41.6550 S.3       10 UNK        -0.2414 
     61 C61        18.2473  -31.6720  -41.5809 C.3       10 UNK         0.0169 
     62 H62        23.0203  -31.7473  -46.7481 H         1 UNK         0.0903 
     63 H63        23.7067  -31.5018  -45.1408 H         1 UNK         0.0903 
     64 H64        22.6514  -32.8867  -45.4545 H         1 UNK         0.0903 
     65 H65        21.4837  -30.1639  -47.1037 H         1 UNK         0.3096 
     66 H66        19.4251  -29.5965  -45.0355 H         1 UNK         0.1121 
     67 H67        19.3428  -29.2528  -48.0767 H         1 UNK         0.0849 
     68 H68        18.0823  -28.7017  -47.0085 H         1 UNK         0.0849 
     69 H69        15.9466  -30.0493  -46.8300 H         1 UNK         0.0865 
     70 H70        15.9465  -31.6943  -46.2480 H         1 UNK         0.0865 
     71 H71        17.6341  -32.1571  -44.2128 H         1 UNK         0.1346 
     72 H72        17.4292  -29.0999  -41.2092 H         1 UNK         0.1412 
     73 H73        15.9598  -28.3324  -45.1630 H         1 UNK         0.1426 
     74 H74        16.3858  -27.0126  -41.6564 H         1 UNK         0.0716 
     75 H75        15.1904  -27.0138  -42.9255 H         1 UNK         0.0716 
     76 H76        17.4868  -24.9789  -41.4364 H         1 UNK         0.0695 
     77 H77        18.1641  -23.9512  -42.6682 H         1 UNK         0.0695 
     78 H78        19.3705  -26.5718  -41.6695 H         1 UNK         0.0983 
     79 H79        19.7599  -25.6719  -44.1521 H         1 UNK         0.3095 
     80 H80        21.7339  -25.5590  -45.4698 H         1 UNK         0.0454 
     81 H81        24.0658  -27.1677  -44.3058 H         1 UNK         0.0851 
     82 H82        24.0551  -25.4231  -44.5221 H         1 UNK         0.0851 
     83 H83        23.9742  -26.4791  -45.9228 H         1 UNK         0.0851 
     84 H84        22.1572  -28.4544  -45.0413 H         1 UNK         0.2976 
     85 H85        20.0032  -26.1986  -39.6610 H         1 UNK         0.3116 
     86 H86        20.9647  -25.5052  -37.8419 H         1 UNK         0.0646 
     87 H87        20.6921  -22.6233  -38.8416 H         1 UNK         0.0847 
     88 H88        21.0234  -23.1257  -37.1937 H         1 UNK         0.0847 
     89 H89        19.4760  -23.5142  -37.9269 H         1 UNK         0.0847 
     90 H90        22.4426  -24.0940  -40.7289 H         1 UNK         0.3040 
     91 H91        24.9886  -23.4846  -39.5698 H         1 UNK         0.1015 
     92 H92        24.1611  -23.9068  -42.4926 H         1 UNK         0.0786 
     93 H93        25.6859  -23.2053  -41.9657 H         1 UNK         0.0786 
     94 H94        24.1767  -22.3755  -41.6212 H         1 UNK         0.0786 
     95 H95        23.8691  -26.2989  -41.5045 H         1 UNK         0.3172 
     96 H96        25.7933  -28.1032  -40.3210 H         1 UNK         0.0595 
     97 H97        26.1942  -27.2987  -43.2604 H         1 UNK         0.0839 
     98 H98        26.9537  -28.6793  -42.4809 H         1 UNK         0.0839 
     99 H99        27.3469  -27.0548  -41.9520 H         1 UNK         0.0839 
    100 H100       23.2927  -28.2894  -39.9602 H         1 UNK         0.2998 
    101 H101       21.7303  -29.5351  -42.0530 H         1 UNK         0.0822 
    102 H102       20.7265  -28.0234  -40.3812 H         1 UNK         0.0787 
    103 H103       19.9896  -29.6122  -40.2818 H         1 UNK         0.0787 
    104 H104       21.1660  -29.1175  -39.0711 H         1 UNK         0.0787 
    105 H105       23.5672  -31.1726  -42.3194 H         1 UNK         0.3055 
    106 H106       23.8418  -33.3889  -40.5385 H         1 UNK         0.1106 
    107 H107       24.9652  -34.4836  -42.4701 H         1 UNK         0.0828 
    108 H108       24.3629  -33.2449  -43.5595 H         1 UNK         0.0828 
    109 H109       25.5192  -32.8268  -42.2964 H         1 UNK         0.0828 
    110 H110       21.4357  -32.6767  -43.0058 H         1 UNK         0.2931 
    111 H111       19.5335  -33.5222  -43.5279 H         1 UNK         0.0412 
    112 H112       21.1335  -36.7396  -44.8946 H         1 UNK         0.3472 
    113 H113       21.9658  -35.3319  -44.2814 H         1 UNK         0.3472 
    114 H114       18.9279  -35.3522  -41.2803 H         1 UNK         0.0970 
    115 H115       19.7116  -33.9348  -40.6790 H         1 UNK         0.0970 
    116 H116       18.1098  -31.3022  -40.5639 H         1 UNK         0.0612 
    117 H117       19.3208  -31.6586  -41.7711 H         1 UNK         0.0612 
@<TRIPOS>BOND
     1    1    2 1    
     2    1   62 1    
     3    1   63 1    
     4    1   64 1    
     5    2    3 2    
     6    2    4 am   BACKBONE|DICT|INTERRES
     7    4    5 1    
     8    4   65 1    
     9    5    6 1    
    10    5   25 1    
    11    5   66 1    
    12    6    7 1    
    13    6   67 1    
    14    6   68 1    
    15    7    8 1    
    16    8    9 1    
    17    8   69 1    
    18    8   70 1    
    19    9   10 ar   
    20    9   14 ar   
    21   10   11 ar   
    22   10   71 1    
    23   11   12 ar   
    24   11   61 1    
    25   12   13 ar   
    26   12   72 1    
    27   13   14 ar   
    28   13   15 1    
    29   14   73 1    
    30   15   16 1    
    31   15   74 1    
    32   15   75 1    
    33   16   17 1    
    34   17   18 1    
    35   17   76 1    
    36   17   77 1    
    37   18   19 1    
    38   18   27 1    
    39   18   78 1    
    40   19   20 am   BACKBONE|DICT|INTERRES
    41   19   79 1    
    42   20   21 2    
    43   20   22 1    
    44   22   23 1    
    45   22   24 1    
    46   22   80 1    
    47   23   81 1    
    48   23   82 1    
    49   23   83 1    
    50   24   25 am   BACKBONE|DICT|INTERRES
    51   24   84 1    
    52   25   26 2    
    53   27   28 2    
    54   27   29 am   BACKBONE|DICT|INTERRES
    55   29   30 1    
    56   29   85 1    
    57   30   31 1    
    58   30   32 1    
    59   30   86 1    
    60   31   87 1    
    61   31   88 1    
    62   31   89 1    
    63   32   33 2    
    64   32   34 am   BACKBONE|DICT|INTERRES
    65   34   35 1    
    66   34   90 1    
    67   35   36 1    
    68   35   37 1    
    69   35   91 1    
    70   36   92 1    
    71   36   93 1    
    72   36   94 1    
    73   37   38 2    
    74   37   39 am   BACKBONE|DICT|INTERRES
    75   39   40 1    
    76   39   95 1    
    77   40   41 1    
    78   40   42 1    
    79   40   96 1    
    80   41   97 1    
    81   41   98 1    
    82   41   99 1    
    83   42   43 2    
    84   42   44 am   BACKBONE|DICT|INTERRES
    85   44   45 1    
    86   44  100 1    
    87   45   46 1    
    88   45   47 1    
    89   45  101 1    
    90   46  102 1    
    91   46  103 1    
    92   46  104 1    
    93   47   48 2    
    94   47   49 am   BACKBONE|DICT|INTERRES
    95   49   50 1    
    96   49  105 1    
    97   50   51 1    
    98   50   52 1    
    99   50  106 1    
   100   51  107 1    
   101   51  108 1    
   102   51  109 1    
   103   52   53 2    
   104   52   54 am   BACKBONE|DICT|INTERRES
   105   54   55 1    
   106   54  110 1    
   107   55   56 1    
   108   55   59 1    
   109   55  111 1    
   110   56   57 am   BACKBONE|DICT|INTERRES
   111   56   58 2    
   112   57  112 1    
   113   57  113 1    
   114   59   60 1    
   115   59  114 1    
   116   59  115 1    
   117   60   61 1    
   118   61  116 1    
   119   61  117 1    
@<TRIPOS>SUBSTRUCTURE
     1 UNK         1 GROUP             0       ****    0 ROOT    
