@<TRIPOS>MOLECULE
3R8
117   119    1
SMALL
USER_CHARGES


@<TRIPOS>ATOM
      1 CA         17.2144  -23.5422  -48.2429 C.3       0 UNK        -0.2013 
      2 C          17.8461  -24.7583  -47.5820 C.2       0 UNK         0.4866 
      3 O          18.9371  -25.1689  -47.9773 O.2       0 UNK        -0.5176 
      4 N          17.1632  -25.3383  -46.5859 N.am      1 UNK        -0.4884 
      5 CA         17.6167  -26.4988  -45.8083 C.3       1 UNK         0.0853 
      6 C6         16.4694  -27.0781  -44.9399 C.3       10 UNK        -0.0849 
      7 S7         15.4373  -28.2112  -45.9360 S.3       10 UNK        -0.2776 
      8 C8         15.3569  -29.7436  -44.9381 C.3       10 UNK         0.0316 
      9 C9         16.6737  -30.1285  -44.2698 C.ar      10 UNK        -0.0863 
     10 C10        17.8468  -30.2718  -45.0163 C.ar      10 UNK        -0.1009 
     11 C11        19.0618  -30.5730  -44.3919 C.ar      10 UNK        -0.0712 
     12 C12        19.0875  -30.7491  -43.0007 C.ar      10 UNK        -0.0894 
     13 C13        17.9161  -30.6327  -42.2442 C.ar      10 UNK        -0.0745 
     14 C14        16.7161  -30.3189  -42.8866 C.ar      10 UNK        -0.0972 
     15 C15        17.9162  -30.8743  -40.7375 C.3       10 UNK         0.0209 
     16 S16        19.1867  -29.9396  -39.8245 S.3       10 UNK        -0.2568 
     17 C17        18.8246  -28.2014  -40.2516 C.3       10 UNK        -0.0983 
     18 CA         20.0577  -27.4957  -40.8724 C.3       3 UNK         0.0876 
     19 N          19.6662  -26.3439  -41.7004 N.am      3 UNK        -0.4424 
     20 C          20.5017  -25.5519  -42.3905 C.2       2 UNK         0.4918 
     21 O          21.7295  -25.6196  -42.3102 O.2       2 UNK        -0.4875 
     22 CA         19.8503  -24.5225  -43.3373 C.3       2 UNK         0.0481 
     23 CB         20.8890  -23.8027  -44.2230 C.3       2 UNK        -0.1831 
     24 N          18.7830  -25.0885  -44.1754 N.am      2 UNK        -0.4498 
     25 C          18.8645  -26.1732  -44.9656 C.2       1 UNK         0.5027 
     26 O          19.8617  -26.8882  -45.0666 O.2       1 UNK        -0.4969 
     27 C          21.1239  -27.1696  -39.8004 C.2       3 UNK         0.5005 
     28 O          22.0032  -27.9935  -39.5498 O.2       3 UNK        -0.5279 
     29 N          21.0711  -25.9547  -39.2336 N.am      4 UNK        -0.4463 
     30 CA         22.0469  -25.4363  -38.2680 C.3       4 UNK         0.0283 
     31 CB         21.5738  -24.0659  -37.7572 C.3       4 UNK        -0.1875 
     32 C          23.4873  -25.3365  -38.8108 C.2       4 UNK         0.4949 
     33 O          24.4278  -25.4195  -38.0204 O.2       4 UNK        -0.5039 
     34 N          23.6356  -25.1661  -40.1314 N.am      5 UNK        -0.4663 
     35 CA         24.9208  -25.1490  -40.8304 C.3       5 UNK         0.0242 
     36 CB         24.9307  -23.9885  -41.8397 C.3       5 UNK        -0.1982 
     37 C          25.1868  -26.4828  -41.5452 C.2       5 UNK         0.5017 
     38 O          26.3197  -26.9640  -41.5166 O.2       5 UNK        -0.5012 
     39 N          24.1519  -27.0444  -42.1869 N.am      6 UNK        -0.4439 
     40 CA         24.2317  -28.2550  -43.0083 C.3       6 UNK         0.0297 
     41 CB         22.9859  -28.3374  -43.9024 C.3       6 UNK        -0.2006 
     42 C          24.4168  -29.5565  -42.2050 C.2       6 UNK         0.4892 
     43 O          24.9954  -30.5029  -42.7410 O.2       6 UNK        -0.5089 
     44 N          23.9518  -29.5744  -40.9470 N.am      7 UNK        -0.4243 
     45 CA         24.0076  -30.6869  -39.9945 C.3       7 UNK         0.0196 
     46 CB         25.4703  -31.0398  -39.6346 C.3       7 UNK        -0.2007 
     47 C          23.1476  -31.8884  -40.4376 C.2       7 UNK         0.5020 
     48 O          22.0637  -31.6940  -40.9890 O.2       7 UNK        -0.5147 
     49 N          23.6045  -33.1097  -40.1328 N.am      8 UNK        -0.4734 
     50 CA         22.8919  -34.3661  -40.3699 C.3       8 UNK         0.0238 
     51 CB         23.5057  -35.4601  -39.4760 C.3       8 UNK        -0.1912 
     52 C          22.8934  -34.7643  -41.8573 C.2       8 UNK         0.5038 
     53 O          23.7163  -35.5830  -42.2729 O.2       8 UNK        -0.5046 
     54 N          21.9721  -34.1750  -42.6273 N.am      9 UNK        -0.4200 
     55 CA         21.7448  -34.4657  -44.0538 C.3       9 UNK         0.0839 
     56 C          21.1481  -35.8733  -44.3490 C.2       9 UNK         0.5513 
     57 N          20.6107  -36.5911  -43.3696 N.am      9 UNK        -0.7519 
     58 O          21.1769  -36.3225  -45.4919 O.2       9 UNK        -0.4960 
     59 C59        20.8925  -33.3648  -44.7366 C.3       10 UNK        -0.0876 
     60 S60        21.6543  -31.7157  -44.6006 S.3       10 UNK        -0.2414 
     61 C61        20.3233  -30.6515  -45.2524 C.3       10 UNK         0.0169 
     62 H62        16.2486  -23.2932  -47.8036 H         1 UNK         0.0903 
     63 H63        17.8679  -22.6765  -48.1372 H         1 UNK         0.0903 
     64 H64        17.0649  -23.7284  -49.3061 H         1 UNK         0.0903 
     65 H65        16.2588  -24.9671  -46.3311 H         1 UNK         0.3096 
     66 H66        17.9386  -27.2644  -46.5190 H         1 UNK         0.1121 
     67 H67        15.8368  -26.2839  -44.5399 H         1 UNK         0.0849 
     68 H68        16.8564  -27.5961  -44.0625 H         1 UNK         0.0849 
     69 H69        14.5718  -29.6174  -44.1909 H         1 UNK         0.0865 
     70 H70        15.0332  -30.5644  -45.5794 H         1 UNK         0.0865 
     71 H71        17.8163  -30.1181  -46.0865 H         1 UNK         0.1346 
     72 H72        20.0173  -30.9735  -42.4969 H         1 UNK         0.1412 
     73 H73        15.8094  -30.2202  -42.3051 H         1 UNK         0.1426 
     74 H74        18.0757  -31.9383  -40.5585 H         1 UNK         0.0716 
     75 H75        16.9431  -30.6346  -40.3060 H         1 UNK         0.0716 
     76 H76        18.4725  -27.6786  -39.3603 H         1 UNK         0.0695 
     77 H77        17.9893  -28.1851  -40.9528 H         1 UNK         0.0695 
     78 H78        20.5256  -28.1973  -41.5663 H         1 UNK         0.0983 
     79 H79        18.6747  -26.2046  -41.8268 H         1 UNK         0.3095 
     80 H80        19.3814  -23.7722  -42.6994 H         1 UNK         0.0454 
     81 H81        21.6341  -23.2872  -43.6157 H         1 UNK         0.0851 
     82 H82        20.4181  -23.0544  -44.8601 H         1 UNK         0.0851 
     83 H83        21.4223  -24.5028  -44.8674 H         1 UNK         0.0851 
     84 H84        17.9133  -24.5739  -44.1797 H         1 UNK         0.2976 
     85 H85        20.3229  -25.3335  -39.5059 H         1 UNK         0.3116 
     86 H86        22.0676  -26.1271  -37.4224 H         1 UNK         0.0646 
     87 H87        22.2656  -23.6669  -37.0139 H         1 UNK         0.0847 
     88 H88        21.5071  -23.3348  -38.5639 H         1 UNK         0.0847 
     89 H89        20.5956  -24.1336  -37.2808 H         1 UNK         0.0847 
     90 H90        22.8058  -25.1455  -40.7147 H         1 UNK         0.3040 
     91 H91        25.7363  -24.9856  -40.1220 H         1 UNK         0.1015 
     92 H92        25.8785  -23.9480  -42.3784 H         1 UNK         0.0786 
     93 H93        24.8020  -23.0290  -41.3386 H         1 UNK         0.0786 
     94 H94        24.1370  -24.0870  -42.5816 H         1 UNK         0.0786 
     95 H95        23.2589  -26.5554  -42.1880 H         1 UNK         0.3172 
     96 H96        25.1008  -28.1493  -43.6611 H         1 UNK         0.0595 
     97 H97        22.0838  -28.5457  -43.3268 H         1 UNK         0.0839 
     98 H98        23.0968  -29.1349  -44.6368 H         1 UNK         0.0839 
     99 H99        22.8225  -27.4123  -44.4559 H         1 UNK         0.0839 
    100 H100       23.4187  -28.7741  -40.6174 H         1 UNK         0.2998 
    101 H101       23.5333  -30.3108  -39.0868 H         1 UNK         0.0822 
    102 H102       25.5193  -31.7049  -38.7718 H         1 UNK         0.0787 
    103 H103       25.9899  -31.5261  -40.4611 H         1 UNK         0.0787 
    104 H104       26.0345  -30.1444  -39.3729 H         1 UNK         0.0787 
    105 H105       24.5170  -33.1832  -39.7069 H         1 UNK         0.3055 
    106 H106       21.8513  -34.2373  -40.0625 H         1 UNK         0.1106 
    107 H107       23.4106  -35.2092  -38.4194 H         1 UNK         0.0828 
    108 H108       23.0006  -36.4152  -39.6266 H         1 UNK         0.0828 
    109 H109       24.5640  -35.6148  -39.6900 H         1 UNK         0.0828 
    110 H110       21.4196  -33.4284  -42.2253 H         1 UNK         0.2931 
    111 H111       22.7258  -34.4562  -44.5332 H         1 UNK         0.0412 
    112 H112       20.5761  -36.2311  -42.4297 H         1 UNK         0.3472 
    113 H113       20.2313  -37.5021  -43.5759 H         1 UNK         0.3472 
    114 H114       20.7594  -33.5821  -45.7983 H         1 UNK         0.0970 
    115 H115       19.8921  -33.3354  -44.3012 H         1 UNK         0.0970 
    116 H116       20.7155  -29.6408  -45.3685 H         1 UNK         0.0612 
    117 H117       20.0712  -31.0001  -46.2551 H         1 UNK         0.0612 
@<TRIPOS>BOND
     1    1    2 1    
     2    1   62 1    
     3    1   63 1    
     4    1   64 1    
     5    2    3 2    
     6    2    4 am   BACKBONE|DICT|INTERRES
     7    4    5 1    
     8    4   65 1    
     9    5    6 1    
    10    5   25 1    
    11    5   66 1    
    12    6    7 1    
    13    6   67 1    
    14    6   68 1    
    15    7    8 1    
    16    8    9 1    
    17    8   69 1    
    18    8   70 1    
    19    9   10 ar   
    20    9   14 ar   
    21   10   11 ar   
    22   10   71 1    
    23   11   12 ar   
    24   11   61 1    
    25   12   13 ar   
    26   12   72 1    
    27   13   14 ar   
    28   13   15 1    
    29   14   73 1    
    30   15   16 1    
    31   15   74 1    
    32   15   75 1    
    33   16   17 1    
    34   17   18 1    
    35   17   76 1    
    36   17   77 1    
    37   18   19 1    
    38   18   27 1    
    39   18   78 1    
    40   19   20 am   BACKBONE|DICT|INTERRES
    41   19   79 1    
    42   20   21 2    
    43   20   22 1    
    44   22   23 1    
    45   22   24 1    
    46   22   80 1    
    47   23   81 1    
    48   23   82 1    
    49   23   83 1    
    50   24   25 am   BACKBONE|DICT|INTERRES
    51   24   84 1    
    52   25   26 2    
    53   27   28 2    
    54   27   29 am   BACKBONE|DICT|INTERRES
    55   29   30 1    
    56   29   85 1    
    57   30   31 1    
    58   30   32 1    
    59   30   86 1    
    60   31   87 1    
    61   31   88 1    
    62   31   89 1    
    63   32   33 2    
    64   32   34 am   BACKBONE|DICT|INTERRES
    65   34   35 1    
    66   34   90 1    
    67   35   36 1    
    68   35   37 1    
    69   35   91 1    
    70   36   92 1    
    71   36   93 1    
    72   36   94 1    
    73   37   38 2    
    74   37   39 am   BACKBONE|DICT|INTERRES
    75   39   40 1    
    76   39   95 1    
    77   40   41 1    
    78   40   42 1    
    79   40   96 1    
    80   41   97 1    
    81   41   98 1    
    82   41   99 1    
    83   42   43 2    
    84   42   44 am   BACKBONE|DICT|INTERRES
    85   44   45 1    
    86   44  100 1    
    87   45   46 1    
    88   45   47 1    
    89   45  101 1    
    90   46  102 1    
    91   46  103 1    
    92   46  104 1    
    93   47   48 2    
    94   47   49 am   BACKBONE|DICT|INTERRES
    95   49   50 1    
    96   49  105 1    
    97   50   51 1    
    98   50   52 1    
    99   50  106 1    
   100   51  107 1    
   101   51  108 1    
   102   51  109 1    
   103   52   53 2    
   104   52   54 am   BACKBONE|DICT|INTERRES
   105   54   55 1    
   106   54  110 1    
   107   55   56 1    
   108   55   59 1    
   109   55  111 1    
   110   56   57 am   BACKBONE|DICT|INTERRES
   111   56   58 2    
   112   57  112 1    
   113   57  113 1    
   114   59   60 1    
   115   59  114 1    
   116   59  115 1    
   117   60   61 1    
   118   61  116 1    
   119   61  117 1    
@<TRIPOS>SUBSTRUCTURE
     1 UNK         1 GROUP             0       ****    0 ROOT    
