@<TRIPOS>MOLECULE
3R8
117   119    1
SMALL
USER_CHARGES


@<TRIPOS>ATOM
      1 CA         15.9616  -22.5780  -42.4449 C.3       0 UNK        -0.2013 
      2 C          16.9406  -23.3255  -43.3382 C.2       0 UNK         0.4866 
      3 O          17.5121  -22.7303  -44.2527 O.2       0 UNK        -0.5176 
      4 N          17.1303  -24.6267  -43.0873 N.am      1 UNK        -0.4884 
      5 CA         18.0722  -25.4883  -43.8107 C.3       1 UNK         0.0853 
      6 C6         17.7891  -26.9880  -43.5557 C.3       10 UNK        -0.0849 
      7 S7         16.2036  -27.5024  -44.2953 S.3       10 UNK        -0.2776 
      8 C8         15.8285  -29.0228  -43.3529 C.3       10 UNK         0.0316 
      9 C9         16.7563  -30.2187  -43.5914 C.ar      10 UNK        -0.0863 
     10 C10        16.6090  -31.3372  -42.7666 C.ar      10 UNK        -0.1009 
     11 C11        17.4137  -32.4670  -42.9337 C.ar      10 UNK        -0.0712 
     12 C12        18.3895  -32.4722  -43.9357 C.ar      10 UNK        -0.0894 
     13 C13        18.5572  -31.3650  -44.7736 C.ar      10 UNK        -0.0745 
     14 C14        17.7212  -30.2543  -44.6073 C.ar      10 UNK        -0.0972 
     15 C15        19.5859  -31.4144  -45.9034 C.3       10 UNK         0.0209 
     16 S16        20.4411  -29.8279  -46.2064 S.3       10 UNK        -0.2568 
     17 C17        21.9749  -30.0070  -45.2385 C.3       10 UNK        -0.0983 
     18 CA         22.8754  -28.7569  -45.3972 C.3       3 UNK         0.0876 
     19 N          22.2663  -27.5656  -44.7952 N.am      3 UNK        -0.4424 
     20 C          22.5752  -26.3027  -45.1131 C.2       2 UNK         0.4918 
     21 O          23.3243  -25.9884  -46.0391 O.2       2 UNK        -0.4875 
     22 CA         21.8823  -25.2245  -44.2695 C.3       2 UNK         0.0481 
     23 CB         22.2861  -23.7885  -44.6536 C.3       2 UNK        -0.1831 
     24 N          20.4378  -25.3961  -44.4026 N.am      2 UNK        -0.4498 
     25 C          19.5326  -25.1530  -43.4488 C.2       1 UNK         0.5027 
     26 O          19.8095  -24.7293  -42.3244 O.2       1 UNK        -0.4969 
     27 C          24.2959  -28.9897  -44.8379 C.2       3 UNK         0.5005 
     28 O          25.1570  -29.4960  -45.5592 O.2       3 UNK        -0.5279 
     29 N          24.5234  -28.5713  -43.5871 N.am      4 UNK        -0.4463 
     30 CA         25.8348  -28.3838  -42.9731 C.3       4 UNK         0.0283 
     31 CB         26.1299  -29.5384  -41.9929 C.3       4 UNK        -0.1875 
     32 C          25.8142  -26.9856  -42.3365 C.2       4 UNK         0.4949 
     33 O          25.5017  -26.0183  -43.0325 O.2       4 UNK        -0.5039 
     34 N          26.0838  -26.8892  -41.0271 N.am      5 UNK        -0.4663 
     35 CA         25.8838  -25.6669  -40.2355 C.3       5 UNK         0.0242 
     36 CB         26.5859  -25.8246  -38.8770 C.3       5 UNK        -0.1982 
     37 C          24.3931  -25.3214  -40.0372 C.2       5 UNK         0.5017 
     38 O          24.0655  -24.1615  -39.7861 O.2       5 UNK        -0.5012 
     39 N          23.5306  -26.3352  -40.1653 N.am      6 UNK        -0.4439 
     40 CA         22.0758  -26.2669  -40.1562 C.3       6 UNK         0.0297 
     41 CB         21.5503  -26.1702  -38.7071 C.3       6 UNK        -0.2006 
     42 C          21.5654  -27.4921  -40.9349 C.2       6 UNK         0.4892 
     43 O          22.2104  -27.9015  -41.9060 O.2       6 UNK        -0.5089 
     44 N          20.4455  -28.0780  -40.4944 N.am      7 UNK        -0.4243 
     45 CA         19.9346  -29.3692  -40.9560 C.3       7 UNK         0.0196 
     46 CB         18.5405  -29.5928  -40.3474 C.3       7 UNK        -0.2007 
     47 C          20.9005  -30.4988  -40.5528 C.2       7 UNK         0.5020 
     48 O          21.0278  -30.7875  -39.3615 O.2       7 UNK        -0.5147 
     49 N          21.5987  -31.0741  -41.5396 N.am      8 UNK        -0.4734 
     50 CA         22.6075  -32.1181  -41.3361 C.3       8 UNK         0.0238 
     51 CB         23.5093  -32.2121  -42.5789 C.3       8 UNK        -0.1912 
     52 C          21.9715  -33.4794  -41.0224 C.2       8 UNK         0.5038 
     53 O          22.3269  -34.1067  -40.0242 O.2       8 UNK        -0.5046 
     54 N          21.0415  -33.8913  -41.8935 N.am      9 UNK        -0.4200 
     55 CA         20.2417  -35.1254  -41.8107 C.3       9 UNK         0.0839 
     56 C          21.0550  -36.4540  -41.8856 C.2       9 UNK         0.5513 
     57 N          22.2773  -36.4486  -42.4036 N.am      9 UNK        -0.7519 
     58 O          20.5627  -37.5120  -41.5015 O.2       9 UNK        -0.4960 
     59 C59        19.2184  -35.1083  -40.6377 C.3       10 UNK        -0.0876 
     60 S60        18.2200  -33.5807  -40.5375 S.3       10 UNK        -0.2414 
     61 C61        17.2023  -33.6833  -42.0425 C.3       10 UNK         0.0169 
     62 H62        15.1562  -22.1533  -43.0436 H         1 UNK         0.0903 
     63 H63        15.5172  -23.2288  -41.6919 H         1 UNK         0.0903 
     64 H64        16.4706  -21.7631  -41.9307 H         1 UNK         0.0903 
     65 H65        16.6425  -25.0621  -42.3179 H         1 UNK         0.3096 
     66 H66        17.9463  -25.2901  -44.8782 H         1 UNK         0.1121 
     67 H67        18.5760  -27.6109  -43.9851 H         1 UNK         0.0849 
     68 H68        17.7835  -27.2008  -42.4854 H         1 UNK         0.0849 
     69 H69        15.8188  -28.7781  -42.2897 H         1 UNK         0.0865 
     70 H70        14.8116  -29.3283  -43.6030 H         1 UNK         0.0865 
     71 H71        15.8580  -31.3320  -41.9880 H         1 UNK         0.1346 
     72 H72        18.9999  -33.3510  -44.0831 H         1 UNK         0.1412 
     73 H73        17.8244  -29.4223  -45.2874 H         1 UNK         0.1426 
     74 H74        19.0644  -31.6984  -46.8182 H         1 UNK         0.0716 
     75 H75        20.3271  -32.1939  -45.7210 H         1 UNK         0.0716 
     76 H76        22.4924  -30.9026  -45.5881 H         1 UNK         0.0695 
     77 H77        21.7199  -30.1744  -44.1927 H         1 UNK         0.0695 
     78 H78        22.9987  -28.5688  -46.4665 H         1 UNK         0.0983 
     79 H79        21.6835  -27.7236  -43.9833 H         1 UNK         0.3095 
     80 H80        22.1825  -25.3962  -43.2339 H         1 UNK         0.0454 
     81 H81        23.3642  -23.6509  -44.5615 H         1 UNK         0.0851 
     82 H82        21.8097  -23.0557  -44.0023 H         1 UNK         0.0851 
     83 H83        22.0106  -23.5529  -45.6821 H         1 UNK         0.0851 
     84 H84        20.1292  -25.7698  -45.2907 H         1 UNK         0.2976 
     85 H85        23.7417  -28.1708  -43.0736 H         1 UNK         0.3116 
     86 H86        26.6139  -28.3665  -43.7380 H         1 UNK         0.0646 
     87 H87        27.0900  -29.4029  -41.4933 H         1 UNK         0.0847 
     88 H88        26.1915  -30.4878  -42.5242 H         1 UNK         0.0847 
     89 H89        25.3584  -29.6368  -41.2279 H         1 UNK         0.0847 
     90 H90        26.3583  -27.7208  -40.5233 H         1 UNK         0.3040 
     91 H91        26.3443  -24.8310  -40.7674 H         1 UNK         0.1015 
     92 H92        26.4784  -24.9205  -38.2758 H         1 UNK         0.0786 
     93 H93        27.6542  -26.0038  -39.0004 H         1 UNK         0.0786 
     94 H94        26.1696  -26.6508  -38.2992 H         1 UNK         0.0786 
     95 H95        23.9006  -27.2376  -40.4295 H         1 UNK         0.3172 
     96 H96        21.7674  -25.3770  -40.7062 H         1 UNK         0.0595 
     97 H97        21.7752  -27.0706  -38.1335 H         1 UNK         0.0839 
     98 H98        20.4711  -26.0153  -38.6840 H         1 UNK         0.0839 
     99 H99        21.9960  -25.3258  -38.1810 H         1 UNK         0.0839 
    100 H100       19.9986  -27.6898  -39.6771 H         1 UNK         0.2998 
    101 H101       19.8364  -29.3444  -42.0437 H         1 UNK         0.0822 
    102 H102       17.8252  -28.8512  -40.7004 H         1 UNK         0.0787 
    103 H103       18.5606  -29.5482  -39.2578 H         1 UNK         0.0787 
    104 H104       18.1534  -30.5739  -40.6184 H         1 UNK         0.0787 
    105 H105       21.4494  -30.7550  -42.4839 H         1 UNK         0.3055 
    106 H106       23.2302  -31.8349  -40.4839 H         1 UNK         0.1106 
    107 H107       22.9614  -32.5268  -43.4676 H         1 UNK         0.0828 
    108 H108       23.9716  -31.2533  -42.8016 H         1 UNK         0.0828 
    109 H109       24.3152  -32.9302  -42.4213 H         1 UNK         0.0828 
    110 H110       20.8286  -33.2870  -42.6709 H         1 UNK         0.2931 
    111 H111       19.6633  -35.1393  -42.7331 H         1 UNK         0.0412 
    112 H112       22.6910  -35.5913  -42.7323 H         1 UNK         0.3472 
    113 H113       22.7936  -37.3128  -42.4591 H         1 UNK         0.3472 
    114 H114       18.5349  -35.9561  -40.7118 H         1 UNK         0.0970 
    115 H115       19.7408  -35.2272  -39.6869 H         1 UNK         0.0970 
    116 H116       16.1540  -33.7515  -41.7480 H         1 UNK         0.0612 
    117 H117       17.4135  -34.5981  -42.5966 H         1 UNK         0.0612 
@<TRIPOS>BOND
     1    1    2 1    
     2    1   62 1    
     3    1   63 1    
     4    1   64 1    
     5    2    3 2    
     6    2    4 am   BACKBONE|DICT|INTERRES
     7    4    5 1    
     8    4   65 1    
     9    5    6 1    
    10    5   25 1    
    11    5   66 1    
    12    6    7 1    
    13    6   67 1    
    14    6   68 1    
    15    7    8 1    
    16    8    9 1    
    17    8   69 1    
    18    8   70 1    
    19    9   10 ar   
    20    9   14 ar   
    21   10   11 ar   
    22   10   71 1    
    23   11   12 ar   
    24   11   61 1    
    25   12   13 ar   
    26   12   72 1    
    27   13   14 ar   
    28   13   15 1    
    29   14   73 1    
    30   15   16 1    
    31   15   74 1    
    32   15   75 1    
    33   16   17 1    
    34   17   18 1    
    35   17   76 1    
    36   17   77 1    
    37   18   19 1    
    38   18   27 1    
    39   18   78 1    
    40   19   20 am   BACKBONE|DICT|INTERRES
    41   19   79 1    
    42   20   21 2    
    43   20   22 1    
    44   22   23 1    
    45   22   24 1    
    46   22   80 1    
    47   23   81 1    
    48   23   82 1    
    49   23   83 1    
    50   24   25 am   BACKBONE|DICT|INTERRES
    51   24   84 1    
    52   25   26 2    
    53   27   28 2    
    54   27   29 am   BACKBONE|DICT|INTERRES
    55   29   30 1    
    56   29   85 1    
    57   30   31 1    
    58   30   32 1    
    59   30   86 1    
    60   31   87 1    
    61   31   88 1    
    62   31   89 1    
    63   32   33 2    
    64   32   34 am   BACKBONE|DICT|INTERRES
    65   34   35 1    
    66   34   90 1    
    67   35   36 1    
    68   35   37 1    
    69   35   91 1    
    70   36   92 1    
    71   36   93 1    
    72   36   94 1    
    73   37   38 2    
    74   37   39 am   BACKBONE|DICT|INTERRES
    75   39   40 1    
    76   39   95 1    
    77   40   41 1    
    78   40   42 1    
    79   40   96 1    
    80   41   97 1    
    81   41   98 1    
    82   41   99 1    
    83   42   43 2    
    84   42   44 am   BACKBONE|DICT|INTERRES
    85   44   45 1    
    86   44  100 1    
    87   45   46 1    
    88   45   47 1    
    89   45  101 1    
    90   46  102 1    
    91   46  103 1    
    92   46  104 1    
    93   47   48 2    
    94   47   49 am   BACKBONE|DICT|INTERRES
    95   49   50 1    
    96   49  105 1    
    97   50   51 1    
    98   50   52 1    
    99   50  106 1    
   100   51  107 1    
   101   51  108 1    
   102   51  109 1    
   103   52   53 2    
   104   52   54 am   BACKBONE|DICT|INTERRES
   105   54   55 1    
   106   54  110 1    
   107   55   56 1    
   108   55   59 1    
   109   55  111 1    
   110   56   57 am   BACKBONE|DICT|INTERRES
   111   56   58 2    
   112   57  112 1    
   113   57  113 1    
   114   59   60 1    
   115   59  114 1    
   116   59  115 1    
   117   60   61 1    
   118   61  116 1    
   119   61  117 1    
@<TRIPOS>SUBSTRUCTURE
     1 UNK         1 GROUP             0       ****    0 ROOT    
