@<TRIPOS>MOLECULE
3R8
117   119    1
SMALL
USER_CHARGES


@<TRIPOS>ATOM
      1 CA         12.2833  -25.3828  -42.2097 C.3       0 UNK        -0.2013 
      2 C          13.6622  -25.3674  -42.8526 C.2       0 UNK         0.4866 
      3 O          14.4471  -24.4537  -42.5961 O.2       0 UNK        -0.5176 
      4 N          13.9604  -26.3661  -43.6930 N.am      1 UNK        -0.4884 
      5 CA         15.2641  -26.5482  -44.3378 C.3       1 UNK         0.0853 
      6 C6         15.1540  -27.5099  -45.5470 C.3       10 UNK        -0.0849 
      7 S7         16.6049  -27.4368  -46.6571 S.3       10 UNK        -0.2776 
      8 C8         17.0157  -29.2000  -46.8673 C.3       10 UNK         0.0316 
      9 C9         17.9980  -29.7163  -45.8214 C.ar      10 UNK        -0.0863 
     10 C10        17.5401  -30.2445  -44.6100 C.ar      10 UNK        -0.1009 
     11 C11        18.4351  -30.8130  -43.6968 C.ar      10 UNK        -0.0712 
     12 C12        19.8006  -30.8369  -43.9968 C.ar      10 UNK        -0.0894 
     13 C13        20.2753  -30.3084  -45.2008 C.ar      10 UNK        -0.0745 
     14 C14        19.3672  -29.7460  -46.1055 C.ar      10 UNK        -0.0972 
     15 C15        21.7505  -30.4479  -45.5626 C.3       10 UNK         0.0209 
     16 S16        22.5059  -28.9091  -46.1840 S.3       10 UNK        -0.2568 
     17 C17        23.1483  -28.1258  -44.6696 C.3       10 UNK        -0.0983 
     18 CA         22.3033  -26.8980  -44.2568 C.3       3 UNK         0.0876 
     19 N          21.0204  -27.3043  -43.6822 N.am      3 UNK        -0.4424 
     20 C          19.9491  -26.5111  -43.6098 C.2       2 UNK         0.4918 
     21 O          19.8842  -25.3899  -44.1220 O.2       2 UNK        -0.4875 
     22 CA         18.7542  -27.0451  -42.8166 C.3       2 UNK         0.0481 
     23 CB         18.8050  -26.5705  -41.3530 C.3       2 UNK        -0.1831 
     24 N          17.5488  -26.5740  -43.4838 N.am      2 UNK        -0.4498 
     25 C          16.3106  -27.0470  -43.3215 C.2       1 UNK         0.5027 
     26 O          15.9827  -27.8677  -42.4617 O.2       1 UNK        -0.4969 
     27 C          23.0711  -26.0257  -43.2451 C.2       3 UNK         0.5005 
     28 O          22.9111  -26.2058  -42.0355 O.2       3 UNK        -0.5279 
     29 N          23.9396  -25.1354  -43.7471 N.am      4 UNK        -0.4463 
     30 CA         24.7912  -24.2529  -42.9352 C.3       4 UNK         0.0283 
     31 CB         25.5250  -23.2619  -43.8529 C.3       4 UNK        -0.1875 
     32 C          25.7977  -25.0080  -42.0455 C.2       4 UNK         0.4949 
     33 O          26.1309  -24.5283  -40.9624 O.2       4 UNK        -0.5039 
     34 N          26.2328  -26.1878  -42.5065 N.am      5 UNK        -0.4663 
     35 CA         27.0828  -27.1250  -41.7673 C.3       5 UNK         0.0242 
     36 CB         28.0109  -27.8321  -42.7716 C.3       5 UNK        -0.1982 
     37 C          26.2721  -28.1569  -40.9563 C.2       5 UNK         0.5017 
     38 O          26.8751  -29.0713  -40.3918 O.2       5 UNK        -0.5012 
     39 N          24.9348  -28.0301  -40.9387 N.am      6 UNK        -0.4439 
     40 CA         23.9293  -28.9432  -40.3813 C.3       6 UNK         0.0297 
     41 CB         24.1170  -29.1640  -38.8675 C.3       6 UNK        -0.2006 
     42 C          23.8328  -30.2644  -41.1615 C.2       6 UNK         0.4892 
     43 O          22.7834  -30.5400  -41.7451 O.2       6 UNK        -0.5089 
     44 N          24.9334  -31.0291  -41.1897 N.am      7 UNK        -0.4243 
     45 CA         25.1173  -32.3151  -41.8685 C.3       7 UNK         0.0196 
     46 CB         25.1909  -32.1095  -43.3983 C.3       7 UNK        -0.2007 
     47 C          24.0680  -33.3510  -41.4236 C.2       7 UNK         0.5020 
     48 O          24.2070  -33.9190  -40.3404 O.2       7 UNK        -0.5147 
     49 N          23.0401  -33.5714  -42.2534 N.am      8 UNK        -0.4734 
     50 CA         21.9008  -34.4440  -41.9582 C.3       8 UNK         0.0238 
     51 CB         21.1660  -34.7664  -43.2704 C.3       8 UNK        -0.1912 
     52 C          20.9191  -33.8492  -40.9305 C.2       8 UNK         0.5038 
     53 O          20.1867  -34.6125  -40.2993 O.2       8 UNK        -0.5046 
     54 N          20.8994  -32.5166  -40.7997 N.am      9 UNK        -0.4200 
     55 CA         20.0614  -31.7728  -39.8503 C.3       9 UNK         0.0839 
     56 C          20.7229  -31.6594  -38.4490 C.2       9 UNK         0.5513 
     57 N          19.9790  -31.1890  -37.4572 N.am      9 UNK        -0.7519 
     58 O          21.8914  -31.9803  -38.2451 O.2       9 UNK        -0.4960 
     59 C59        19.6468  -30.3896  -40.4413 C.3       10 UNK        -0.0876 
     60 S60        17.9072  -30.3613  -40.9859 S.3       10 UNK        -0.2414 
     61 C61        17.9133  -31.4743  -42.4278 C.3       10 UNK         0.0169 
     62 H62        11.6861  -26.2310  -42.5439 H         1 UNK         0.0903 
     63 H63        12.3761  -25.4398  -41.1256 H         1 UNK         0.0903 
     64 H64        11.7431  -24.4697  -42.4581 H         1 UNK         0.0903 
     65 H65        13.2907  -27.1086  -43.8371 H         1 UNK         0.3096 
     66 H66        15.5806  -25.5697  -44.7078 H         1 UNK         0.1121 
     67 H67        14.9750  -28.5330  -45.2120 H         1 UNK         0.0849 
     68 H68        14.2856  -27.2420  -46.1512 H         1 UNK         0.0849 
     69 H69        16.1060  -29.8023  -46.8628 H         1 UNK         0.0865 
     70 H70        17.4437  -29.3314  -47.8623 H         1 UNK         0.0865 
     71 H71        16.4820  -30.2433  -44.3884 H         1 UNK         0.1346 
     72 H72        20.4908  -31.3028  -43.3085 H         1 UNK         0.1412 
     73 H73        19.7257  -29.3630  -47.0513 H         1 UNK         0.1426 
     74 H74        22.3253  -30.8219  -44.7157 H         1 UNK         0.0716 
     75 H75        21.8346  -31.2061  -46.3421 H         1 UNK         0.0716 
     76 H76        23.2121  -28.8522  -43.8583 H         1 UNK         0.0695 
     77 H77        24.1771  -27.8346  -44.8901 H         1 UNK         0.0695 
     78 H78        22.1124  -26.2881  -45.1432 H         1 UNK         0.0983 
     79 H79        21.0014  -28.2059  -43.2303 H         1 UNK         0.3095 
     80 H80        18.7698  -28.1347  -42.8482 H         1 UNK         0.0454 
     81 H81        18.7462  -25.4840  -41.2806 H         1 UNK         0.0851 
     82 H82        17.9875  -26.9921  -40.7683 H         1 UNK         0.0851 
     83 H83        19.7353  -26.8810  -40.8755 H         1 UNK         0.0851 
     84 H84        17.7342  -25.9093  -44.2253 H         1 UNK         0.2976 
     85 H85        24.0235  -25.0451  -44.7504 H         1 UNK         0.3116 
     86 H86        24.1368  -23.6822  -42.2726 H         1 UNK         0.0646 
     87 H87        26.1452  -22.5782  -43.2712 H         1 UNK         0.0847 
     88 H88        24.8236  -22.6520  -44.4225 H         1 UNK         0.0847 
     89 H89        26.1801  -23.7723  -44.5600 H         1 UNK         0.0847 
     90 H90        25.9141  -26.4888  -43.4161 H         1 UNK         0.3040 
     91 H91        27.7041  -26.5755  -41.0564 H         1 UNK         0.1015 
     92 H92        28.6038  -27.1134  -43.3377 H         1 UNK         0.0786 
     93 H93        27.4495  -28.4399  -43.4826 H         1 UNK         0.0786 
     94 H94        28.7127  -28.4933  -42.2613 H         1 UNK         0.0786 
     95 H95        24.5323  -27.2303  -41.4173 H         1 UNK         0.3172 
     96 H96        22.9714  -28.4369  -40.5100 H         1 UNK         0.0595 
     97 H97        23.2825  -29.7298  -38.4544 H         1 UNK         0.0839 
     98 H98        24.1569  -28.2152  -38.3327 H         1 UNK         0.0839 
     99 H99        25.0266  -29.7173  -38.6342 H         1 UNK         0.0839 
    100 H100       25.7461  -30.6647  -40.7011 H         1 UNK         0.2998 
    101 H101       26.0845  -32.7019  -41.5437 H         1 UNK         0.0822 
    102 H102       26.0461  -31.4878  -43.6637 H         1 UNK         0.0787 
    103 H103       25.3138  -33.0602  -43.9191 H         1 UNK         0.0787 
    104 H104       24.3024  -31.6226  -43.7971 H         1 UNK         0.0787 
    105 H105       23.0058  -33.0459  -43.1145 H         1 UNK         0.3055 
    106 H106       22.2821  -35.3779  -41.5384 H         1 UNK         0.1106 
    107 H107       20.3271  -35.4407  -43.0919 H         1 UNK         0.0828 
    108 H108       20.7655  -33.8689  -43.7433 H         1 UNK         0.0828 
    109 H109       21.8262  -35.2578  -43.9853 H         1 UNK         0.0828 
    110 H110       21.6045  -31.9675  -41.2827 H         1 UNK         0.2931 
    111 H111       19.1581  -32.3622  -39.6800 H         1 UNK         0.0412 
    112 H112       20.3839  -31.1047  -36.5377 H         1 UNK         0.3472 
    113 H113       19.0167  -30.9269  -37.6073 H         1 UNK         0.3472 
    114 H114       20.2842  -30.0873  -41.2709 H         1 UNK         0.0970 
    115 H115       19.7529  -29.5861  -39.7099 H         1 UNK         0.0970 
    116 H116       18.4884  -32.3732  -42.2066 H         1 UNK         0.0612 
    117 H117       16.8902  -31.8157  -42.5918 H         1 UNK         0.0612 
@<TRIPOS>BOND
     1    1    2 1    
     2    1   62 1    
     3    1   63 1    
     4    1   64 1    
     5    2    3 2    
     6    2    4 am   BACKBONE|DICT|INTERRES
     7    4    5 1    
     8    4   65 1    
     9    5    6 1    
    10    5   25 1    
    11    5   66 1    
    12    6    7 1    
    13    6   67 1    
    14    6   68 1    
    15    7    8 1    
    16    8    9 1    
    17    8   69 1    
    18    8   70 1    
    19    9   10 ar   
    20    9   14 ar   
    21   10   11 ar   
    22   10   71 1    
    23   11   12 ar   
    24   11   61 1    
    25   12   13 ar   
    26   12   72 1    
    27   13   14 ar   
    28   13   15 1    
    29   14   73 1    
    30   15   16 1    
    31   15   74 1    
    32   15   75 1    
    33   16   17 1    
    34   17   18 1    
    35   17   76 1    
    36   17   77 1    
    37   18   19 1    
    38   18   27 1    
    39   18   78 1    
    40   19   20 am   BACKBONE|DICT|INTERRES
    41   19   79 1    
    42   20   21 2    
    43   20   22 1    
    44   22   23 1    
    45   22   24 1    
    46   22   80 1    
    47   23   81 1    
    48   23   82 1    
    49   23   83 1    
    50   24   25 am   BACKBONE|DICT|INTERRES
    51   24   84 1    
    52   25   26 2    
    53   27   28 2    
    54   27   29 am   BACKBONE|DICT|INTERRES
    55   29   30 1    
    56   29   85 1    
    57   30   31 1    
    58   30   32 1    
    59   30   86 1    
    60   31   87 1    
    61   31   88 1    
    62   31   89 1    
    63   32   33 2    
    64   32   34 am   BACKBONE|DICT|INTERRES
    65   34   35 1    
    66   34   90 1    
    67   35   36 1    
    68   35   37 1    
    69   35   91 1    
    70   36   92 1    
    71   36   93 1    
    72   36   94 1    
    73   37   38 2    
    74   37   39 am   BACKBONE|DICT|INTERRES
    75   39   40 1    
    76   39   95 1    
    77   40   41 1    
    78   40   42 1    
    79   40   96 1    
    80   41   97 1    
    81   41   98 1    
    82   41   99 1    
    83   42   43 2    
    84   42   44 am   BACKBONE|DICT|INTERRES
    85   44   45 1    
    86   44  100 1    
    87   45   46 1    
    88   45   47 1    
    89   45  101 1    
    90   46  102 1    
    91   46  103 1    
    92   46  104 1    
    93   47   48 2    
    94   47   49 am   BACKBONE|DICT|INTERRES
    95   49   50 1    
    96   49  105 1    
    97   50   51 1    
    98   50   52 1    
    99   50  106 1    
   100   51  107 1    
   101   51  108 1    
   102   51  109 1    
   103   52   53 2    
   104   52   54 am   BACKBONE|DICT|INTERRES
   105   54   55 1    
   106   54  110 1    
   107   55   56 1    
   108   55   59 1    
   109   55  111 1    
   110   56   57 am   BACKBONE|DICT|INTERRES
   111   56   58 2    
   112   57  112 1    
   113   57  113 1    
   114   59   60 1    
   115   59  114 1    
   116   59  115 1    
   117   60   61 1    
   118   61  116 1    
   119   61  117 1    
@<TRIPOS>SUBSTRUCTURE
     1 UNK         1 GROUP             0       ****    0 ROOT    
