@<TRIPOS>MOLECULE
3R8
117   119    1
SMALL
USER_CHARGES


@<TRIPOS>ATOM
      1 CA         15.0669  -23.1506  -41.6513 C.3       0 UNK        -0.2013 
      2 C          15.7784  -23.3497  -42.9812 C.2       0 UNK         0.4866 
      3 O          16.0863  -22.3723  -43.6645 O.2       0 UNK        -0.5176 
      4 N          16.0336  -24.6081  -43.3579 N.am      1 UNK        -0.4884 
      5 CA         16.7872  -24.9943  -44.5543 C.3       1 UNK         0.0853 
      6 C6         16.5495  -26.4809  -44.9368 C.3       10 UNK        -0.0849 
      7 S7         16.6705  -27.6622  -43.5421 S.3       10 UNK        -0.2776 
      8 C8         15.9260  -29.1643  -44.2643 C.3       10 UNK         0.0316 
      9 C9         16.9942  -30.1508  -44.7137 C.ar      10 UNK        -0.0863 
     10 C10        17.2192  -31.3295  -43.9933 C.ar      10 UNK        -0.1009 
     11 C11        18.2255  -32.2185  -44.3847 C.ar      10 UNK        -0.0712 
     12 C12        19.0295  -31.9063  -45.4846 C.ar      10 UNK        -0.0894 
     13 C13        18.8205  -30.7276  -46.2063 C.ar      10 UNK        -0.0745 
     14 C14        17.7746  -29.8753  -45.8396 C.ar      10 UNK        -0.0972 
     15 C15        19.7612  -30.3519  -47.3457 C.3       10 UNK         0.0209 
     16 S16        20.5206  -28.7017  -47.1326 S.3       10 UNK        -0.2568 
     17 C17        20.9988  -28.7147  -45.3672 C.3       10 UNK        -0.0983 
     18 CA         21.6877  -27.4111  -44.8973 C.3       3 UNK         0.0876 
     19 N          20.9360  -26.2169  -45.2928 N.am      3 UNK        -0.4424 
     20 C          21.3470  -24.9493  -45.1616 C.2       2 UNK         0.4918 
     21 O          22.4479  -24.6289  -44.7122 O.2       2 UNK        -0.4875 
     22 CA         20.3432  -23.8527  -45.5649 C.3       2 UNK         0.0481 
     23 CB         20.6625  -23.3339  -46.9758 C.3       2 UNK        -0.1831 
     24 N          18.9319  -24.2634  -45.5066 N.am      2 UNK        -0.4498 
     25 C          18.2877  -24.6664  -44.3999 C.2       1 UNK         0.5027 
     26 O          18.8398  -24.8082  -43.3062 O.2       1 UNK        -0.4969 
     27 C          21.9432  -27.4833  -43.3755 C.2       3 UNK         0.5005 
     28 O          22.8828  -28.1634  -42.9648 O.2       3 UNK        -0.5279 
     29 N          21.1382  -26.7737  -42.5636 N.am      4 UNK        -0.4463 
     30 CA         21.2251  -26.7274  -41.0980 C.3       4 UNK         0.0283 
     31 CB         20.0608  -25.8937  -40.5417 C.3       4 UNK        -0.1875 
     32 C          22.5680  -26.2146  -40.5401 C.2       4 UNK         0.4949 
     33 O          22.8654  -26.4638  -39.3721 O.2       4 UNK        -0.5039 
     34 N          23.3732  -25.5479  -41.3800 N.am      5 UNK        -0.4663 
     35 CA         24.7633  -25.1793  -41.0974 C.3       5 UNK         0.0242 
     36 CB         25.2670  -24.2531  -42.2160 C.3       5 UNK        -0.1982 
     37 C          25.7065  -26.3905  -40.9349 C.2       5 UNK         0.5017 
     38 O          26.7590  -26.2450  -40.3123 O.2       5 UNK        -0.5012 
     39 N          25.3214  -27.5530  -41.4785 N.am      6 UNK        -0.4439 
     40 CA         26.0255  -28.8263  -41.3580 C.3       6 UNK         0.0297 
     41 CB         26.9554  -29.0226  -42.5705 C.3       6 UNK        -0.2006 
     42 C          24.9754  -29.9363  -41.2116 C.2       6 UNK         0.4892 
     43 O          24.8742  -30.8127  -42.0729 O.2       6 UNK        -0.5089 
     44 N          24.1800  -29.8474  -40.1353 N.am      7 UNK        -0.4243 
     45 CA         23.0206  -30.6934  -39.8273 C.3       7 UNK         0.0196 
     46 CB         22.1887  -30.0072  -38.7262 C.3       7 UNK        -0.2007 
     47 C          23.3758  -32.1480  -39.4506 C.2       7 UNK         0.5020 
     48 O          22.9651  -32.6303  -38.3936 O.2       7 UNK        -0.5147 
     49 N          24.1062  -32.8451  -40.3288 N.am      8 UNK        -0.4734 
     50 CA         24.4845  -34.2572  -40.1894 C.3       8 UNK         0.0238 
     51 CB         25.4656  -34.6307  -41.3120 C.3       8 UNK        -0.1912 
     52 C          23.2801  -35.2175  -40.1793 C.2       8 UNK         0.5038 
     53 O          23.3641  -36.2864  -39.5732 O.2       8 UNK        -0.5046 
     54 N          22.1839  -34.8059  -40.8279 N.am      9 UNK        -0.4200 
     55 CA         20.8713  -35.4630  -40.7916 C.3       9 UNK         0.0839 
     56 C          20.0455  -35.2004  -39.4962 C.2       9 UNK         0.5513 
     57 N          20.4989  -34.3759  -38.5582 N.am      9 UNK        -0.7519 
     58 O          18.9725  -35.7752  -39.3304 O.2       9 UNK        -0.4960 
     59 C59        20.0613  -35.1779  -42.0843 C.3       10 UNK        -0.0876 
     60 S60        19.8204  -33.4031  -42.4514 S.3       10 UNK        -0.2414 
     61 C61        18.4440  -33.5232  -43.6340 C.3       10 UNK         0.0169 
     62 H62        14.8412  -24.0989  -41.1638 H         1 UNK         0.0903 
     63 H63        15.6899  -22.5630  -40.9774 H         1 UNK         0.0903 
     64 H64        14.1296  -22.6158  -41.8030 H         1 UNK         0.0903 
     65 H65        15.7953  -25.3760  -42.7451 H         1 UNK         0.3096 
     66 H66        16.4108  -24.3829  -45.3781 H         1 UNK         0.1121 
     67 H67        15.5471  -26.5687  -45.3589 H         1 UNK         0.0849 
     68 H68        17.2283  -26.7910  -45.7326 H         1 UNK         0.0849 
     69 H69        15.2790  -29.6227  -43.5149 H         1 UNK         0.0865 
     70 H70        15.2781  -28.9115  -45.1047 H         1 UNK         0.0865 
     71 H71        16.6132  -31.5564  -43.1266 H         1 UNK         0.1346 
     72 H72        19.8286  -32.5785  -45.7667 H         1 UNK         0.1412 
     73 H73        17.6101  -28.9658  -46.3991 H         1 UNK         0.1426 
     74 H74        19.2103  -30.3714  -48.2869 H         1 UNK         0.0716 
     75 H75        20.5619  -31.0870  -47.4412 H         1 UNK         0.0716 
     76 H76        20.1041  -28.8845  -44.7661 H         1 UNK         0.0695 
     77 H77        21.6507  -29.5738  -45.1957 H         1 UNK         0.0695 
     78 H78        22.6651  -27.3501  -45.3809 H         1 UNK         0.0983 
     79 H79        20.0270  -26.3856  -45.6963 H         1 UNK         0.3095 
     80 H80        20.4708  -23.0266  -44.8623 H         1 UNK         0.0454 
     81 H81        21.6974  -22.9947  -47.0422 H         1 UNK         0.0851 
     82 H82        20.5252  -24.1076  -47.7322 H         1 UNK         0.0851 
     83 H83        20.0306  -22.4863  -47.2414 H         1 UNK         0.0851 
     84 H84        18.4107  -24.1812  -46.3683 H         1 UNK         0.2976 
     85 H85        20.3976  -26.2185  -42.9799 H         1 UNK         0.3116 
     86 H86        21.1018  -27.7528  -40.7483 H         1 UNK         0.0646 
     87 H87        20.0627  -25.8963  -39.4508 H         1 UNK         0.0847 
     88 H88        19.0973  -26.2898  -40.8638 H         1 UNK         0.0847 
     89 H89        20.1207  -24.8538  -40.8653 H         1 UNK         0.0847 
     90 H90        23.0405  -25.3750  -42.3196 H         1 UNK         0.3040 
     91 H91        24.7805  -24.6271  -40.1552 H         1 UNK         0.1015 
     92 H92        24.6586  -23.3514  -42.2892 H         1 UNK         0.0786 
     93 H93        25.2492  -24.7486  -43.1879 H         1 UNK         0.0786 
     94 H94        26.2940  -23.9358  -42.0293 H         1 UNK         0.0786 
     95 H95        24.4254  -27.6031  -41.9621 H         1 UNK         0.3172 
     96 H96        26.6313  -28.8374  -40.4494 H         1 UNK         0.0595 
     97 H97        27.7101  -28.2377  -42.6220 H         1 UNK         0.0839 
     98 H98        26.3990  -29.0147  -43.5087 H         1 UNK         0.0839 
     99 H99        27.4817  -29.9759  -42.5089 H         1 UNK         0.0839 
    100 H100       24.3516  -29.0887  -39.4904 H         1 UNK         0.2998 
    101 H101       22.4022  -30.7433  -40.7264 H         1 UNK         0.0822 
    102 H102       21.9004  -28.9965  -39.0068 H         1 UNK         0.0787 
    103 H103       21.2681  -30.5586  -38.5294 H         1 UNK         0.0787 
    104 H104       22.7393  -29.9446  -37.7866 H         1 UNK         0.0787 
    105 H105       24.4280  -32.3494  -41.1587 H         1 UNK         0.3055 
    106 H106       24.9955  -34.3717  -39.2308 H         1 UNK         0.1106 
    107 H107       25.0149  -34.5115  -42.2982 H         1 UNK         0.0828 
    108 H108       26.3629  -34.0125  -41.2767 H         1 UNK         0.0828 
    109 H109       25.7855  -35.6698  -41.2221 H         1 UNK         0.0828 
    110 H110       22.2093  -33.9089  -41.2899 H         1 UNK         0.2931 
    111 H111       21.0578  -36.5387  -40.7849 H         1 UNK         0.0412 
    112 H112       19.9461  -34.2318  -37.7283 H         1 UNK         0.3472 
    113 H113       21.3871  -33.8976  -38.6548 H         1 UNK         0.3472 
    114 H114       19.0898  -35.6745  -42.0416 H         1 UNK         0.0970 
    115 H115       20.5770  -35.6244  -42.9359 H         1 UNK         0.0970 
    116 H116       17.5377  -33.8154  -43.1011 H         1 UNK         0.0612 
    117 H117       18.6505  -34.3197  -44.3508 H         1 UNK         0.0612 
@<TRIPOS>BOND
     1    1    2 1    
     2    1   62 1    
     3    1   63 1    
     4    1   64 1    
     5    2    3 2    
     6    2    4 am   BACKBONE|DICT|INTERRES
     7    4    5 1    
     8    4   65 1    
     9    5    6 1    
    10    5   25 1    
    11    5   66 1    
    12    6    7 1    
    13    6   67 1    
    14    6   68 1    
    15    7    8 1    
    16    8    9 1    
    17    8   69 1    
    18    8   70 1    
    19    9   10 ar   
    20    9   14 ar   
    21   10   11 ar   
    22   10   71 1    
    23   11   12 ar   
    24   11   61 1    
    25   12   13 ar   
    26   12   72 1    
    27   13   14 ar   
    28   13   15 1    
    29   14   73 1    
    30   15   16 1    
    31   15   74 1    
    32   15   75 1    
    33   16   17 1    
    34   17   18 1    
    35   17   76 1    
    36   17   77 1    
    37   18   19 1    
    38   18   27 1    
    39   18   78 1    
    40   19   20 am   BACKBONE|DICT|INTERRES
    41   19   79 1    
    42   20   21 2    
    43   20   22 1    
    44   22   23 1    
    45   22   24 1    
    46   22   80 1    
    47   23   81 1    
    48   23   82 1    
    49   23   83 1    
    50   24   25 am   BACKBONE|DICT|INTERRES
    51   24   84 1    
    52   25   26 2    
    53   27   28 2    
    54   27   29 am   BACKBONE|DICT|INTERRES
    55   29   30 1    
    56   29   85 1    
    57   30   31 1    
    58   30   32 1    
    59   30   86 1    
    60   31   87 1    
    61   31   88 1    
    62   31   89 1    
    63   32   33 2    
    64   32   34 am   BACKBONE|DICT|INTERRES
    65   34   35 1    
    66   34   90 1    
    67   35   36 1    
    68   35   37 1    
    69   35   91 1    
    70   36   92 1    
    71   36   93 1    
    72   36   94 1    
    73   37   38 2    
    74   37   39 am   BACKBONE|DICT|INTERRES
    75   39   40 1    
    76   39   95 1    
    77   40   41 1    
    78   40   42 1    
    79   40   96 1    
    80   41   97 1    
    81   41   98 1    
    82   41   99 1    
    83   42   43 2    
    84   42   44 am   BACKBONE|DICT|INTERRES
    85   44   45 1    
    86   44  100 1    
    87   45   46 1    
    88   45   47 1    
    89   45  101 1    
    90   46  102 1    
    91   46  103 1    
    92   46  104 1    
    93   47   48 2    
    94   47   49 am   BACKBONE|DICT|INTERRES
    95   49   50 1    
    96   49  105 1    
    97   50   51 1    
    98   50   52 1    
    99   50  106 1    
   100   51  107 1    
   101   51  108 1    
   102   51  109 1    
   103   52   53 2    
   104   52   54 am   BACKBONE|DICT|INTERRES
   105   54   55 1    
   106   54  110 1    
   107   55   56 1    
   108   55   59 1    
   109   55  111 1    
   110   56   57 am   BACKBONE|DICT|INTERRES
   111   56   58 2    
   112   57  112 1    
   113   57  113 1    
   114   59   60 1    
   115   59  114 1    
   116   59  115 1    
   117   60   61 1    
   118   61  116 1    
   119   61  117 1    
@<TRIPOS>SUBSTRUCTURE
     1 UNK         1 GROUP             0       ****    0 ROOT    
