@<TRIPOS>MOLECULE
3R8
117   119    1
SMALL
USER_CHARGES


@<TRIPOS>ATOM
      1 CA         13.2176  -23.6326  -44.2148 C.3       0 UNK        -0.2013 
      2 C          14.4811  -22.8246  -43.9313 C.2       0 UNK         0.4866 
      3 O          14.3817  -21.6819  -43.4883 O.2       0 UNK        -0.5176 
      4 N          15.6825  -23.3620  -44.1703 N.am      1 UNK        -0.4884 
      5 CA         15.9704  -24.6789  -44.7355 C.3       1 UNK         0.0853 
      6 C6         16.0045  -25.7805  -43.6424 C.3       10 UNK        -0.0849 
      7 S7         15.6767  -27.4419  -44.3188 S.3       10 UNK        -0.2776 
      8 C8         15.8500  -28.4767  -42.8293 C.3       10 UNK         0.0316 
      9 C9         17.3047  -28.8181  -42.5340 C.ar      10 UNK        -0.0863 
     10 C10        17.8779  -29.9735  -43.0770 C.ar      10 UNK        -0.1009 
     11 C11        19.2044  -30.3089  -42.7902 C.ar      10 UNK        -0.0712 
     12 C12        19.9568  -29.4805  -41.9547 C.ar      10 UNK        -0.0894 
     13 C13        19.4051  -28.3106  -41.4244 C.ar      10 UNK        -0.0745 
     14 C14        18.0731  -27.9926  -41.7063 C.ar      10 UNK        -0.0972 
     15 C15        20.2544  -27.3806  -40.5674 C.3       10 UNK         0.0209 
     16 S16        21.7566  -26.8200  -41.4369 S.3       10 UNK        -0.2568 
     17 C17        21.0585  -25.8983  -42.8520 C.3       10 UNK        -0.0983 
     18 CA         20.9274  -26.7471  -44.1433 C.3       3 UNK         0.0876 
     19 N          20.1677  -26.0352  -45.1682 N.am      3 UNK        -0.4424 
     20 C          19.6889  -26.5793  -46.2937 C.2       2 UNK         0.4918 
     21 O          19.8664  -27.7537  -46.6216 O.2       2 UNK        -0.4875 
     22 CA         18.7961  -25.6642  -47.1513 C.3       2 UNK         0.0481 
     23 CB         18.5298  -26.2417  -48.5536 C.3       2 UNK        -0.1831 
     24 N          17.5183  -25.4546  -46.4690 N.am      2 UNK        -0.4498 
     25 C          17.3169  -24.5850  -45.4714 C.2       1 UNK         0.5027 
     26 O          18.1647  -23.7697  -45.0931 O.2       1 UNK        -0.4969 
     27 C          22.2905  -27.2186  -44.6864 C.2       3 UNK         0.5005 
     28 O          23.1099  -26.3887  -45.0905 O.2       3 UNK        -0.5279 
     29 N          22.5166  -28.5387  -44.6675 N.am      4 UNK        -0.4463 
     30 CA         23.7660  -29.1852  -45.0684 C.3       4 UNK         0.0283 
     31 CB         23.4701  -30.6261  -45.5225 C.3       4 UNK        -0.1875 
     32 C          24.7967  -29.1176  -43.9283 C.2       4 UNK         0.4949 
     33 O          25.1247  -30.1398  -43.3256 O.2       4 UNK        -0.5039 
     34 N          25.2535  -27.8931  -43.6359 N.am      5 UNK        -0.4663 
     35 CA         26.2479  -27.4779  -42.6351 C.3       5 UNK         0.0242 
     36 CB         27.6106  -28.1553  -42.8815 C.3       5 UNK        -0.1982 
     37 C          25.8172  -27.6302  -41.1638 C.2       5 UNK         0.5017 
     38 O          26.1726  -26.7705  -40.3561 O.2       5 UNK        -0.5012 
     39 N          25.0763  -28.6903  -40.8286 N.am      6 UNK        -0.4439 
     40 CA         24.5731  -28.9826  -39.4899 C.3       6 UNK         0.0297 
     41 CB         25.6599  -29.7055  -38.6720 C.3       6 UNK        -0.2006 
     42 C          23.3110  -29.8420  -39.5946 C.2       6 UNK         0.4892 
     43 O          23.1078  -30.5140  -40.6075 O.2       6 UNK        -0.5089 
     44 N          22.5157  -29.8488  -38.5159 N.am      7 UNK        -0.4243 
     45 CA         21.2539  -30.5904  -38.3765 C.3       7 UNK         0.0196 
     46 CB         20.5554  -30.1425  -37.0820 C.3       7 UNK        -0.2007 
     47 C          21.3838  -32.1264  -38.4241 C.2       7 UNK         0.5020 
     48 O          20.3665  -32.8104  -38.5348 O.2       7 UNK        -0.5147 
     49 N          22.6167  -32.6476  -38.3569 N.am      8 UNK        -0.4734 
     50 CA         22.9434  -34.0484  -38.6393 C.3       8 UNK         0.0238 
     51 CB         24.3664  -34.3432  -38.1371 C.3       8 UNK        -0.1912 
     52 C          22.8136  -34.4057  -40.1344 C.2       8 UNK         0.5038 
     53 O          22.6542  -35.5847  -40.4525 O.2       8 UNK        -0.5046 
     54 N          22.8831  -33.3930  -41.0115 N.am      9 UNK        -0.4200 
     55 CA         22.7208  -33.4728  -42.4720 C.3       9 UNK         0.0839 
     56 C          23.8478  -34.2458  -43.2208 C.2       9 UNK         0.5513 
     57 N          25.0024  -34.4860  -42.6110 N.am      9 UNK        -0.7519 
     58 O          23.6886  -34.6096  -44.3833 O.2       9 UNK        -0.4960 
     59 C59        21.2904  -33.9085  -42.9107 C.3       10 UNK        -0.0876 
     60 S60        19.9762  -32.8820  -42.1661 S.3       10 UNK        -0.2414 
     61 C61        19.8440  -31.5490  -43.3932 C.3       10 UNK         0.0169 
     62 H62        13.2892  -24.6470  -43.8255 H         1 UNK         0.0903 
     63 H63        12.3528  -23.1631  -43.7463 H         1 UNK         0.0903 
     64 H64        13.0304  -23.6818  -45.2871 H         1 UNK         0.0903 
     65 H65        16.5168  -22.8048  -44.0265 H         1 UNK         0.3096 
     66 H66        15.2066  -24.9120  -45.4805 H         1 UNK         0.1121 
     67 H67        16.9578  -25.7759  -43.1114 H         1 UNK         0.0849 
     68 H68        15.2464  -25.5886  -42.8821 H         1 UNK         0.0849 
     69 H69        15.3923  -27.9787  -41.9731 H         1 UNK         0.0865 
     70 H70        15.2818  -29.3964  -42.9770 H         1 UNK         0.0865 
     71 H71        17.2902  -30.6122  -43.7224 H         1 UNK         0.1346 
     72 H72        20.9842  -29.7349  -41.7367 H         1 UNK         0.1412 
     73 H73        17.6348  -27.0983  -41.2854 H         1 UNK         0.1426 
     74 H74        20.5475  -27.9016  -39.6560 H         1 UNK         0.0716 
     75 H75        19.6824  -26.5071  -40.2508 H         1 UNK         0.0716 
     76 H76        21.6853  -25.0230  -43.0324 H         1 UNK         0.0695 
     77 H77        20.0814  -25.5092  -42.5606 H         1 UNK         0.0695 
     78 H78        20.3339  -27.6298  -43.9062 H         1 UNK         0.0983 
     79 H79        19.9433  -25.0666  -44.9776 H         1 UNK         0.3095 
     80 H80        19.3088  -24.7078  -47.2755 H         1 UNK         0.0454 
     81 H81        17.9994  -27.1938  -48.5087 H         1 UNK         0.0851 
     82 H82        19.4654  -26.4150  -49.0869 H         1 UNK         0.0851 
     83 H83        17.9359  -25.5560  -49.1580 H         1 UNK         0.0851 
     84 H84        16.7929  -26.1292  -46.6705 H         1 UNK         0.2976 
     85 H85        21.7977  -29.1449  -44.3013 H         1 UNK         0.3116 
     86 H86        24.1865  -28.6532  -45.9247 H         1 UNK         0.0646 
     87 H87        23.0348  -31.2238  -44.7241 H         1 UNK         0.0847 
     88 H88        24.3842  -31.1293  -45.8405 H         1 UNK         0.0847 
     89 H89        22.7815  -30.6426  -46.3673 H         1 UNK         0.0847 
     90 H90        24.8286  -27.1312  -44.1566 H         1 UNK         0.3040 
     91 H91        26.3859  -26.4074  -42.7975 H         1 UNK         0.1015 
     92 H92        27.5670  -29.2326  -42.7183 H         1 UNK         0.0786 
     93 H93        28.3692  -27.7581  -42.2057 H         1 UNK         0.0786 
     94 H94        27.9616  -27.9832  -43.8990 H         1 UNK         0.0786 
     95 H95        24.8145  -29.3571  -41.5526 H         1 UNK         0.3172 
     96 H96        24.3027  -28.0463  -38.9967 H         1 UNK         0.0595 
     97 H97        25.3121  -29.9362  -37.6644 H         1 UNK         0.0839 
     98 H98        26.5536  -29.0898  -38.5678 H         1 UNK         0.0839 
     99 H99        25.9562  -30.6451  -39.1406 H         1 UNK         0.0839 
    100 H100       22.7843  -29.2835  -37.7227 H         1 UNK         0.2998 
    101 H101       20.6168  -30.3145  -39.2186 H         1 UNK         0.0822 
    102 H102       19.5922  -30.6411  -36.9637 H         1 UNK         0.0787 
    103 H103       21.1534  -30.3755  -36.2002 H         1 UNK         0.0787 
    104 H104       20.3615  -29.0696  -37.0854 H         1 UNK         0.0787 
    105 H105       23.3917  -32.0119  -38.2397 H         1 UNK         0.3055 
    106 H106       22.2435  -34.6837  -38.0914 H         1 UNK         0.1106 
    107 H107       24.6335  -35.3863  -38.3130 H         1 UNK         0.0828 
    108 H108       25.1109  -33.7267  -38.6425 H         1 UNK         0.0828 
    109 H109       24.4538  -34.1656  -37.0651 H         1 UNK         0.0828 
    110 H110       23.0070  -32.4485  -40.6596 H         1 UNK         0.2931 
    111 H111       22.8481  -32.4422  -42.8004 H         1 UNK         0.0412 
    112 H112       25.1516  -34.1772  -41.6642 H         1 UNK         0.3472 
    113 H113       25.7308  -34.9767  -43.1055 H         1 UNK         0.3472 
    114 H114       21.1875  -33.8678  -43.9966 H         1 UNK         0.0970 
    115 H115       21.1110  -34.9483  -42.6335 H         1 UNK         0.0970 
    116 H116       19.2744  -31.9046  -44.2531 H         1 UNK         0.0612 
    117 H117       20.8366  -31.2918  -43.7626 H         1 UNK         0.0612 
@<TRIPOS>BOND
     1    1    2 1    
     2    1   62 1    
     3    1   63 1    
     4    1   64 1    
     5    2    3 2    
     6    2    4 am   BACKBONE|DICT|INTERRES
     7    4    5 1    
     8    4   65 1    
     9    5    6 1    
    10    5   25 1    
    11    5   66 1    
    12    6    7 1    
    13    6   67 1    
    14    6   68 1    
    15    7    8 1    
    16    8    9 1    
    17    8   69 1    
    18    8   70 1    
    19    9   10 ar   
    20    9   14 ar   
    21   10   11 ar   
    22   10   71 1    
    23   11   12 ar   
    24   11   61 1    
    25   12   13 ar   
    26   12   72 1    
    27   13   14 ar   
    28   13   15 1    
    29   14   73 1    
    30   15   16 1    
    31   15   74 1    
    32   15   75 1    
    33   16   17 1    
    34   17   18 1    
    35   17   76 1    
    36   17   77 1    
    37   18   19 1    
    38   18   27 1    
    39   18   78 1    
    40   19   20 am   BACKBONE|DICT|INTERRES
    41   19   79 1    
    42   20   21 2    
    43   20   22 1    
    44   22   23 1    
    45   22   24 1    
    46   22   80 1    
    47   23   81 1    
    48   23   82 1    
    49   23   83 1    
    50   24   25 am   BACKBONE|DICT|INTERRES
    51   24   84 1    
    52   25   26 2    
    53   27   28 2    
    54   27   29 am   BACKBONE|DICT|INTERRES
    55   29   30 1    
    56   29   85 1    
    57   30   31 1    
    58   30   32 1    
    59   30   86 1    
    60   31   87 1    
    61   31   88 1    
    62   31   89 1    
    63   32   33 2    
    64   32   34 am   BACKBONE|DICT|INTERRES
    65   34   35 1    
    66   34   90 1    
    67   35   36 1    
    68   35   37 1    
    69   35   91 1    
    70   36   92 1    
    71   36   93 1    
    72   36   94 1    
    73   37   38 2    
    74   37   39 am   BACKBONE|DICT|INTERRES
    75   39   40 1    
    76   39   95 1    
    77   40   41 1    
    78   40   42 1    
    79   40   96 1    
    80   41   97 1    
    81   41   98 1    
    82   41   99 1    
    83   42   43 2    
    84   42   44 am   BACKBONE|DICT|INTERRES
    85   44   45 1    
    86   44  100 1    
    87   45   46 1    
    88   45   47 1    
    89   45  101 1    
    90   46  102 1    
    91   46  103 1    
    92   46  104 1    
    93   47   48 2    
    94   47   49 am   BACKBONE|DICT|INTERRES
    95   49   50 1    
    96   49  105 1    
    97   50   51 1    
    98   50   52 1    
    99   50  106 1    
   100   51  107 1    
   101   51  108 1    
   102   51  109 1    
   103   52   53 2    
   104   52   54 am   BACKBONE|DICT|INTERRES
   105   54   55 1    
   106   54  110 1    
   107   55   56 1    
   108   55   59 1    
   109   55  111 1    
   110   56   57 am   BACKBONE|DICT|INTERRES
   111   56   58 2    
   112   57  112 1    
   113   57  113 1    
   114   59   60 1    
   115   59  114 1    
   116   59  115 1    
   117   60   61 1    
   118   61  116 1    
   119   61  117 1    
@<TRIPOS>SUBSTRUCTURE
     1 UNK         1 GROUP             0       ****    0 ROOT    
