@<TRIPOS>MOLECULE
3R8
117   119    1
SMALL
USER_CHARGES


@<TRIPOS>ATOM
      1 CA         22.1619  -27.4833  -50.3882 C.3       0 UNK        -0.2013 
      2 C          22.2308  -27.3479  -48.8743 C.2       0 UNK         0.4866 
      3 O          23.0904  -26.6302  -48.3616 O.2       0 UNK        -0.5176 
      4 N          21.3391  -28.0391  -48.1547 N.am      1 UNK        -0.4884 
      5 CA         21.2053  -27.9717  -46.6967 C.3       1 UNK         0.0853 
      6 C6         20.4582  -29.2093  -46.1246 C.3       10 UNK        -0.0849 
      7 S7         18.8505  -29.5826  -46.9166 S.3       10 UNK        -0.2776 
      8 C8         17.6504  -28.7477  -45.8134 C.3       10 UNK         0.0316 
      9 C9         17.3762  -29.4061  -44.4574 C.ar      10 UNK        -0.0863 
     10 C10        18.0547  -30.5441  -43.9990 C.ar      10 UNK        -0.1009 
     11 C11        17.7547  -31.1022  -42.7529 C.ar      10 UNK        -0.0712 
     12 C12        16.7605  -30.5236  -41.9586 C.ar      10 UNK        -0.0894 
     13 C13        16.0615  -29.3996  -42.4061 C.ar      10 UNK        -0.0745 
     14 C14        16.3808  -28.8448  -43.6494 C.ar      10 UNK        -0.0972 
     15 C15        14.9303  -28.8154  -41.5679 C.3       10 UNK         0.0209 
     16 S16        15.5323  -27.7565  -40.2133 S.3       10 UNK        -0.2568 
     17 C17        16.2300  -26.3422  -41.1286 C.3       10 UNK        -0.0983 
     18 CA         17.7750  -26.4238  -41.1915 C.3       3 UNK         0.0876 
     19 N          18.3053  -25.8245  -42.4167 N.am      3 UNK        -0.4424 
     20 C          19.5404  -26.0554  -42.8733 C.2       2 UNK         0.4918 
     21 O          20.3584  -26.7873  -42.3085 O.2       2 UNK        -0.4875 
     22 CA         19.9281  -25.3803  -44.1918 C.3       2 UNK         0.0481 
     23 CB         20.7752  -24.1210  -43.9512 C.3       2 UNK        -0.1831 
     24 N          20.6976  -26.3645  -44.9406 N.am      2 UNK        -0.4498 
     25 C          20.5422  -26.6570  -46.2347 C.2       1 UNK         0.5027 
     26 O          19.8621  -25.9853  -47.0156 O.2       1 UNK        -0.4969 
     27 C          18.4383  -25.7961  -39.9493 C.2       3 UNK         0.5005 
     28 O          18.6233  -24.5769  -39.9115 O.2       3 UNK        -0.5279 
     29 N          18.7889  -26.6451  -38.9719 N.am      4 UNK        -0.4463 
     30 CA         19.4829  -26.3287  -37.7135 C.3       4 UNK         0.0283 
     31 CB         18.6478  -25.3680  -36.8401 C.3       4 UNK        -0.1875 
     32 C          20.9407  -25.8450  -37.8805 C.2       4 UNK         0.4949 
     33 O          21.5501  -25.4291  -36.8938 O.2       4 UNK        -0.5039 
     34 N          21.4903  -25.9343  -39.0979 N.am      5 UNK        -0.4663 
     35 CA         22.8987  -25.6909  -39.4072 C.3       5 UNK         0.0242 
     36 CB         22.9840  -25.0144  -40.7869 C.3       5 UNK        -0.1982 
     37 C          23.6685  -27.0212  -39.4089 C.2       5 UNK         0.5017 
     38 O          23.0601  -28.0924  -39.3258 O.2       5 UNK        -0.5012 
     39 N          24.9966  -26.9431  -39.5627 N.am      6 UNK        -0.4439 
     40 CA         25.9042  -28.0893  -39.7041 C.3       6 UNK         0.0297 
     41 CB         27.3290  -27.6487  -39.3182 C.3       6 UNK        -0.2006 
     42 C          25.8389  -28.7256  -41.1117 C.2       6 UNK         0.4892 
     43 O          26.8717  -28.9064  -41.7599 O.2       6 UNK        -0.5089 
     44 N          24.6195  -29.0330  -41.5664 N.am      7 UNK        -0.4243 
     45 CA         24.3218  -29.6987  -42.8313 C.3       7 UNK         0.0196 
     46 CB         22.8873  -29.3345  -43.2487 C.3       7 UNK        -0.2007 
     47 C          24.4750  -31.2211  -42.6998 C.2       7 UNK         0.5020 
     48 O          24.4070  -31.7619  -41.5927 O.2       7 UNK        -0.5147 
     49 N          24.6291  -31.9002  -43.8426 N.am      8 UNK        -0.4734 
     50 CA         24.7602  -33.3579  -43.9530 C.3       8 UNK         0.0238 
     51 CB         25.4861  -33.6919  -45.2706 C.3       8 UNK        -0.1912 
     52 C          23.4081  -34.0915  -43.8168 C.2       8 UNK         0.5038 
     53 O          23.0502  -34.8914  -44.6840 O.2       8 UNK        -0.5046 
     54 N          22.6754  -33.7945  -42.7383 N.am      9 UNK        -0.4200 
     55 CA         21.4159  -34.4451  -42.3556 C.3       9 UNK         0.0839 
     56 C          21.6228  -35.9305  -41.9521 C.2       9 UNK         0.5513 
     57 N          20.6597  -36.7923  -42.2479 N.am      9 UNK        -0.7519 
     58 O          22.6228  -36.2977  -41.3378 O.2       9 UNK        -0.4960 
     59 C59        20.7001  -33.6671  -41.2218 C.3       10 UNK        -0.0876 
     60 S60        20.1745  -31.9975  -41.7379 S.3       10 UNK        -0.2414 
     61 C61        18.4780  -32.3563  -42.2868 C.3       10 UNK         0.0169 
     62 H62        23.1051  -27.8688  -50.7742 H         1 UNK         0.0903 
     63 H63        21.3660  -28.1589  -50.7013 H         1 UNK         0.0903 
     64 H64        21.9791  -26.5103  -50.8434 H         1 UNK         0.0903 
     65 H65        20.6299  -28.5871  -48.6222 H         1 UNK         0.3096 
     66 H66        22.2150  -27.9750  -46.2783 H         1 UNK         0.1121 
     67 H67        20.3230  -29.1237  -45.0448 H         1 UNK         0.0849 
     68 H68        21.0871  -30.0904  -46.2605 H         1 UNK         0.0849 
     69 H69        17.9638  -27.7172  -45.6488 H         1 UNK         0.0865 
     70 H70        16.7055  -28.6878  -46.3555 H         1 UNK         0.0865 
     71 H71        18.8177  -31.0141  -44.6021 H         1 UNK         0.1346 
     72 H72        16.5151  -30.9582  -40.9990 H         1 UNK         0.1412 
     73 H73        15.8379  -27.9771  -43.9991 H         1 UNK         0.1426 
     74 H74        14.3439  -29.6290  -41.1384 H         1 UNK         0.0716 
     75 H75        14.2396  -28.2473  -42.1932 H         1 UNK         0.0716 
     76 H76        15.8909  -25.4122  -40.6675 H         1 UNK         0.0695 
     77 H77        15.8022  -26.3390  -42.1318 H         1 UNK         0.0695 
     78 H78        18.0589  -27.4791  -41.2319 H         1 UNK         0.0983 
     79 H79        17.7052  -25.1745  -42.9021 H         1 UNK         0.3095 
     80 H80        19.0186  -25.1106  -44.7332 H         1 UNK         0.0454 
     81 H81        21.7055  -24.3515  -43.4320 H         1 UNK         0.0851 
     82 H82        20.2329  -23.3940  -43.3455 H         1 UNK         0.0851 
     83 H83        21.0317  -23.6343  -44.8922 H         1 UNK         0.0851 
     84 H84        21.2263  -26.9908  -44.3469 H         1 UNK         0.2976 
     85 H85        18.5861  -27.6266  -39.1088 H         1 UNK         0.3116 
     86 H86        19.5519  -27.2750  -37.1750 H         1 UNK         0.0646 
     87 H87        18.5996  -24.3665  -37.2680 H         1 UNK         0.0847 
     88 H88        19.0794  -25.2705  -35.8432 H         1 UNK         0.0847 
     89 H89        17.6274  -25.7297  -36.7143 H         1 UNK         0.0847 
     90 H90        20.9396  -26.3380  -39.8436 H         1 UNK         0.3040 
     91 H91        23.3415  -25.0310  -38.6577 H         1 UNK         0.1015 
     92 H92        22.6835  -25.6925  -41.5864 H         1 UNK         0.0786 
     93 H93        24.0005  -24.6861  -41.0061 H         1 UNK         0.0786 
     94 H94        22.3443  -24.1328  -40.8373 H         1 UNK         0.0786 
     95 H95        25.4162  -26.0294  -39.6619 H         1 UNK         0.3172 
     96 H96        25.5979  -28.8620  -38.9955 H         1 UNK         0.0595 
     97 H97        28.0221  -28.4905  -39.3543 H         1 UNK         0.0839 
     98 H98        27.3617  -27.2512  -38.3036 H         1 UNK         0.0839 
     99 H99        27.7122  -26.8822  -39.9929 H         1 UNK         0.0839 
    100 H100       23.8407  -28.8906  -40.9304 H         1 UNK         0.2998 
    101 H101       25.0158  -29.3407  -43.5951 H         1 UNK         0.0822 
    102 H102       22.6250  -29.8033  -44.1969 H         1 UNK         0.0787 
    103 H103       22.1553  -29.6630  -42.5091 H         1 UNK         0.0787 
    104 H104       22.7743  -28.2575  -43.3711 H         1 UNK         0.0787 
    105 H105       24.6319  -31.3868  -44.7127 H         1 UNK         0.3055 
    106 H106       25.3892  -33.7131  -43.1332 H         1 UNK         0.1106 
    107 H107       26.4625  -33.2096  -45.3201 H         1 UNK         0.0828 
    108 H108       24.9099  -33.3760  -46.1412 H         1 UNK         0.0828 
    109 H109       25.6550  -34.7657  -45.3635 H         1 UNK         0.0828 
    110 H110       23.0581  -33.1227  -42.0815 H         1 UNK         0.2931 
    111 H111       20.7687  -34.4300  -43.2353 H         1 UNK         0.0412 
    112 H112       19.8322  -36.5005  -42.7450 H         1 UNK         0.3472 
    113 H113       20.7672  -37.7587  -41.9804 H         1 UNK         0.3472 
    114 H114       21.3579  -33.5675  -40.3563 H         1 UNK         0.0970 
    115 H115       19.8255  -34.2155  -40.8660 H         1 UNK         0.0970 
    116 H116       17.9281  -32.8295  -41.4717 H         1 UNK         0.0612 
    117 H117       18.5091  -33.0813  -43.1014 H         1 UNK         0.0612 
@<TRIPOS>BOND
     1    1    2 1    
     2    1   62 1    
     3    1   63 1    
     4    1   64 1    
     5    2    3 2    
     6    2    4 am   BACKBONE|DICT|INTERRES
     7    4    5 1    
     8    4   65 1    
     9    5    6 1    
    10    5   25 1    
    11    5   66 1    
    12    6    7 1    
    13    6   67 1    
    14    6   68 1    
    15    7    8 1    
    16    8    9 1    
    17    8   69 1    
    18    8   70 1    
    19    9   10 ar   
    20    9   14 ar   
    21   10   11 ar   
    22   10   71 1    
    23   11   12 ar   
    24   11   61 1    
    25   12   13 ar   
    26   12   72 1    
    27   13   14 ar   
    28   13   15 1    
    29   14   73 1    
    30   15   16 1    
    31   15   74 1    
    32   15   75 1    
    33   16   17 1    
    34   17   18 1    
    35   17   76 1    
    36   17   77 1    
    37   18   19 1    
    38   18   27 1    
    39   18   78 1    
    40   19   20 am   BACKBONE|DICT|INTERRES
    41   19   79 1    
    42   20   21 2    
    43   20   22 1    
    44   22   23 1    
    45   22   24 1    
    46   22   80 1    
    47   23   81 1    
    48   23   82 1    
    49   23   83 1    
    50   24   25 am   BACKBONE|DICT|INTERRES
    51   24   84 1    
    52   25   26 2    
    53   27   28 2    
    54   27   29 am   BACKBONE|DICT|INTERRES
    55   29   30 1    
    56   29   85 1    
    57   30   31 1    
    58   30   32 1    
    59   30   86 1    
    60   31   87 1    
    61   31   88 1    
    62   31   89 1    
    63   32   33 2    
    64   32   34 am   BACKBONE|DICT|INTERRES
    65   34   35 1    
    66   34   90 1    
    67   35   36 1    
    68   35   37 1    
    69   35   91 1    
    70   36   92 1    
    71   36   93 1    
    72   36   94 1    
    73   37   38 2    
    74   37   39 am   BACKBONE|DICT|INTERRES
    75   39   40 1    
    76   39   95 1    
    77   40   41 1    
    78   40   42 1    
    79   40   96 1    
    80   41   97 1    
    81   41   98 1    
    82   41   99 1    
    83   42   43 2    
    84   42   44 am   BACKBONE|DICT|INTERRES
    85   44   45 1    
    86   44  100 1    
    87   45   46 1    
    88   45   47 1    
    89   45  101 1    
    90   46  102 1    
    91   46  103 1    
    92   46  104 1    
    93   47   48 2    
    94   47   49 am   BACKBONE|DICT|INTERRES
    95   49   50 1    
    96   49  105 1    
    97   50   51 1    
    98   50   52 1    
    99   50  106 1    
   100   51  107 1    
   101   51  108 1    
   102   51  109 1    
   103   52   53 2    
   104   52   54 am   BACKBONE|DICT|INTERRES
   105   54   55 1    
   106   54  110 1    
   107   55   56 1    
   108   55   59 1    
   109   55  111 1    
   110   56   57 am   BACKBONE|DICT|INTERRES
   111   56   58 2    
   112   57  112 1    
   113   57  113 1    
   114   59   60 1    
   115   59  114 1    
   116   59  115 1    
   117   60   61 1    
   118   61  116 1    
   119   61  117 1    
@<TRIPOS>SUBSTRUCTURE
     1 UNK         1 GROUP             0       ****    0 ROOT    
