@<TRIPOS>MOLECULE
3R8
117   119    1
SMALL
USER_CHARGES


@<TRIPOS>ATOM
      1 CA         16.3469  -25.5083  -45.9616 C.3       0 UNK        -0.2013 
      2 C          17.7084  -25.3887  -46.6307 C.2       0 UNK         0.4866 
      3 O          18.0511  -24.3189  -47.1333 O.2       0 UNK        -0.5176 
      4 N          18.4812  -26.4826  -46.6433 N.am      1 UNK        -0.4884 
      5 CA         19.8426  -26.5629  -47.1882 C.3       1 UNK         0.0853 
      6 C6         20.3149  -28.0381  -47.3348 C.3       10 UNK        -0.0849 
      7 S7         20.2463  -29.0214  -45.7883 S.3       10 UNK        -0.2776 
      8 C8         18.6545  -29.8829  -45.9500 C.3       10 UNK         0.0316 
      9 C9         18.1140  -30.2695  -44.5819 C.ar      10 UNK        -0.0863 
     10 C10        18.3714  -31.5393  -44.0585 C.ar      10 UNK        -0.1009 
     11 C11        17.8493  -31.9143  -42.8168 C.ar      10 UNK        -0.0712 
     12 C12        17.0682  -31.0067  -42.0955 C.ar      10 UNK        -0.0894 
     13 C13        16.8058  -29.7317  -42.6063 C.ar      10 UNK        -0.0745 
     14 C14        17.3355  -29.3670  -43.8482 C.ar      10 UNK        -0.0972 
     15 C15        15.9046  -28.7755  -41.8366 C.3       10 UNK         0.0209 
     16 S16        16.7904  -27.9003  -40.5081 S.3       10 UNK        -0.2568 
     17 C17        17.6706  -26.5869  -41.4203 C.3       10 UNK        -0.0983 
     18 CA         19.2073  -26.7618  -41.3628 C.3       3 UNK         0.0876 
     19 N          19.8706  -26.0247  -42.4421 N.am      3 UNK        -0.4424 
     20 C          21.1888  -26.0070  -42.6917 C.2       2 UNK         0.4918 
     21 O          22.0323  -26.5704  -41.9901 O.2       2 UNK        -0.4875 
     22 CA         21.6061  -25.3112  -43.9954 C.3       2 UNK         0.0481 
     23 CB         23.1268  -25.3883  -44.2509 C.3       2 UNK        -0.1831 
     24 N          20.8459  -25.9605  -45.0591 N.am      2 UNK        -0.4498 
     25 C          20.8281  -25.6998  -46.3696 C.2       1 UNK         0.5027 
     26 O          21.4952  -24.8236  -46.9213 O.2       1 UNK        -0.4969 
     27 C          19.7846  -26.3879  -39.9805 C.2       3 UNK         0.5005 
     28 O          19.7719  -25.2099  -39.6164 O.2       3 UNK        -0.5279 
     29 N          20.3141  -27.3975  -39.2729 N.am      4 UNK        -0.4463 
     30 CA         21.0009  -27.3281  -37.9753 C.3       4 UNK         0.0283 
     31 CB         20.0490  -26.8159  -36.8731 C.3       4 UNK        -0.1875 
     32 C          22.3434  -26.5625  -37.9819 C.2       4 UNK         0.4949 
     33 O          22.9047  -26.3493  -36.9062 O.2       4 UNK        -0.5039 
     34 N          22.8526  -26.1842  -39.1627 N.am      5 UNK        -0.4663 
     35 CA         24.1234  -25.4763  -39.3382 C.3       5 UNK         0.0242 
     36 CB         23.8769  -24.1564  -40.0890 C.3       5 UNK        -0.1982 
     37 C          25.1444  -26.3477  -40.0814 C.2       5 UNK         0.5017 
     38 O          26.2823  -26.4624  -39.6248 O.2       5 UNK        -0.5012 
     39 N          24.7238  -26.9540  -41.1981 N.am      6 UNK        -0.4439 
     40 CA         25.5361  -27.8220  -42.0528 C.3       6 UNK         0.0297 
     41 CB         26.5112  -26.9836  -42.9072 C.3       6 UNK        -0.2006 
     42 C          24.6098  -28.7122  -42.8955 C.2       6 UNK         0.4892 
     43 O          24.7673  -28.7947  -44.1151 O.2       6 UNK        -0.5089 
     44 N          23.6224  -29.3208  -42.2271 N.am      7 UNK        -0.4243 
     45 CA         22.5817  -30.1450  -42.8396 C.3       7 UNK         0.0196 
     46 CB         21.4488  -30.3390  -41.8198 C.3       7 UNK        -0.2007 
     47 C          23.1117  -31.5048  -43.3232 C.2       7 UNK         0.5020 
     48 O          24.1662  -31.9594  -42.8733 O.2       7 UNK        -0.5147 
     49 N          22.3434  -32.1475  -44.2127 N.am      8 UNK        -0.4734 
     50 CA         22.6242  -33.4948  -44.7241 C.3       8 UNK         0.0238 
     51 CB         21.7141  -33.7809  -45.9298 C.3       8 UNK        -0.1912 
     52 C          22.4678  -34.5936  -43.6554 C.2       8 UNK         0.5038 
     53 O          23.1898  -35.5904  -43.6999 O.2       8 UNK        -0.5046 
     54 N          21.5316  -34.3865  -42.7229 N.am      9 UNK        -0.4200 
     55 CA         21.3161  -35.2068  -41.5252 C.3       9 UNK         0.0839 
     56 C          22.3938  -34.9484  -40.4374 C.2       9 UNK         0.5513 
     57 N          22.7528  -35.9692  -39.6706 N.am      9 UNK        -0.7519 
     58 O          22.8759  -33.8332  -40.2546 O.2       9 UNK        -0.4960 
     59 C59        19.8752  -35.0388  -40.9650 C.3       10 UNK        -0.0876 
     60 S60        19.2922  -33.3047  -40.9026 S.3       10 UNK        -0.2414 
     61 C61        18.0984  -33.3127  -42.2757 C.3       10 UNK         0.0169 
     62 H62        16.3095  -24.8799  -45.0721 H         1 UNK         0.0903 
     63 H63        15.5641  -25.1780  -46.6440 H         1 UNK         0.0903 
     64 H64        16.1232  -26.5326  -45.6652 H         1 UNK         0.0903 
     65 H65        18.1416  -27.3311  -46.2183 H         1 UNK         0.3096 
     66 H66        19.8148  -26.1295  -48.1909 H         1 UNK         0.1121 
     67 H67        21.3393  -28.0683  -47.7113 H         1 UNK         0.0849 
     68 H68        19.7169  -28.5388  -48.0980 H         1 UNK         0.0849 
     69 H69        17.9271  -29.2571  -46.4675 H         1 UNK         0.0865 
     70 H70        18.7880  -30.7676  -46.5749 H         1 UNK         0.0865 
     71 H71        18.9646  -32.2418  -44.6268 H         1 UNK         0.1346 
     72 H72        16.6559  -31.2980  -41.1389 H         1 UNK         0.1412 
     73 H73        17.1257  -28.3864  -44.2499 H         1 UNK         0.1426 
     74 H74        15.0848  -29.3398  -41.3895 H         1 UNK         0.0716 
     75 H75        15.4362  -28.0548  -42.5087 H         1 UNK         0.0716 
     76 H76        17.3679  -25.6155  -41.0242 H         1 UNK         0.0695 
     77 H77        17.3314  -26.5992  -42.4569 H         1 UNK         0.0695 
     78 H78        19.4210  -27.8141  -41.5587 H         1 UNK         0.0983 
     79 H79        19.2662  -25.4847  -43.0430 H         1 UNK         0.3095 
     80 H80        21.3054  -24.2642  -43.9315 H         1 UNK         0.0454 
     81 H81        23.4496  -26.4144  -44.4238 H         1 UNK         0.0851 
     82 H82        23.6917  -25.0016  -43.4026 H         1 UNK         0.0851 
     83 H83        23.4210  -24.7978  -45.1177 H         1 UNK         0.0851 
     84 H84        20.2850  -26.7458  -44.7537 H         1 UNK         0.2976 
     85 H85        20.2646  -28.3247  -39.6711 H         1 UNK         0.3116 
     86 H86        21.2564  -28.3591  -37.7265 H         1 UNK         0.0646 
     87 H87        19.8065  -25.7610  -37.0037 H         1 UNK         0.0847 
     88 H88        20.4989  -26.9225  -35.8852 H         1 UNK         0.0847 
     89 H89        19.1144  -27.3766  -36.8623 H         1 UNK         0.0847 
     90 H90        22.3340  -26.3993  -40.0072 H         1 UNK         0.3040 
     91 H91        24.5612  -25.2274  -38.3688 H         1 UNK         0.1015 
     92 H92        23.4141  -24.3180  -41.0622 H         1 UNK         0.0786 
     93 H93        24.8122  -23.6201  -40.2554 H         1 UNK         0.0786 
     94 H94        23.2228  -23.4975  -39.5176 H         1 UNK         0.0786 
     95 H95        23.7611  -26.8158  -41.5049 H         1 UNK         0.3172 
     96 H96        26.1207  -28.4920  -41.4190 H         1 UNK         0.0595 
     97 H97        27.1235  -27.6241  -43.5432 H         1 UNK         0.0839 
     98 H98        27.1942  -26.4047  -42.2859 H         1 UNK         0.0839 
     99 H99        25.9799  -26.2887  -43.5577 H         1 UNK         0.0839 
    100 H100       23.5952  -29.2303  -41.2227 H         1 UNK         0.2998 
    101 H101       22.1915  -29.5977  -43.6992 H         1 UNK         0.0822 
    102 H102       20.5832  -30.8144  -42.2809 H         1 UNK         0.0787 
    103 H103       21.7602  -30.9665  -40.9830 H         1 UNK         0.0787 
    104 H104       21.1143  -29.3848  -41.4190 H         1 UNK         0.0787 
    105 H105       21.5082  -31.6914  -44.5519 H         1 UNK         0.3055 
    106 H106       23.6623  -33.5175  -45.0641 H         1 UNK         0.1106 
    107 H107       21.9333  -34.7603  -46.3577 H         1 UNK         0.0828 
    108 H108       20.6593  -33.7768  -45.6538 H         1 UNK         0.0828 
    109 H109       21.8585  -33.0449  -46.7211 H         1 UNK         0.0828 
    110 H110       21.0266  -33.5134  -42.7375 H         1 UNK         0.2931 
    111 H111       21.4170  -36.2505  -41.8311 H         1 UNK         0.0412 
    112 H112       23.4399  -35.8202  -38.9478 H         1 UNK         0.3472 
    113 H113       22.3581  -36.8877  -39.8040 H         1 UNK         0.3472 
    114 H114       19.7921  -35.4683  -39.9646 H         1 UNK         0.0970 
    115 H115       19.1866  -35.6252  -41.5747 H         1 UNK         0.0970 
    116 H116       18.4640  -33.9584  -43.0758 H         1 UNK         0.0612 
    117 H117       17.1595  -33.7496  -41.9324 H         1 UNK         0.0612 
@<TRIPOS>BOND
     1    1    2 1    
     2    1   62 1    
     3    1   63 1    
     4    1   64 1    
     5    2    3 2    
     6    2    4 am   BACKBONE|DICT|INTERRES
     7    4    5 1    
     8    4   65 1    
     9    5    6 1    
    10    5   25 1    
    11    5   66 1    
    12    6    7 1    
    13    6   67 1    
    14    6   68 1    
    15    7    8 1    
    16    8    9 1    
    17    8   69 1    
    18    8   70 1    
    19    9   10 ar   
    20    9   14 ar   
    21   10   11 ar   
    22   10   71 1    
    23   11   12 ar   
    24   11   61 1    
    25   12   13 ar   
    26   12   72 1    
    27   13   14 ar   
    28   13   15 1    
    29   14   73 1    
    30   15   16 1    
    31   15   74 1    
    32   15   75 1    
    33   16   17 1    
    34   17   18 1    
    35   17   76 1    
    36   17   77 1    
    37   18   19 1    
    38   18   27 1    
    39   18   78 1    
    40   19   20 am   BACKBONE|DICT|INTERRES
    41   19   79 1    
    42   20   21 2    
    43   20   22 1    
    44   22   23 1    
    45   22   24 1    
    46   22   80 1    
    47   23   81 1    
    48   23   82 1    
    49   23   83 1    
    50   24   25 am   BACKBONE|DICT|INTERRES
    51   24   84 1    
    52   25   26 2    
    53   27   28 2    
    54   27   29 am   BACKBONE|DICT|INTERRES
    55   29   30 1    
    56   29   85 1    
    57   30   31 1    
    58   30   32 1    
    59   30   86 1    
    60   31   87 1    
    61   31   88 1    
    62   31   89 1    
    63   32   33 2    
    64   32   34 am   BACKBONE|DICT|INTERRES
    65   34   35 1    
    66   34   90 1    
    67   35   36 1    
    68   35   37 1    
    69   35   91 1    
    70   36   92 1    
    71   36   93 1    
    72   36   94 1    
    73   37   38 2    
    74   37   39 am   BACKBONE|DICT|INTERRES
    75   39   40 1    
    76   39   95 1    
    77   40   41 1    
    78   40   42 1    
    79   40   96 1    
    80   41   97 1    
    81   41   98 1    
    82   41   99 1    
    83   42   43 2    
    84   42   44 am   BACKBONE|DICT|INTERRES
    85   44   45 1    
    86   44  100 1    
    87   45   46 1    
    88   45   47 1    
    89   45  101 1    
    90   46  102 1    
    91   46  103 1    
    92   46  104 1    
    93   47   48 2    
    94   47   49 am   BACKBONE|DICT|INTERRES
    95   49   50 1    
    96   49  105 1    
    97   50   51 1    
    98   50   52 1    
    99   50  106 1    
   100   51  107 1    
   101   51  108 1    
   102   51  109 1    
   103   52   53 2    
   104   52   54 am   BACKBONE|DICT|INTERRES
   105   54   55 1    
   106   54  110 1    
   107   55   56 1    
   108   55   59 1    
   109   55  111 1    
   110   56   57 am   BACKBONE|DICT|INTERRES
   111   56   58 2    
   112   57  112 1    
   113   57  113 1    
   114   59   60 1    
   115   59  114 1    
   116   59  115 1    
   117   60   61 1    
   118   61  116 1    
   119   61  117 1    
@<TRIPOS>SUBSTRUCTURE
     1 UNK         1 GROUP             0       ****    0 ROOT    
