@<TRIPOS>MOLECULE
3R8
117   119    1
SMALL
USER_CHARGES


@<TRIPOS>ATOM
      1 CA         17.8738  -24.2475  -47.4971 C.3       0 UNK        -0.2013 
      2 C          17.8176  -25.4378  -46.5520 C.2       0 UNK         0.4866 
      3 O          18.8211  -25.7505  -45.9086 O.2       0 UNK        -0.5176 
      4 N          16.6529  -26.0996  -46.4672 N.am      1 UNK        -0.4884 
      5 CA         16.3754  -27.2479  -45.5961 C.3       1 UNK         0.0853 
      6 C6         15.0141  -27.9014  -45.9526 C.3       10 UNK        -0.0849 
      7 S7         14.4867  -29.2964  -44.8938 S.3       10 UNK        -0.2776 
      8 C8         15.6210  -30.6401  -45.3800 C.3       10 UNK         0.0316 
      9 C9         16.9475  -30.5734  -44.6320 C.ar      10 UNK        -0.0863 
     10 C10        16.9698  -30.6373  -43.2348 C.ar      10 UNK        -0.1009 
     11 C11        18.1773  -30.5676  -42.5347 C.ar      10 UNK        -0.0712 
     12 C12        19.3732  -30.4327  -43.2476 C.ar      10 UNK        -0.0894 
     13 C13        19.3699  -30.4094  -44.6446 C.ar      10 UNK        -0.0745 
     14 C14        18.1540  -30.4744  -45.3316 C.ar      10 UNK        -0.0972 
     15 C15        20.6782  -30.3613  -45.4179 C.3       10 UNK         0.0209 
     16 S16        21.1744  -28.6607  -45.8186 S.3       10 UNK        -0.2568 
     17 C17        22.1035  -28.1675  -44.3265 C.3       10 UNK        -0.0983 
     18 CA         21.7465  -26.7219  -43.8927 C.3       3 UNK         0.0876 
     19 N          20.3422  -26.5751  -43.4892 N.am      3 UNK        -0.4424 
     20 C          19.7667  -27.0153  -42.3567 C.2       2 UNK         0.4918 
     21 O          20.3654  -27.5755  -41.4408 O.2       2 UNK        -0.4875 
     22 CA         18.2487  -26.8153  -42.2526 C.3       2 UNK         0.0481 
     23 CB         17.9619  -25.3581  -41.8297 C.3       2 UNK        -0.1831 
     24 N          17.6794  -27.1699  -43.5526 N.am      2 UNK        -0.4498 
     25 C          16.5130  -26.8365  -44.1138 C.2       1 UNK         0.5027 
     26 O          15.6140  -26.1964  -43.5646 O.2       1 UNK        -0.4969 
     27 C          22.7476  -26.1124  -42.8840 C.2       3 UNK         0.5005 
     28 O          23.8404  -26.6525  -42.6934 O.2       3 UNK        -0.5279 
     29 N          22.3626  -24.9733  -42.2853 N.am      4 UNK        -0.4463 
     30 CA         23.1603  -24.1091  -41.4073 C.3       4 UNK         0.0283 
     31 CB         24.1217  -23.2548  -42.2663 C.3       4 UNK        -0.1875 
     32 C          23.8533  -24.8807  -40.2631 C.2       4 UNK         0.4949 
     33 O          23.1808  -25.6072  -39.5307 O.2       4 UNK        -0.5039 
     34 N          25.1748  -24.7115  -40.1291 N.am      5 UNK        -0.4663 
     35 CA         26.0115  -25.4014  -39.1462 C.3       5 UNK         0.0242 
     36 CB         27.2389  -24.5253  -38.8423 C.3       5 UNK        -0.1982 
     37 C          26.4531  -26.8056  -39.5989 C.2       5 UNK         0.5017 
     38 O          26.9453  -27.5636  -38.7621 O.2       5 UNK        -0.5012 
     39 N          26.3012  -27.1297  -40.8932 N.am      6 UNK        -0.4439 
     40 CA         26.6497  -28.4379  -41.4551 C.3       6 UNK         0.0297 
     41 CB         26.8091  -28.3412  -42.9816 C.3       6 UNK        -0.2006 
     42 C          25.6186  -29.5083  -41.0678 C.2       6 UNK         0.4892 
     43 O          26.0156  -30.5932  -40.6416 O.2       6 UNK        -0.5089 
     44 N          24.3284  -29.1557  -41.1823 N.am      7 UNK        -0.4243 
     45 CA         23.1531  -29.9356  -40.7826 C.3       7 UNK         0.0196 
     46 CB         23.0316  -29.9692  -39.2429 C.3       7 UNK        -0.2007 
     47 C          23.1059  -31.3259  -41.4463 C.2       7 UNK         0.5020 
     48 O          22.7956  -31.4075  -42.6348 O.2       7 UNK        -0.5147 
     49 N          23.3800  -32.3867  -40.6713 N.am      8 UNK        -0.4734 
     50 CA         23.3276  -33.8203  -41.0040 C.3       8 UNK         0.0238 
     51 CB         24.2439  -34.1779  -42.1916 C.3       8 UNK        -0.1912 
     52 C          21.8953  -34.3424  -41.2082 C.2       8 UNK         0.5038 
     53 O          21.5043  -35.3003  -40.5403 O.2       8 UNK        -0.5046 
     54 N          21.1371  -33.6751  -42.0852 N.am      9 UNK        -0.4200 
     55 CA         19.6868  -33.8282  -42.2917 C.3       9 UNK         0.0839 
     56 C          19.2394  -35.1999  -42.8793 C.2       9 UNK         0.5513 
     57 N          20.1259  -35.9690  -43.5002 N.am      9 UNK        -0.7519 
     58 O          18.0686  -35.5637  -42.8001 O.2       9 UNK        -0.4960 
     59 C59        18.8503  -33.3990  -41.0469 C.3       10 UNK        -0.0876 
     60 S60        19.3799  -31.8038  -40.3203 S.3       10 UNK        -0.2414 
     61 C61        18.1730  -30.6260  -41.0106 C.3       10 UNK         0.0169 
     62 H62        16.9255  -24.0858  -48.0091 H         1 UNK         0.0903 
     63 H63        18.1198  -23.3418  -46.9435 H         1 UNK         0.0903 
     64 H64        18.6442  -24.4054  -48.2514 H         1 UNK         0.0903 
     65 H65        15.8667  -25.7677  -47.0080 H         1 UNK         0.3096 
     66 H66        17.1481  -27.9853  -45.8150 H         1 UNK         0.1121 
     67 H67        15.0296  -28.2456  -46.9880 H         1 UNK         0.0849 
     68 H68        14.2239  -27.1498  -45.9039 H         1 UNK         0.0849 
     69 H69        15.1458  -31.5959  -45.1547 H         1 UNK         0.0865 
     70 H70        15.7707  -30.6223  -46.4607 H         1 UNK         0.0865 
     71 H71        16.0385  -30.7301  -42.6927 H         1 UNK         0.1346 
     72 H72        20.3096  -30.3781  -42.7109 H         1 UNK         0.1412 
     73 H73        18.1512  -30.4527  -46.4132 H         1 UNK         0.1426 
     74 H74        21.4737  -30.8622  -44.8653 H         1 UNK         0.0716 
     75 H75        20.5699  -30.9175  -46.3501 H         1 UNK         0.0716 
     76 H76        23.1630  -28.2569  -44.5728 H         1 UNK         0.0695 
     77 H77        21.9206  -28.8674  -43.5120 H         1 UNK         0.0695 
     78 H78        21.8545  -26.0934  -44.7785 H         1 UNK         0.0983 
     79 H79        19.7472  -26.1497  -44.1966 H         1 UNK         0.3095 
     80 H80        17.8492  -27.4982  -41.5023 H         1 UNK         0.0454 
     81 H81        16.9152  -25.2157  -41.5632 H         1 UNK         0.0851 
     82 H82        18.2078  -24.6483  -42.6203 H         1 UNK         0.0851 
     83 H83        18.5456  -25.0840  -40.9497 H         1 UNK         0.0851 
     84 H84        18.3125  -27.7173  -44.1226 H         1 UNK         0.2976 
     85 H85        21.4248  -24.6502  -42.4759 H         1 UNK         0.3116 
     86 H86        22.4571  -23.4287  -40.9248 H         1 UNK         0.0646 
     87 H87        23.5727  -22.6928  -43.0219 H         1 UNK         0.0847 
     88 H88        24.6562  -22.5212  -41.6612 H         1 UNK         0.0847 
     89 H89        24.8588  -23.8664  -42.7885 H         1 UNK         0.0847 
     90 H90        25.6476  -24.0916  -40.7714 H         1 UNK         0.3040 
     91 H91        25.4443  -25.5253  -38.2206 H         1 UNK         0.1015 
     92 H92        27.8553  -24.3704  -39.7288 H         1 UNK         0.0786 
     93 H93        27.8713  -24.9878  -38.0831 H         1 UNK         0.0786 
     94 H94        26.9440  -23.5471  -38.4618 H         1 UNK         0.0786 
     95 H95        25.8121  -26.4855  -41.5017 H         1 UNK         0.3172 
     96 H96        27.6155  -28.7396  -41.0432 H         1 UNK         0.0595 
     97 H97        25.8793  -28.0626  -43.4773 H         1 UNK         0.0839 
     98 H98        27.1207  -29.3000  -43.3982 H         1 UNK         0.0839 
     99 H99        27.5678  -27.6081  -43.2557 H         1 UNK         0.0839 
    100 H100       24.1310  -28.2494  -41.5992 H         1 UNK         0.2998 
    101 H101       22.2853  -29.3945  -41.1603 H         1 UNK         0.0822 
    102 H102       22.1480  -30.5277  -38.9299 H         1 UNK         0.0787 
    103 H103       23.9022  -30.4198  -38.7652 H         1 UNK         0.0787 
    104 H104       22.9265  -28.9598  -38.8440 H         1 UNK         0.0787 
    105 H105       23.6213  -32.1858  -39.7107 H         1 UNK         0.3055 
    106 H106       23.7224  -34.3381  -40.1280 H         1 UNK         0.1106 
    107 H107       24.2784  -35.2576  -42.3420 H         1 UNK         0.0828 
    108 H108       23.9037  -33.7336  -43.1272 H         1 UNK         0.0828 
    109 H109       25.2659  -33.8421  -42.0156 H         1 UNK         0.0828 
    110 H110       21.5729  -32.8875  -42.5557 H         1 UNK         0.2931 
    111 H111       19.4500  -33.1263  -43.0891 H         1 UNK         0.0412 
    112 H112       19.8316  -36.8520  -43.8873 H         1 UNK         0.3472 
    113 H113       21.0874  -35.6777  -43.5753 H         1 UNK         0.3472 
    114 H114       18.9251  -34.1594  -40.2678 H         1 UNK         0.0970 
    115 H115       17.7912  -33.3368  -41.3033 H         1 UNK         0.0970 
    116 H116       18.4031  -29.6346  -40.6208 H         1 UNK         0.0612 
    117 H117       17.1822  -30.8847  -40.6340 H         1 UNK         0.0612 
@<TRIPOS>BOND
     1    1    2 1    
     2    1   62 1    
     3    1   63 1    
     4    1   64 1    
     5    2    3 2    
     6    2    4 am   BACKBONE|DICT|INTERRES
     7    4    5 1    
     8    4   65 1    
     9    5    6 1    
    10    5   25 1    
    11    5   66 1    
    12    6    7 1    
    13    6   67 1    
    14    6   68 1    
    15    7    8 1    
    16    8    9 1    
    17    8   69 1    
    18    8   70 1    
    19    9   10 ar   
    20    9   14 ar   
    21   10   11 ar   
    22   10   71 1    
    23   11   12 ar   
    24   11   61 1    
    25   12   13 ar   
    26   12   72 1    
    27   13   14 ar   
    28   13   15 1    
    29   14   73 1    
    30   15   16 1    
    31   15   74 1    
    32   15   75 1    
    33   16   17 1    
    34   17   18 1    
    35   17   76 1    
    36   17   77 1    
    37   18   19 1    
    38   18   27 1    
    39   18   78 1    
    40   19   20 am   BACKBONE|DICT|INTERRES
    41   19   79 1    
    42   20   21 2    
    43   20   22 1    
    44   22   23 1    
    45   22   24 1    
    46   22   80 1    
    47   23   81 1    
    48   23   82 1    
    49   23   83 1    
    50   24   25 am   BACKBONE|DICT|INTERRES
    51   24   84 1    
    52   25   26 2    
    53   27   28 2    
    54   27   29 am   BACKBONE|DICT|INTERRES
    55   29   30 1    
    56   29   85 1    
    57   30   31 1    
    58   30   32 1    
    59   30   86 1    
    60   31   87 1    
    61   31   88 1    
    62   31   89 1    
    63   32   33 2    
    64   32   34 am   BACKBONE|DICT|INTERRES
    65   34   35 1    
    66   34   90 1    
    67   35   36 1    
    68   35   37 1    
    69   35   91 1    
    70   36   92 1    
    71   36   93 1    
    72   36   94 1    
    73   37   38 2    
    74   37   39 am   BACKBONE|DICT|INTERRES
    75   39   40 1    
    76   39   95 1    
    77   40   41 1    
    78   40   42 1    
    79   40   96 1    
    80   41   97 1    
    81   41   98 1    
    82   41   99 1    
    83   42   43 2    
    84   42   44 am   BACKBONE|DICT|INTERRES
    85   44   45 1    
    86   44  100 1    
    87   45   46 1    
    88   45   47 1    
    89   45  101 1    
    90   46  102 1    
    91   46  103 1    
    92   46  104 1    
    93   47   48 2    
    94   47   49 am   BACKBONE|DICT|INTERRES
    95   49   50 1    
    96   49  105 1    
    97   50   51 1    
    98   50   52 1    
    99   50  106 1    
   100   51  107 1    
   101   51  108 1    
   102   51  109 1    
   103   52   53 2    
   104   52   54 am   BACKBONE|DICT|INTERRES
   105   54   55 1    
   106   54  110 1    
   107   55   56 1    
   108   55   59 1    
   109   55  111 1    
   110   56   57 am   BACKBONE|DICT|INTERRES
   111   56   58 2    
   112   57  112 1    
   113   57  113 1    
   114   59   60 1    
   115   59  114 1    
   116   59  115 1    
   117   60   61 1    
   118   61  116 1    
   119   61  117 1    
@<TRIPOS>SUBSTRUCTURE
     1 UNK         1 GROUP             0       ****    0 ROOT    
