@<TRIPOS>MOLECULE
3R8
117   119    1
SMALL
USER_CHARGES


@<TRIPOS>ATOM
      1 CA         16.6259  -25.5202  -42.0326 C.3       0 UNK        -0.2013 
      2 C          17.6784  -25.5725  -43.1283 C.2       0 UNK         0.4866 
      3 O          18.7516  -24.9949  -42.9638 O.2       0 UNK        -0.5176 
      4 N          17.3646  -26.2642  -44.2330 N.am      1 UNK        -0.4884 
      5 CA         18.0670  -26.2809  -45.5279 C.3       1 UNK         0.0853 
      6 C6         17.4432  -27.2834  -46.5414 C.3       10 UNK        -0.0849 
      7 S7         15.6193  -27.3878  -46.4226 S.3       10 UNK        -0.2776 
      8 C8         15.3116  -29.1766  -46.2092 C.3       10 UNK         0.0316 
      9 C9         16.1777  -29.8541  -45.1475 C.ar      10 UNK        -0.0863 
     10 C10        16.9789  -30.9418  -45.5099 C.ar      10 UNK        -0.1009 
     11 C11        17.7255  -31.6277  -44.5500 C.ar      10 UNK        -0.0712 
     12 C12        17.6918  -31.2020  -43.2204 C.ar      10 UNK        -0.0894 
     13 C13        16.9107  -30.1042  -42.8381 C.ar      10 UNK        -0.0745 
     14 C14        16.1449  -29.4439  -43.8085 C.ar      10 UNK        -0.0972 
     15 C15        16.8124  -29.6845  -41.3713 C.3       10 UNK         0.0209 
     16 S16        18.3892  -29.8082  -40.4503 S.3       10 UNK        -0.2568 
     17 C17        18.8062  -28.0762  -40.0547 C.3       10 UNK        -0.0983 
     18 CA         20.2118  -27.6953  -40.5730 C.3       3 UNK         0.0876 
     19 N          20.2938  -27.7297  -42.0360 N.am      3 UNK        -0.4424 
     20 C          21.4292  -27.7020  -42.7475 C.2       2 UNK         0.4918 
     21 O          22.5441  -27.5885  -42.2379 O.2       2 UNK        -0.4875 
     22 CA         21.3264  -27.8516  -44.2707 C.3       2 UNK         0.0481 
     23 CB         21.7488  -29.2714  -44.6667 C.3       2 UNK        -0.1831 
     24 N          19.9625  -27.5955  -44.7370 N.am      2 UNK        -0.4498 
     25 C          19.5863  -26.4987  -45.4069 C.2       1 UNK         0.5027 
     26 O          20.3635  -25.6629  -45.8710 O.2       1 UNK        -0.4969 
     27 C          20.7053  -26.3686  -39.9645 C.2       3 UNK         0.5005 
     28 O          21.2543  -26.3875  -38.8621 O.2       3 UNK        -0.5279 
     29 N          20.5522  -25.2536  -40.6937 N.am      4 UNK        -0.4463 
     30 CA         21.1193  -23.9547  -40.3216 C.3       4 UNK         0.0283 
     31 CB         20.4162  -22.8475  -41.1229 C.3       4 UNK        -0.1875 
     32 C          22.6444  -23.8784  -40.5302 C.2       4 UNK         0.4949 
     33 O          23.2897  -23.0390  -39.9018 O.2       4 UNK        -0.5039 
     34 N          23.1894  -24.7277  -41.4128 N.am      5 UNK        -0.4663 
     35 CA         24.6077  -24.7614  -41.7659 C.3       5 UNK         0.0242 
     36 CB         24.7596  -25.0864  -43.2628 C.3       5 UNK        -0.1982 
     37 C          25.3908  -25.7612  -40.9034 C.2       5 UNK         0.5017 
     38 O          26.3951  -25.3733  -40.3049 O.2       5 UNK        -0.5012 
     39 N          24.9413  -27.0243  -40.8702 N.am      6 UNK        -0.4439 
     40 CA         25.6567  -28.1308  -40.2203 C.3       6 UNK         0.0297 
     41 CB         26.8448  -28.5729  -41.1000 C.3       6 UNK        -0.2006 
     42 C          24.7871  -29.3515  -39.8708 C.2       6 UNK         0.4892 
     43 O          25.2268  -30.1537  -39.0464 O.2       6 UNK        -0.5089 
     44 N          23.6089  -29.5016  -40.4994 N.am      7 UNK        -0.4243 
     45 CA         22.7049  -30.6615  -40.4103 C.3       7 UNK         0.0196 
     46 CB         22.1235  -30.8130  -38.9859 C.3       7 UNK        -0.2007 
     47 C          23.3635  -31.9562  -40.9295 C.2       7 UNK         0.5020 
     48 O          23.2738  -33.0017  -40.2842 O.2       7 UNK        -0.5147 
     49 N          24.0483  -31.8492  -42.0779 N.am      8 UNK        -0.4734 
     50 CA         24.8106  -32.9394  -42.6946 C.3       8 UNK         0.0238 
     51 CB         25.7151  -32.3684  -43.7993 C.3       8 UNK        -0.1912 
     52 C          23.9306  -34.0756  -43.2440 C.2       8 UNK         0.5038 
     53 O          24.2952  -35.2431  -43.0963 O.2       8 UNK        -0.5046 
     54 N          22.8029  -33.7163  -43.8691 N.am      9 UNK        -0.4200 
     55 CA         21.7876  -34.6554  -44.3650 C.3       9 UNK         0.0839 
     56 C          20.8562  -35.1732  -43.2351 C.2       9 UNK         0.5513 
     57 N          20.2684  -36.3488  -43.4126 N.am      9 UNK        -0.7519 
     58 O          20.6317  -34.5129  -42.2232 O.2       9 UNK        -0.4960 
     59 C59        20.9947  -34.0734  -45.5674 C.3       10 UNK        -0.0876 
     60 S60        20.2642  -32.4263  -45.2735 S.3       10 UNK        -0.2414 
     61 C61        18.5335  -32.8562  -44.9376 C.3       10 UNK         0.0169 
     62 H62        17.0900  -25.3761  -41.0577 H         1 UNK         0.0903 
     63 H63        15.9539  -24.6804  -42.2068 H         1 UNK         0.0903 
     64 H64        16.0310  -26.4317  -42.0003 H         1 UNK         0.0903 
     65 H65        16.4580  -26.7083  -44.2793 H         1 UNK         0.3096 
     66 H66        17.9315  -25.2785  -45.9397 H         1 UNK         0.1121 
     67 H67        17.8667  -28.2814  -46.4246 H         1 UNK         0.0849 
     68 H68        17.6990  -26.9834  -47.5593 H         1 UNK         0.0849 
     69 H69        14.2622  -29.3210  -45.9488 H         1 UNK         0.0865 
     70 H70        15.4470  -29.6594  -47.1784 H         1 UNK         0.0865 
     71 H71        17.0016  -31.2776  -46.5379 H         1 UNK         0.1346 
     72 H72        18.2612  -31.7470  -42.4797 H         1 UNK         0.1412 
     73 H73        15.5013  -28.6243  -43.5206 H         1 UNK         0.1426 
     74 H74        16.0896  -30.3410  -40.8855 H         1 UNK         0.0716 
     75 H75        16.4027  -28.6788  -41.2851 H         1 UNK         0.0716 
     76 H76        18.7590  -27.9783  -38.9682 H         1 UNK         0.0695 
     77 H77        18.0526  -27.3991  -40.4512 H         1 UNK         0.0695 
     78 H78        20.9052  -28.4492  -40.2050 H         1 UNK         0.0983 
     79 H79        19.4170  -27.8170  -42.5234 H         1 UNK         0.3095 
     80 H80        22.0289  -27.1473  -44.7205 H         1 UNK         0.0454 
     81 H81        22.8035  -29.4409  -44.4465 H         1 UNK         0.0851 
     82 H82        21.6066  -29.4510  -45.7324 H         1 UNK         0.0851 
     83 H83        21.1776  -30.0186  -44.1166 H         1 UNK         0.0851 
     84 H84        19.2467  -28.2480  -44.4493 H         1 UNK         0.2976 
     85 H85        20.0447  -25.2934  -41.5756 H         1 UNK         0.3116 
     86 H86        20.9221  -23.7812  -39.2614 H         1 UNK         0.0646 
     87 H87        20.7886  -21.8621  -40.8395 H         1 UNK         0.0847 
     88 H88        20.5778  -22.9617  -42.1957 H         1 UNK         0.0847 
     89 H89        19.3406  -22.8508  -40.9456 H         1 UNK         0.0847 
     90 H90        22.5962  -25.4224  -41.8450 H         1 UNK         0.3040 
     91 H91        25.0456  -23.7738  -41.6016 H         1 UNK         0.1015 
     92 H92        25.8115  -25.1026  -43.5515 H         1 UNK         0.0786 
     93 H93        24.2675  -24.3351  -43.8807 H         1 UNK         0.0786 
     94 H94        24.3378  -26.0577  -43.5217 H         1 UNK         0.0786 
     95 H95        24.0884  -27.2409  -41.3793 H         1 UNK         0.3172 
     96 H96        26.0510  -27.7659  -39.2693 H         1 UNK         0.0595 
     97 H97        26.5136  -28.8947  -42.0880 H         1 UNK         0.0839 
     98 H98        27.3817  -29.4082  -40.6481 H         1 UNK         0.0839 
     99 H99        27.5672  -27.7680  -41.2349 H         1 UNK         0.0839 
    100 H100       23.3201  -28.7905  -41.1643 H         1 UNK         0.2998 
    101 H101       21.8714  -30.4597  -41.0849 H         1 UNK         0.0822 
    102 H102       21.3188  -31.5493  -38.9744 H         1 UNK         0.0787 
    103 H103       22.8775  -31.1484  -38.2732 H         1 UNK         0.0787 
    104 H104       21.7112  -29.8773  -38.6108 H         1 UNK         0.0787 
    105 H105       24.0942  -30.9479  -42.5293 H         1 UNK         0.3055 
    106 H106       25.4518  -33.3734  -41.9235 H         1 UNK         0.1106 
    107 H107       26.4130  -31.6321  -43.4000 H         1 UNK         0.0828 
    108 H108       26.3102  -33.1573  -44.2617 H         1 UNK         0.0828 
    109 H109       25.1375  -31.8902  -44.5914 H         1 UNK         0.0828 
    110 H110       22.5543  -32.7397  -43.9096 H         1 UNK         0.2931 
    111 H111       22.3200  -35.5293  -44.7470 H         1 UNK         0.0412 
    112 H112       20.4399  -36.9010  -44.2388 H         1 UNK         0.3472 
    113 H113       19.6499  -36.6989  -42.6973 H         1 UNK         0.3472 
    114 H114       21.6700  -33.9753  -46.4186 H         1 UNK         0.0970 
    115 H115       20.2213  -34.7691  -45.8985 H         1 UNK         0.0970 
    116 H116       18.1019  -33.3323  -45.8194 H         1 UNK         0.0612 
    117 H117       18.4882  -33.5931  -44.1346 H         1 UNK         0.0612 
@<TRIPOS>BOND
     1    1    2 1    
     2    1   62 1    
     3    1   63 1    
     4    1   64 1    
     5    2    3 2    
     6    2    4 am   BACKBONE|DICT|INTERRES
     7    4    5 1    
     8    4   65 1    
     9    5    6 1    
    10    5   25 1    
    11    5   66 1    
    12    6    7 1    
    13    6   67 1    
    14    6   68 1    
    15    7    8 1    
    16    8    9 1    
    17    8   69 1    
    18    8   70 1    
    19    9   10 ar   
    20    9   14 ar   
    21   10   11 ar   
    22   10   71 1    
    23   11   12 ar   
    24   11   61 1    
    25   12   13 ar   
    26   12   72 1    
    27   13   14 ar   
    28   13   15 1    
    29   14   73 1    
    30   15   16 1    
    31   15   74 1    
    32   15   75 1    
    33   16   17 1    
    34   17   18 1    
    35   17   76 1    
    36   17   77 1    
    37   18   19 1    
    38   18   27 1    
    39   18   78 1    
    40   19   20 am   BACKBONE|DICT|INTERRES
    41   19   79 1    
    42   20   21 2    
    43   20   22 1    
    44   22   23 1    
    45   22   24 1    
    46   22   80 1    
    47   23   81 1    
    48   23   82 1    
    49   23   83 1    
    50   24   25 am   BACKBONE|DICT|INTERRES
    51   24   84 1    
    52   25   26 2    
    53   27   28 2    
    54   27   29 am   BACKBONE|DICT|INTERRES
    55   29   30 1    
    56   29   85 1    
    57   30   31 1    
    58   30   32 1    
    59   30   86 1    
    60   31   87 1    
    61   31   88 1    
    62   31   89 1    
    63   32   33 2    
    64   32   34 am   BACKBONE|DICT|INTERRES
    65   34   35 1    
    66   34   90 1    
    67   35   36 1    
    68   35   37 1    
    69   35   91 1    
    70   36   92 1    
    71   36   93 1    
    72   36   94 1    
    73   37   38 2    
    74   37   39 am   BACKBONE|DICT|INTERRES
    75   39   40 1    
    76   39   95 1    
    77   40   41 1    
    78   40   42 1    
    79   40   96 1    
    80   41   97 1    
    81   41   98 1    
    82   41   99 1    
    83   42   43 2    
    84   42   44 am   BACKBONE|DICT|INTERRES
    85   44   45 1    
    86   44  100 1    
    87   45   46 1    
    88   45   47 1    
    89   45  101 1    
    90   46  102 1    
    91   46  103 1    
    92   46  104 1    
    93   47   48 2    
    94   47   49 am   BACKBONE|DICT|INTERRES
    95   49   50 1    
    96   49  105 1    
    97   50   51 1    
    98   50   52 1    
    99   50  106 1    
   100   51  107 1    
   101   51  108 1    
   102   51  109 1    
   103   52   53 2    
   104   52   54 am   BACKBONE|DICT|INTERRES
   105   54   55 1    
   106   54  110 1    
   107   55   56 1    
   108   55   59 1    
   109   55  111 1    
   110   56   57 am   BACKBONE|DICT|INTERRES
   111   56   58 2    
   112   57  112 1    
   113   57  113 1    
   114   59   60 1    
   115   59  114 1    
   116   59  115 1    
   117   60   61 1    
   118   61  116 1    
   119   61  117 1    
@<TRIPOS>SUBSTRUCTURE
     1 UNK         1 GROUP             0       ****    0 ROOT    
