@<TRIPOS>MOLECULE
3R8
117   119    1
SMALL
USER_CHARGES


@<TRIPOS>ATOM
      1 CA         14.4596  -24.2308  -41.1578 C.3       0 UNK        -0.2013 
      2 C          14.9564  -24.5195  -42.5663 C.2       0 UNK         0.4866 
      3 O          15.5470  -23.6445  -43.1996 O.2       0 UNK        -0.5176 
      4 N          14.7223  -25.7411  -43.0628 N.am      1 UNK        -0.4884 
      5 CA         15.1473  -26.2023  -44.3921 C.3       1 UNK         0.0853 
      6 C6         14.3395  -27.4463  -44.8460 C.3       10 UNK        -0.0849 
      7 S7         14.5010  -28.8907  -43.7301 S.3       10 UNK        -0.2776 
      8 C8         14.9459  -30.2300  -44.8838 C.3       10 UNK         0.0316 
      9 C9         16.4259  -30.2457  -45.2519 C.ar      10 UNK        -0.0863 
     10 C10        17.3541  -30.8569  -44.4010 C.ar      10 UNK        -0.1009 
     11 C11        18.6978  -30.9626  -44.7748 C.ar      10 UNK        -0.0712 
     12 C12        19.1100  -30.4567  -46.0093 C.ar      10 UNK        -0.0894 
     13 C13        18.2007  -29.8235  -46.8602 C.ar      10 UNK        -0.0745 
     14 C14        16.8597  -29.7184  -46.4740 C.ar      10 UNK        -0.0972 
     15 C15        18.6557  -29.3071  -48.2200 C.3       10 UNK         0.0209 
     16 S16        19.2859  -27.5979  -48.1544 S.3       10 UNK        -0.2568 
     17 C17        20.9444  -27.8127  -47.4196 C.3       10 UNK        -0.0983 
     18 CA         21.1139  -27.0837  -46.0620 C.3       3 UNK         0.0876 
     19 N          20.0795  -27.4453  -45.0903 N.am      3 UNK        -0.4424 
     20 C          19.7387  -26.6961  -44.0357 C.2       2 UNK         0.4918 
     21 O          20.2461  -25.6051  -43.7674 O.2       2 UNK        -0.4875 
     22 CA         18.6405  -27.2745  -43.1282 C.3       2 UNK         0.0481 
     23 CB         19.0130  -27.1045  -41.6468 C.3       2 UNK        -0.1831 
     24 N          17.2962  -26.7338  -43.3374 N.am      2 UNK        -0.4498 
     25 C          16.6636  -26.4695  -44.4919 C.2       1 UNK         0.5027 
     26 O          17.1888  -26.4634  -45.6035 O.2       1 UNK        -0.4969 
     27 C          22.5320  -27.3205  -45.5030 C.2       3 UNK         0.5005 
     28 O          23.4579  -26.6066  -45.8930 O.2       3 UNK        -0.5279 
     29 N          22.6869  -28.3178  -44.6191 N.am      4 UNK        -0.4463 
     30 CA         23.9543  -28.6632  -43.9788 C.3       4 UNK         0.0283 
     31 CB         23.9905  -30.1732  -43.6874 C.3       4 UNK        -0.1875 
     32 C          24.1195  -27.8689  -42.6777 C.2       4 UNK         0.4949 
     33 O          23.2038  -27.8559  -41.8538 O.2       4 UNK        -0.5039 
     34 N          25.2938  -27.2511  -42.5066 N.am      5 UNK        -0.4663 
     35 CA         25.7010  -26.5974  -41.2587 C.3       5 UNK         0.0242 
     36 CB         26.5566  -25.3632  -41.5885 C.3       5 UNK        -0.1982 
     37 C          26.4776  -27.5560  -40.3397 C.2       5 UNK         0.5017 
     38 O          26.4224  -27.4035  -39.1186 O.2       5 UNK        -0.5012 
     39 N          27.1895  -28.5246  -40.9335 N.am      6 UNK        -0.4439 
     40 CA         28.0042  -29.5272  -40.2462 C.3       6 UNK         0.0297 
     41 CB         29.1266  -29.9913  -41.1939 C.3       6 UNK        -0.2006 
     42 C          27.1323  -30.6926  -39.7467 C.2       6 UNK         0.4892 
     43 O          27.2180  -31.7990  -40.2834 O.2       6 UNK        -0.5089 
     44 N          26.2973  -30.4031  -38.7390 N.am      7 UNK        -0.4243 
     45 CA         25.2981  -31.2911  -38.1341 C.3       7 UNK         0.0196 
     46 CB         25.9771  -32.4654  -37.3908 C.3       7 UNK        -0.2007 
     47 C          24.2281  -31.7170  -39.1599 C.2       7 UNK         0.5020 
     48 O          23.8002  -30.8747  -39.9530 O.2       7 UNK        -0.5147 
     49 N          23.7838  -32.9831  -39.1012 N.am      8 UNK        -0.4734 
     50 CA         22.7771  -33.6656  -39.9375 C.3       8 UNK         0.0238 
     51 CB         23.2186  -33.7132  -41.4141 C.3       8 UNK        -0.1912 
     52 C          21.3450  -33.1108  -39.8139 C.2       8 UNK         0.5038 
     53 O          20.4032  -33.8839  -39.6349 O.2       8 UNK        -0.5046 
     54 N          21.2206  -31.7893  -39.9045 N.am      9 UNK        -0.4200 
     55 CA         19.9955  -30.9926  -39.8150 C.3       9 UNK         0.0839 
     56 C          20.2317  -29.5927  -39.1836 C.2       9 UNK         0.5513 
     57 N          21.4624  -29.1099  -39.0430 N.am      9 UNK        -0.7519 
     58 O          19.2729  -28.9421  -38.7774 O.2       9 UNK        -0.4960 
     59 C59        19.2302  -30.9198  -41.1664 C.3       10 UNK        -0.0876 
     60 S60        20.3064  -30.4948  -42.5860 S.3       10 UNK        -0.2414 
     61 C61        19.7106  -31.6401  -43.8653 C.3       10 UNK         0.0169 
     62 H62        13.9528  -25.0902  -40.7192 H         1 UNK         0.0903 
     63 H63        15.2961  -23.9646  -40.5122 H         1 UNK         0.0903 
     64 H64        13.7600  -23.3955  -41.1708 H         1 UNK         0.0903 
     65 H65        14.2269  -26.4255  -42.5071 H         1 UNK         0.3096 
     66 H66        14.9344  -25.3989  -45.1016 H         1 UNK         0.1121 
     67 H67        14.6231  -27.7271  -45.8618 H         1 UNK         0.0849 
     68 H68        13.2809  -27.1887  -44.9056 H         1 UNK         0.0849 
     69 H69        14.6878  -31.1822  -44.4178 H         1 UNK         0.0865 
     70 H70        14.3257  -30.1652  -45.7792 H         1 UNK         0.0865 
     71 H71        17.0275  -31.2658  -43.4546 H         1 UNK         0.1346 
     72 H72        20.1416  -30.5702  -46.3103 H         1 UNK         0.1412 
     73 H73        16.1490  -29.2482  -47.1398 H         1 UNK         0.1426 
     74 H74        19.4185  -29.9642  -48.6405 H         1 UNK         0.0716 
     75 H75        17.8195  -29.3372  -48.9202 H         1 UNK         0.0716 
     76 H76        21.6659  -27.4213  -48.1395 H         1 UNK         0.0695 
     77 H77        21.1753  -28.8737  -47.3270 H         1 UNK         0.0695 
     78 H78        21.0243  -26.0119  -46.2546 H         1 UNK         0.0983 
     79 H79        19.5442  -28.2796  -45.2900 H         1 UNK         0.3095 
     80 H80        18.5640  -28.3423  -43.3311 H         1 UNK         0.0454 
     81 H81        19.0181  -26.0555  -41.3488 H         1 UNK         0.0851 
     82 H82        20.0093  -27.5030  -41.4474 H         1 UNK         0.0851 
     83 H83        18.3165  -27.6340  -40.9975 H         1 UNK         0.0851 
     84 H84        16.7246  -26.6723  -42.5083 H         1 UNK         0.2976 
     85 H85        21.8669  -28.8034  -44.2836 H         1 UNK         0.3116 
     86 H86        24.7796  -28.4328  -44.6564 H         1 UNK         0.0646 
     87 H87        23.8381  -30.7605  -44.5929 H         1 UNK         0.0847 
     88 H88        24.9536  -30.4656  -43.2670 H         1 UNK         0.0847 
     89 H89        23.2280  -30.4640  -42.9643 H         1 UNK         0.0847 
     90 H90        25.9677  -27.2649  -43.2595 H         1 UNK         0.3040 
     91 H91        24.8179  -26.2600  -40.7106 H         1 UNK         0.1015 
     92 H92        27.4657  -25.6300  -42.1291 H         1 UNK         0.0786 
     93 H93        26.8594  -24.8447  -40.6775 H         1 UNK         0.0786 
     94 H94        26.0017  -24.6485  -42.1967 H         1 UNK         0.0786 
     95 H95        27.1378  -28.6039  -41.9375 H         1 UNK         0.3172 
     96 H96        28.4772  -29.0697  -39.3743 H         1 UNK         0.0595 
     97 H97        28.7304  -30.4461  -42.1029 H         1 UNK         0.0839 
     98 H98        29.7626  -30.7335  -40.7095 H         1 UNK         0.0839 
     99 H99        29.7680  -29.1599  -41.4867 H         1 UNK         0.0839 
    100 H100       26.2627  -29.4339  -38.4423 H         1 UNK         0.2998 
    101 H101       24.7739  -30.6897  -37.3899 H         1 UNK         0.0822 
    102 H102       25.2607  -33.0210  -36.7845 H         1 UNK         0.0787 
    103 H103       26.4498  -33.1684  -38.0780 H         1 UNK         0.0787 
    104 H104       26.7482  -32.1031  -36.7106 H         1 UNK         0.0787 
    105 H105       24.1907  -33.5652  -38.3817 H         1 UNK         0.3055 
    106 H106       22.7387  -34.6950  -39.5765 H         1 UNK         0.1106 
    107 H107       22.5137  -34.2916  -42.0129 H         1 UNK         0.0828 
    108 H108       23.2761  -32.7186  -41.8568 H         1 UNK         0.0828 
    109 H109       24.1965  -34.1825  -41.5203 H         1 UNK         0.0828 
    110 H110       22.0793  -31.2653  -40.0542 H         1 UNK         0.2931 
    111 H111       19.3416  -31.5002  -39.1031 H         1 UNK         0.0412 
    112 H112       21.5770  -28.2016  -38.6234 H         1 UNK         0.3472 
    113 H113       22.2726  -29.5893  -39.4132 H         1 UNK         0.3472 
    114 H114       18.7613  -31.8874  -41.3455 H         1 UNK         0.0970 
    115 H115       18.4059  -30.2061  -41.1192 H         1 UNK         0.0970 
    116 H116       20.5706  -31.9766  -44.4463 H         1 UNK         0.0612 
    117 H117       19.2834  -32.5405  -43.4227 H         1 UNK         0.0612 
@<TRIPOS>BOND
     1    1    2 1    
     2    1   62 1    
     3    1   63 1    
     4    1   64 1    
     5    2    3 2    
     6    2    4 am   BACKBONE|DICT|INTERRES
     7    4    5 1    
     8    4   65 1    
     9    5    6 1    
    10    5   25 1    
    11    5   66 1    
    12    6    7 1    
    13    6   67 1    
    14    6   68 1    
    15    7    8 1    
    16    8    9 1    
    17    8   69 1    
    18    8   70 1    
    19    9   10 ar   
    20    9   14 ar   
    21   10   11 ar   
    22   10   71 1    
    23   11   12 ar   
    24   11   61 1    
    25   12   13 ar   
    26   12   72 1    
    27   13   14 ar   
    28   13   15 1    
    29   14   73 1    
    30   15   16 1    
    31   15   74 1    
    32   15   75 1    
    33   16   17 1    
    34   17   18 1    
    35   17   76 1    
    36   17   77 1    
    37   18   19 1    
    38   18   27 1    
    39   18   78 1    
    40   19   20 am   BACKBONE|DICT|INTERRES
    41   19   79 1    
    42   20   21 2    
    43   20   22 1    
    44   22   23 1    
    45   22   24 1    
    46   22   80 1    
    47   23   81 1    
    48   23   82 1    
    49   23   83 1    
    50   24   25 am   BACKBONE|DICT|INTERRES
    51   24   84 1    
    52   25   26 2    
    53   27   28 2    
    54   27   29 am   BACKBONE|DICT|INTERRES
    55   29   30 1    
    56   29   85 1    
    57   30   31 1    
    58   30   32 1    
    59   30   86 1    
    60   31   87 1    
    61   31   88 1    
    62   31   89 1    
    63   32   33 2    
    64   32   34 am   BACKBONE|DICT|INTERRES
    65   34   35 1    
    66   34   90 1    
    67   35   36 1    
    68   35   37 1    
    69   35   91 1    
    70   36   92 1    
    71   36   93 1    
    72   36   94 1    
    73   37   38 2    
    74   37   39 am   BACKBONE|DICT|INTERRES
    75   39   40 1    
    76   39   95 1    
    77   40   41 1    
    78   40   42 1    
    79   40   96 1    
    80   41   97 1    
    81   41   98 1    
    82   41   99 1    
    83   42   43 2    
    84   42   44 am   BACKBONE|DICT|INTERRES
    85   44   45 1    
    86   44  100 1    
    87   45   46 1    
    88   45   47 1    
    89   45  101 1    
    90   46  102 1    
    91   46  103 1    
    92   46  104 1    
    93   47   48 2    
    94   47   49 am   BACKBONE|DICT|INTERRES
    95   49   50 1    
    96   49  105 1    
    97   50   51 1    
    98   50   52 1    
    99   50  106 1    
   100   51  107 1    
   101   51  108 1    
   102   51  109 1    
   103   52   53 2    
   104   52   54 am   BACKBONE|DICT|INTERRES
   105   54   55 1    
   106   54  110 1    
   107   55   56 1    
   108   55   59 1    
   109   55  111 1    
   110   56   57 am   BACKBONE|DICT|INTERRES
   111   56   58 2    
   112   57  112 1    
   113   57  113 1    
   114   59   60 1    
   115   59  114 1    
   116   59  115 1    
   117   60   61 1    
   118   61  116 1    
   119   61  117 1    
@<TRIPOS>SUBSTRUCTURE
     1 UNK         1 GROUP             0       ****    0 ROOT    
