@<TRIPOS>MOLECULE
3R8
117   119    1
SMALL
USER_CHARGES


@<TRIPOS>ATOM
      1 CA         14.8085  -22.3945  -44.3682 C.3       0 UNK        -0.2013 
      2 C          15.6671  -23.4159  -45.0988 C.2       0 UNK         0.4866 
      3 O          15.9490  -23.2408  -46.2843 O.2       0 UNK        -0.5176 
      4 N          16.0783  -24.4834  -44.4015 N.am      1 UNK        -0.4884 
      5 CA         16.9151  -25.5671  -44.9320 C.3       1 UNK         0.0853 
      6 C6         17.0203  -26.7453  -43.9351 C.3       10 UNK        -0.0849 
      7 S7         15.4632  -27.6819  -43.7501 S.3       10 UNK        -0.2776 
      8 C8         15.6943  -29.1047  -44.8769 C.3       10 UNK         0.0316 
      9 C9         17.0071  -29.8381  -44.6321 C.ar      10 UNK        -0.0863 
     10 C10        17.2003  -30.5819  -43.4655 C.ar      10 UNK        -0.1009 
     11 C11        18.4362  -31.1802  -43.1974 C.ar      10 UNK        -0.0712 
     12 C12        19.4842  -31.0207  -44.1132 C.ar      10 UNK        -0.0894 
     13 C13        19.3002  -30.2953  -45.2942 C.ar      10 UNK        -0.0745 
     14 C14        18.0495  -29.7269  -45.5555 C.ar      10 UNK        -0.0972 
     15 C15        20.4463  -30.1429  -46.2899 C.3       10 UNK         0.0209 
     16 S16        20.6293  -28.4282  -46.8930 S.3       10 UNK        -0.2568 
     17 C17        22.2831  -27.9398  -46.2962 C.3       10 UNK        -0.0983 
     18 CA         22.2856  -27.0789  -45.0077 C.3       3 UNK         0.0876 
     19 N          21.3691  -25.9318  -45.0741 N.am      3 UNK        -0.4424 
     20 C          21.3883  -24.8762  -44.2484 C.2       2 UNK         0.4918 
     21 O          22.1792  -24.7683  -43.3110 O.2       2 UNK        -0.4875 
     22 CA         20.3285  -23.7786  -44.4674 C.3       2 UNK         0.0481 
     23 CB         20.6240  -22.9512  -45.7338 C.3       2 UNK        -0.1831 
     24 N          18.9439  -24.2745  -44.4401 N.am      2 UNK        -0.4498 
     25 C          18.3333  -25.0949  -45.3096 C.2       1 UNK         0.5027 
     26 O          18.8537  -25.5124  -46.3439 O.2       1 UNK        -0.4969 
     27 C          22.1251  -27.9363  -43.7357 C.2       3 UNK         0.5005 
     28 O          23.0661  -28.6429  -43.3748 O.2       3 UNK        -0.5279 
     29 N          20.9930  -27.8096  -43.0275 N.am      4 UNK        -0.4463 
     30 CA         20.7350  -28.4226  -41.7181 C.3       4 UNK         0.0283 
     31 CB         19.2893  -28.1200  -41.2947 C.3       4 UNK        -0.1875 
     32 C          21.7157  -27.9915  -40.6073 C.2       4 UNK         0.4949 
     33 O          21.8169  -28.6848  -39.5965 O.2       4 UNK        -0.5039 
     34 N          22.4253  -26.8710  -40.8048 N.am      5 UNK        -0.4663 
     35 CA         23.5106  -26.4205  -39.9316 C.3       5 UNK         0.0242 
     36 CB         23.7073  -24.9082  -40.1271 C.3       5 UNK        -0.1982 
     37 C          24.8371  -27.1680  -40.1750 C.2       5 UNK         0.5017 
     38 O          25.7015  -27.1332  -39.2982 O.2       5 UNK        -0.5012 
     39 N          24.9927  -27.7975  -41.3491 N.am      6 UNK        -0.4439 
     40 CA         26.2078  -28.4980  -41.7751 C.3       6 UNK         0.0297 
     41 CB         26.6158  -27.9905  -43.1685 C.3       6 UNK        -0.2006 
     42 C          26.0178  -30.0226  -41.8006 C.2       6 UNK         0.4892 
     43 O          26.9540  -30.7490  -41.4633 O.2       6 UNK        -0.5089 
     44 N          24.8285  -30.4810  -42.2133 N.am      7 UNK        -0.4243 
     45 CA         24.4352  -31.8886  -42.2848 C.3       7 UNK         0.0196 
     46 CB         23.0894  -31.9756  -43.0227 C.3       7 UNK        -0.2007 
     47 C          24.3143  -32.5429  -40.8990 C.2       7 UNK         0.5020 
     48 O          24.1151  -31.8507  -39.8990 O.2       7 UNK        -0.5147 
     49 N          24.3665  -33.8819  -40.8727 N.am      8 UNK        -0.4734 
     50 CA         24.2070  -34.7012  -39.6626 C.3       8 UNK         0.0238 
     51 CB         24.4930  -36.1730  -40.0025 C.3       8 UNK        -0.1912 
     52 C          22.8279  -34.5611  -38.9896 C.2       8 UNK         0.5038 
     53 O          22.7328  -34.7238  -37.7725 O.2       8 UNK        -0.5046 
     54 N          21.8001  -34.2428  -39.7867 N.am      9 UNK        -0.4200 
     55 CA         20.4574  -33.8650  -39.3255 C.3       9 UNK         0.0839 
     56 C          20.3392  -32.4005  -38.8068 C.2       9 UNK         0.5513 
     57 N          21.3711  -31.5710  -38.8969 N.am      9 UNK        -0.7519 
     58 O          19.2833  -32.0103  -38.3157 O.2       9 UNK        -0.4960 
     59 C59        19.3750  -34.2025  -40.3868 C.3       10 UNK        -0.0876 
     60 S60        19.6463  -33.4394  -42.0275 S.3       10 UNK        -0.2414 
     61 C61        18.6284  -31.9319  -41.8830 C.3       10 UNK         0.0169 
     62 H62        15.2967  -21.4203  -44.3756 H         1 UNK         0.0903 
     63 H63        13.8421  -22.2951  -44.8620 H         1 UNK         0.0903 
     64 H64        14.6311  -22.6769  -43.3305 H         1 UNK         0.0903 
     65 H65        15.7826  -24.5897  -43.4410 H         1 UNK         0.3096 
     66 H66        16.4506  -25.9304  -45.8518 H         1 UNK         0.1121 
     67 H67        17.3007  -26.3765  -42.9469 H         1 UNK         0.0849 
     68 H68        17.8242  -27.4231  -44.2177 H         1 UNK         0.0849 
     69 H69        14.8631  -29.7992  -44.7476 H         1 UNK         0.0865 
     70 H70        15.6360  -28.7509  -45.9075 H         1 UNK         0.0865 
     71 H71        16.3941  -30.6624  -42.7488 H         1 UNK         0.1346 
     72 H72        20.4475  -31.4617  -43.9062 H         1 UNK         0.1412 
     73 H73        17.9008  -29.1588  -46.4638 H         1 UNK         0.1426 
     74 H74        21.3832  -30.4882  -45.8509 H         1 UNK         0.0716 
     75 H75        20.2513  -30.7924  -47.1441 H         1 UNK         0.0716 
     76 H76        22.9222  -28.8183  -46.1884 H         1 UNK         0.0695 
     77 H77        22.7401  -27.3594  -47.0990 H         1 UNK         0.0695 
     78 H78        23.2896  -26.6554  -44.9270 H         1 UNK         0.0983 
     79 H79        20.6495  -25.9659  -45.7922 H         1 UNK         0.3095 
     80 H80        20.4067  -23.0981  -43.6180 H         1 UNK         0.0454 
     81 H81        20.5921  -23.5542  -46.6413 H         1 UNK         0.0851 
     82 H82        19.9085  -22.1371  -45.8493 H         1 UNK         0.0851 
     83 H83        21.6173  -22.5037  -45.6806 H         1 UNK         0.0851 
     84 H84        18.4105  -23.9969  -43.6276 H         1 UNK         0.2976 
     85 H85        20.2743  -27.2085  -43.3992 H         1 UNK         0.3116 
     86 H86        20.8400  -29.5027  -41.8356 H         1 UNK         0.0646 
     87 H87        19.1213  -27.0505  -41.1639 H         1 UNK         0.0847 
     88 H88        19.0523  -28.6054  -40.3468 H         1 UNK         0.0847 
     89 H89        18.5734  -28.4885  -42.0280 H         1 UNK         0.0847 
     90 H90        22.2639  -26.3295  -41.6454 H         1 UNK         0.3040 
     91 H91        23.2235  -26.5957  -38.8921 H         1 UNK         0.1015 
     92 H92        22.7923  -24.3571  -39.9089 H         1 UNK         0.0786 
     93 H93        24.0071  -24.6689  -41.1483 H         1 UNK         0.0786 
     94 H94        24.4821  -24.5252  -39.4614 H         1 UNK         0.0786 
     95 H95        24.2061  -27.8342  -41.9889 H         1 UNK         0.3172 
     96 H96        27.0295  -28.2823  -41.0892 H         1 UNK         0.0595 
     97 H97        26.8169  -26.9192  -43.1559 H         1 UNK         0.0839 
     98 H98        25.8399  -28.1768  -43.9123 H         1 UNK         0.0839 
     99 H99        27.5243  -28.4862  -43.5136 H         1 UNK         0.0839 
    100 H100       24.1291  -29.8087  -42.5204 H         1 UNK         0.2998 
    101 H101       25.1950  -32.4228  -42.8590 H         1 UNK         0.0822 
    102 H102       23.1471  -31.5186  -44.0110 H         1 UNK         0.0787 
    103 H103       22.7760  -33.0108  -43.1629 H         1 UNK         0.0787 
    104 H104       22.3020  -31.4671  -42.4646 H         1 UNK         0.0787 
    105 H105       24.5220  -34.3798  -41.7383 H         1 UNK         0.3055 
    106 H106       24.9510  -34.3653  -38.9366 H         1 UNK         0.1106 
    107 H107       24.4063  -36.8021  -39.1152 H         1 UNK         0.0828 
    108 H108       23.7942  -36.5604  -40.7451 H         1 UNK         0.0828 
    109 H109       25.5036  -36.3030  -40.3900 H         1 UNK         0.0828 
    110 H110       21.9740  -34.1212  -40.7730 H         1 UNK         0.2931 
    111 H111       20.2321  -34.4869  -38.4569 H         1 UNK         0.0412 
    112 H112       21.2663  -30.6055  -38.6188 H         1 UNK         0.3472 
    113 H113       22.2626  -31.8675  -39.2788 H         1 UNK         0.3472 
    114 H114       18.3788  -33.9502  -40.0188 H         1 UNK         0.0970 
    115 H115       19.3532  -35.2831  -40.5353 H         1 UNK         0.0970 
    116 H116       19.0909  -31.2542  -41.1656 H         1 UNK         0.0612 
    117 H117       17.6570  -32.2088  -41.4707 H         1 UNK         0.0612 
@<TRIPOS>BOND
     1    1    2 1    
     2    1   62 1    
     3    1   63 1    
     4    1   64 1    
     5    2    3 2    
     6    2    4 am   BACKBONE|DICT|INTERRES
     7    4    5 1    
     8    4   65 1    
     9    5    6 1    
    10    5   25 1    
    11    5   66 1    
    12    6    7 1    
    13    6   67 1    
    14    6   68 1    
    15    7    8 1    
    16    8    9 1    
    17    8   69 1    
    18    8   70 1    
    19    9   10 ar   
    20    9   14 ar   
    21   10   11 ar   
    22   10   71 1    
    23   11   12 ar   
    24   11   61 1    
    25   12   13 ar   
    26   12   72 1    
    27   13   14 ar   
    28   13   15 1    
    29   14   73 1    
    30   15   16 1    
    31   15   74 1    
    32   15   75 1    
    33   16   17 1    
    34   17   18 1    
    35   17   76 1    
    36   17   77 1    
    37   18   19 1    
    38   18   27 1    
    39   18   78 1    
    40   19   20 am   BACKBONE|DICT|INTERRES
    41   19   79 1    
    42   20   21 2    
    43   20   22 1    
    44   22   23 1    
    45   22   24 1    
    46   22   80 1    
    47   23   81 1    
    48   23   82 1    
    49   23   83 1    
    50   24   25 am   BACKBONE|DICT|INTERRES
    51   24   84 1    
    52   25   26 2    
    53   27   28 2    
    54   27   29 am   BACKBONE|DICT|INTERRES
    55   29   30 1    
    56   29   85 1    
    57   30   31 1    
    58   30   32 1    
    59   30   86 1    
    60   31   87 1    
    61   31   88 1    
    62   31   89 1    
    63   32   33 2    
    64   32   34 am   BACKBONE|DICT|INTERRES
    65   34   35 1    
    66   34   90 1    
    67   35   36 1    
    68   35   37 1    
    69   35   91 1    
    70   36   92 1    
    71   36   93 1    
    72   36   94 1    
    73   37   38 2    
    74   37   39 am   BACKBONE|DICT|INTERRES
    75   39   40 1    
    76   39   95 1    
    77   40   41 1    
    78   40   42 1    
    79   40   96 1    
    80   41   97 1    
    81   41   98 1    
    82   41   99 1    
    83   42   43 2    
    84   42   44 am   BACKBONE|DICT|INTERRES
    85   44   45 1    
    86   44  100 1    
    87   45   46 1    
    88   45   47 1    
    89   45  101 1    
    90   46  102 1    
    91   46  103 1    
    92   46  104 1    
    93   47   48 2    
    94   47   49 am   BACKBONE|DICT|INTERRES
    95   49   50 1    
    96   49  105 1    
    97   50   51 1    
    98   50   52 1    
    99   50  106 1    
   100   51  107 1    
   101   51  108 1    
   102   51  109 1    
   103   52   53 2    
   104   52   54 am   BACKBONE|DICT|INTERRES
   105   54   55 1    
   106   54  110 1    
   107   55   56 1    
   108   55   59 1    
   109   55  111 1    
   110   56   57 am   BACKBONE|DICT|INTERRES
   111   56   58 2    
   112   57  112 1    
   113   57  113 1    
   114   59   60 1    
   115   59  114 1    
   116   59  115 1    
   117   60   61 1    
   118   61  116 1    
   119   61  117 1    
@<TRIPOS>SUBSTRUCTURE
     1 UNK         1 GROUP             0       ****    0 ROOT    
