@<TRIPOS>MOLECULE
3R8
117   119    1
SMALL
USER_CHARGES


@<TRIPOS>ATOM
      1 CA         19.0657  -28.7392  -41.4350 C.3       0 UNK        -0.2013 
      2 C          18.4132  -27.7573  -42.3931 C.2       0 UNK         0.4866 
      3 O          18.9631  -27.4975  -43.4603 O.2       0 UNK        -0.5176 
      4 N          17.2405  -27.2267  -42.0162 N.am      1 UNK        -0.4884 
      5 CA         16.4091  -26.2635  -42.7536 C.3       1 UNK         0.0853 
      6 C6         15.4013  -26.9306  -43.7442 C.3       10 UNK        -0.0849 
      7 S7         16.0915  -27.7866  -45.2075 S.3       10 UNK        -0.2776 
      8 C8         16.2417  -29.5154  -44.6274 C.3       10 UNK         0.0316 
      9 C9         17.5062  -30.2554  -45.0797 C.ar      10 UNK        -0.0863 
     10 C10        17.7415  -31.5352  -44.5680 C.ar      10 UNK        -0.1009 
     11 C11        18.8870  -32.2527  -44.9253 C.ar      10 UNK        -0.0712 
     12 C12        19.8091  -31.6803  -45.8051 C.ar      10 UNK        -0.0894 
     13 C13        19.5983  -30.4030  -46.3316 C.ar      10 UNK        -0.0745 
     14 C14        18.4380  -29.7057  -45.9725 C.ar      10 UNK        -0.0972 
     15 C15        20.6241  -29.8304  -47.3125 C.3       10 UNK         0.0209 
     16 S16        20.6827  -28.0069  -47.4154 S.3       10 UNK        -0.2568 
     17 C17        21.4610  -27.5809  -45.8240 C.3       10 UNK        -0.0983 
     18 CA         21.3972  -26.0584  -45.5507 C.3       3 UNK         0.0876 
     19 N          20.0313  -25.5830  -45.3167 N.am      3 UNK        -0.4424 
     20 C          19.6212  -24.3348  -45.5842 C.2       2 UNK         0.4918 
     21 O          20.3666  -23.4684  -46.0450 O.2       2 UNK        -0.4875 
     22 CA         18.1440  -23.9676  -45.3416 C.3       2 UNK         0.0481 
     23 CB         17.4388  -23.6967  -46.6815 C.3       2 UNK        -0.1831 
     24 N          17.3923  -24.9980  -44.6277 N.am      2 UNK        -0.4498 
     25 C          17.2208  -25.0642  -43.3034 C.2       1 UNK         0.5027 
     26 O          17.6720  -24.2325  -42.5128 O.2       1 UNK        -0.4969 
     27 C          22.2886  -25.6625  -44.3607 C.2       3 UNK         0.5005 
     28 O          21.9981  -26.0313  -43.2197 O.2       3 UNK        -0.5279 
     29 N          23.3662  -24.9199  -44.6468 N.am      4 UNK        -0.4463 
     30 CA         24.3625  -24.4969  -43.6635 C.3       4 UNK         0.0283 
     31 CB         25.2806  -23.4341  -44.2886 C.3       4 UNK        -0.1875 
     32 C          25.1852  -25.6920  -43.1583 C.2       4 UNK         0.4949 
     33 O          25.6389  -26.5019  -43.9690 O.2       4 UNK        -0.5039 
     34 N          25.3635  -25.7616  -41.8321 N.am      5 UNK        -0.4663 
     35 CA         26.1334  -26.7682  -41.0860 C.3       5 UNK         0.0242 
     36 CB         27.6334  -26.6856  -41.4433 C.3       5 UNK        -0.1982 
     37 C          25.5906  -28.2102  -41.1829 C.2       5 UNK         0.5017 
     38 O          26.3059  -29.1461  -40.8193 O.2       5 UNK        -0.5012 
     39 N          24.3327  -28.3844  -41.6154 N.am      6 UNK        -0.4439 
     40 CA         23.6410  -29.6746  -41.7242 C.3       6 UNK         0.0297 
     41 CB         22.5237  -29.5591  -42.7770 C.3       6 UNK        -0.2006 
     42 C          23.1314  -30.1785  -40.3575 C.2       6 UNK         0.4892 
     43 O          21.9471  -30.4828  -40.2051 O.2       6 UNK        -0.5089 
     44 N          24.0436  -30.2606  -39.3799 N.am      7 UNK        -0.4243 
     45 CA         23.7831  -30.6452  -37.9887 C.3       7 UNK         0.0196 
     46 CB         25.0446  -30.3807  -37.1513 C.3       7 UNK        -0.2007 
     47 C          23.3149  -32.1003  -37.8144 C.2       7 UNK         0.5020 
     48 O          22.6373  -32.3998  -36.8315 O.2       7 UNK        -0.5147 
     49 N          23.6660  -32.9737  -38.7687 N.am      8 UNK        -0.4734 
     50 CA         23.1859  -34.3570  -38.8400 C.3       8 UNK         0.0238 
     51 CB         24.0522  -35.1444  -39.8366 C.3       8 UNK        -0.1912 
     52 C          21.6985  -34.4530  -39.2272 C.2       8 UNK         0.5038 
     53 O          21.0345  -35.4096  -38.8256 O.2       8 UNK        -0.5046 
     54 N          21.2119  -33.4690  -39.9928 N.am      9 UNK        -0.4200 
     55 CA         19.8059  -33.3230  -40.3842 C.3       9 UNK         0.0839 
     56 C          19.0126  -32.5084  -39.3306 C.2       9 UNK         0.5513 
     57 N          19.5445  -31.3904  -38.8509 N.am      9 UNK        -0.7519 
     58 O          17.9112  -32.8935  -38.9479 O.2       9 UNK        -0.4960 
     59 C59        19.6708  -32.6743  -41.7822 C.3       10 UNK        -0.0876 
     60 S60        20.4347  -33.6688  -43.1065 S.3       10 UNK        -0.2414 
     61 C61        19.1262  -33.6516  -44.3720 C.3       10 UNK         0.0169 
     62 H62        19.4265  -29.5984  -41.9954 H         1 UNK         0.0903 
     63 H63        19.9174  -28.2757  -40.9377 H         1 UNK         0.0903 
     64 H64        18.3728  -29.0974  -40.6741 H         1 UNK         0.0903 
     65 H65        16.8795  -27.4750  -41.1056 H         1 UNK         0.3096 
     66 H66        15.7858  -25.8108  -41.9801 H         1 UNK         0.1121 
     67 H67        14.7086  -26.1720  -44.1133 H         1 UNK         0.0849 
     68 H68        14.7724  -27.6349  -43.1978 H         1 UNK         0.0849 
     69 H69        16.2126  -29.5303  -43.5374 H         1 UNK         0.0865 
     70 H70        15.3650  -30.0695  -44.9652 H         1 UNK         0.0865 
     71 H71        17.0274  -31.9753  -43.8852 H         1 UNK         0.1346 
     72 H72        20.6947  -32.2369  -46.0806 H         1 UNK         0.1412 
     73 H73        18.2716  -28.7245  -46.3884 H         1 UNK         0.1426 
     74 H74        20.3961  -30.2199  -48.3053 H         1 UNK         0.0716 
     75 H75        21.6228  -30.1916  -47.0616 H         1 UNK         0.0716 
     76 H76        20.9786  -28.1418  -45.0220 H         1 UNK         0.0695 
     77 H77        22.4970  -27.9231  -45.8624 H         1 UNK         0.0695 
     78 H78        21.7855  -25.5596  -46.4419 H         1 UNK         0.0983 
     79 H79        19.4215  -26.2292  -44.8200 H         1 UNK         0.3095 
     80 H80        18.1305  -23.0420  -44.7627 H         1 UNK         0.0454 
     81 H81        16.4067  -23.3804  -46.5301 H         1 UNK         0.0851 
     82 H82        17.9401  -22.9022  -47.2360 H         1 UNK         0.0851 
     83 H83        17.4289  -24.5823  -47.3183 H         1 UNK         0.0851 
     84 H84        17.0274  -25.7666  -45.1786 H         1 UNK         0.2976 
     85 H85        23.5522  -24.6762  -45.6091 H         1 UNK         0.3116 
     86 H86        23.8347  -24.0415  -42.8224 H         1 UNK         0.0646 
     87 H87        25.8277  -23.8260  -45.1471 H         1 UNK         0.0847 
     88 H88        26.0190  -23.0839  -43.5660 H         1 UNK         0.0847 
     89 H89        24.7145  -22.5629  -44.6190 H         1 UNK         0.0847 
     90 H90        24.9280  -25.0478  -41.2625 H         1 UNK         0.3040 
     91 H91        26.0372  -26.4963  -40.0335 H         1 UNK         0.1015 
     92 H92        28.0100  -25.6676  -41.3440 H         1 UNK         0.0786 
     93 H93        27.8262  -27.0170  -42.4641 H         1 UNK         0.0786 
     94 H94        28.2308  -27.3141  -40.7816 H         1 UNK         0.0786 
     95 H95        23.8004  -27.5639  -41.8731 H         1 UNK         0.3172 
     96 H96        24.3507  -30.4204  -42.0883 H         1 UNK         0.0595 
     97 H97        22.9313  -29.2957  -43.7526 H         1 UNK         0.0839 
     98 H98        21.7904  -28.7987  -42.5079 H         1 UNK         0.0839 
     99 H99        21.9913  -30.5032  -42.8982 H         1 UNK         0.0839 
    100 H100       24.9954  -29.9956  -39.6157 H         1 UNK         0.2998 
    101 H101       22.9821  -30.0036  -37.6153 H         1 UNK         0.0822 
    102 H102       25.8904  -30.9763  -37.4974 H         1 UNK         0.0787 
    103 H103       25.3346  -29.3305  -37.1911 H         1 UNK         0.0787 
    104 H104       24.8771  -30.6295  -36.1023 H         1 UNK         0.0787 
    105 H105       24.2470  -32.6458  -39.5267 H         1 UNK         0.3055 
    106 H106       23.2968  -34.8113  -37.8525 H         1 UNK         0.1106 
    107 H107       25.1011  -35.1428  -39.5396 H         1 UNK         0.0828 
    108 H108       23.7342  -36.1866  -39.8896 H         1 UNK         0.0828 
    109 H109       23.9859  -34.7329  -40.8447 H         1 UNK         0.0828 
    110 H110       21.8113  -32.6881  -40.2211 H         1 UNK         0.2931 
    111 H111       19.3495  -34.3135  -40.4405 H         1 UNK         0.0412 
    112 H112       19.0425  -30.8593  -38.1580 H         1 UNK         0.3472 
    113 H113       20.4307  -31.0487  -39.2120 H         1 UNK         0.3472 
    114 H114       20.1431  -31.6935  -41.7940 H         1 UNK         0.0970 
    115 H115       18.6177  -32.5101  -42.0145 H         1 UNK         0.0970 
    116 H116       19.4169  -34.3163  -45.1867 H         1 UNK         0.0612 
    117 H117       18.2097  -34.0678  -43.9508 H         1 UNK         0.0612 
@<TRIPOS>BOND
     1    1    2 1    
     2    1   62 1    
     3    1   63 1    
     4    1   64 1    
     5    2    3 2    
     6    2    4 am   BACKBONE|DICT|INTERRES
     7    4    5 1    
     8    4   65 1    
     9    5    6 1    
    10    5   25 1    
    11    5   66 1    
    12    6    7 1    
    13    6   67 1    
    14    6   68 1    
    15    7    8 1    
    16    8    9 1    
    17    8   69 1    
    18    8   70 1    
    19    9   10 ar   
    20    9   14 ar   
    21   10   11 ar   
    22   10   71 1    
    23   11   12 ar   
    24   11   61 1    
    25   12   13 ar   
    26   12   72 1    
    27   13   14 ar   
    28   13   15 1    
    29   14   73 1    
    30   15   16 1    
    31   15   74 1    
    32   15   75 1    
    33   16   17 1    
    34   17   18 1    
    35   17   76 1    
    36   17   77 1    
    37   18   19 1    
    38   18   27 1    
    39   18   78 1    
    40   19   20 am   BACKBONE|DICT|INTERRES
    41   19   79 1    
    42   20   21 2    
    43   20   22 1    
    44   22   23 1    
    45   22   24 1    
    46   22   80 1    
    47   23   81 1    
    48   23   82 1    
    49   23   83 1    
    50   24   25 am   BACKBONE|DICT|INTERRES
    51   24   84 1    
    52   25   26 2    
    53   27   28 2    
    54   27   29 am   BACKBONE|DICT|INTERRES
    55   29   30 1    
    56   29   85 1    
    57   30   31 1    
    58   30   32 1    
    59   30   86 1    
    60   31   87 1    
    61   31   88 1    
    62   31   89 1    
    63   32   33 2    
    64   32   34 am   BACKBONE|DICT|INTERRES
    65   34   35 1    
    66   34   90 1    
    67   35   36 1    
    68   35   37 1    
    69   35   91 1    
    70   36   92 1    
    71   36   93 1    
    72   36   94 1    
    73   37   38 2    
    74   37   39 am   BACKBONE|DICT|INTERRES
    75   39   40 1    
    76   39   95 1    
    77   40   41 1    
    78   40   42 1    
    79   40   96 1    
    80   41   97 1    
    81   41   98 1    
    82   41   99 1    
    83   42   43 2    
    84   42   44 am   BACKBONE|DICT|INTERRES
    85   44   45 1    
    86   44  100 1    
    87   45   46 1    
    88   45   47 1    
    89   45  101 1    
    90   46  102 1    
    91   46  103 1    
    92   46  104 1    
    93   47   48 2    
    94   47   49 am   BACKBONE|DICT|INTERRES
    95   49   50 1    
    96   49  105 1    
    97   50   51 1    
    98   50   52 1    
    99   50  106 1    
   100   51  107 1    
   101   51  108 1    
   102   51  109 1    
   103   52   53 2    
   104   52   54 am   BACKBONE|DICT|INTERRES
   105   54   55 1    
   106   54  110 1    
   107   55   56 1    
   108   55   59 1    
   109   55  111 1    
   110   56   57 am   BACKBONE|DICT|INTERRES
   111   56   58 2    
   112   57  112 1    
   113   57  113 1    
   114   59   60 1    
   115   59  114 1    
   116   59  115 1    
   117   60   61 1    
   118   61  116 1    
   119   61  117 1    
@<TRIPOS>SUBSTRUCTURE
     1 UNK         1 GROUP             0       ****    0 ROOT    
