@<TRIPOS>MOLECULE
3R8
117   119    1
SMALL
USER_CHARGES


@<TRIPOS>ATOM
      1 CA         12.2035  -27.0836  -41.3475 C.3       0 UNK        -0.2013 
      2 C          13.4325  -26.6455  -42.1304 C.2       0 UNK         0.4866 
      3 O          13.8933  -25.5155  -41.9640 O.2       0 UNK        -0.5176 
      4 N          13.9606  -27.5265  -42.9893 N.am      1 UNK        -0.4884 
      5 CA         15.1860  -27.3016  -43.7626 C.3       1 UNK         0.0853 
      6 C6         15.2437  -28.2403  -44.9939 C.3       10 UNK        -0.0849 
      7 S7         16.3719  -27.6322  -46.2970 S.3       10 UNK        -0.2776 
      8 C8         17.1566  -29.1704  -46.8761 C.3       10 UNK         0.0316 
      9 C9         18.3435  -29.5952  -46.0187 C.ar      10 UNK        -0.0863 
     10 C10        18.1585  -30.4543  -44.9311 C.ar      10 UNK        -0.1009 
     11 C11        19.2511  -30.9128  -44.1888 C.ar      10 UNK        -0.0712 
     12 C12        20.5409  -30.5127  -44.5490 C.ar      10 UNK        -0.0894 
     13 C13        20.7451  -29.6774  -45.6512 C.ar      10 UNK        -0.0745 
     14 C14        19.6409  -29.2017  -46.3673 C.ar      10 UNK        -0.0972 
     15 C15        22.1627  -29.3862  -46.1273 C.3       10 UNK         0.0209 
     16 S16        23.0920  -28.3127  -44.9935 S.3       10 UNK        -0.2568 
     17 C17        22.5099  -26.6524  -45.4890 C.3       10 UNK        -0.0983 
     18 CA         22.1760  -25.7198  -44.2942 C.3       3 UNK         0.0876 
     19 N          21.1114  -26.2595  -43.4554 N.am      3 UNK        -0.4424 
     20 C          19.8094  -26.1671  -43.7236 C.2       2 UNK         0.4918 
     21 O          19.3540  -25.5873  -44.7146 O.2       2 UNK        -0.4875 
     22 CA         18.8564  -26.8101  -42.7072 C.3       2 UNK         0.0481 
     23 CB         18.8866  -26.0700  -41.3546 C.3       2 UNK        -0.1831 
     24 N          17.5195  -26.7813  -43.2853 N.am      2 UNK        -0.4498 
     25 C          16.4377  -27.4424  -42.8690 C.2       1 UNK         0.5027 
     26 O          16.4027  -28.1439  -41.8550 O.2       1 UNK        -0.4969 
     27 C          23.3969  -25.4311  -43.4050 C.2       3 UNK         0.5005 
     28 O          23.4420  -25.8926  -42.2607 O.2       3 UNK        -0.5279 
     29 N          24.3877  -24.7145  -43.9552 N.am      4 UNK        -0.4463 
     30 CA         25.6551  -24.3886  -43.2875 C.3       4 UNK         0.0283 
     31 CB         26.4518  -23.4041  -44.1588 C.3       4 UNK        -0.1875 
     32 C          26.5171  -25.6192  -42.9439 C.2       4 UNK         0.4949 
     33 O          27.2886  -25.5650  -41.9864 O.2       4 UNK        -0.5039 
     34 N          26.3595  -26.7072  -43.7115 N.am      5 UNK        -0.4663 
     35 CA         26.9945  -28.0035  -43.4559 C.3       5 UNK         0.0242 
     36 CB         27.0321  -28.8100  -44.7647 C.3       5 UNK        -0.1982 
     37 C          26.2973  -28.8130  -42.3453 C.2       5 UNK         0.5017 
     38 O          26.8903  -29.7745  -41.8535 O.2       5 UNK        -0.5012 
     39 N          25.0652  -28.4245  -41.9799 N.am      6 UNK        -0.4439 
     40 CA         24.1569  -29.0213  -40.9948 C.3       6 UNK         0.0297 
     41 CB         24.7598  -28.9860  -39.5763 C.3       6 UNK        -0.2006 
     42 C          23.6583  -30.4272  -41.3698 C.2       6 UNK         0.4892 
     43 O          22.4515  -30.6181  -41.5210 O.2       6 UNK        -0.5089 
     44 N          24.5868  -31.3842  -41.5036 N.am      7 UNK        -0.4243 
     45 CA         24.3566  -32.8180  -41.7020 C.3       7 UNK         0.0196 
     46 CB         23.7970  -33.0897  -43.1182 C.3       7 UNK        -0.2007 
     47 C          23.5037  -33.3926  -40.5526 C.2       7 UNK         0.5020 
     48 O          23.9303  -33.3226  -39.3992 O.2       7 UNK        -0.5147 
     49 N          22.3199  -33.9290  -40.8715 N.am      8 UNK        -0.4734 
     50 CA         21.3396  -34.4172  -39.8969 C.3       8 UNK         0.0238 
     51 CB         20.4585  -35.4783  -40.5786 C.3       8 UNK        -0.1912 
     52 C          20.4608  -33.3015  -39.2957 C.2       8 UNK         0.5038 
     53 O          19.7556  -33.5662  -38.3206 O.2       8 UNK        -0.5046 
     54 N          20.4833  -32.1044  -39.8932 N.am      9 UNK        -0.4200 
     55 CA         19.6581  -30.9474  -39.5220 C.3       9 UNK         0.0839 
     56 C          20.4054  -29.9821  -38.5615 C.2       9 UNK         0.5513 
     57 N          19.7272  -28.9540  -38.0684 N.am      9 UNK        -0.7519 
     58 O          21.5798  -30.1506  -38.2414 O.2       9 UNK        -0.4960 
     59 C59        19.1253  -30.2253  -40.7897 C.3       10 UNK        -0.0876 
     60 S60        17.9752  -31.2820  -41.7328 S.3       10 UNK        -0.2414 
     61 C61        19.0449  -31.9158  -43.0616 C.3       10 UNK         0.0169 
     62 H62        11.3692  -26.4133  -41.5522 H         1 UNK         0.0903 
     63 H63        11.8951  -28.0968  -41.6047 H         1 UNK         0.0903 
     64 H64        12.4105  -27.0537  -40.2781 H         1 UNK         0.0903 
     65 H65        13.5640  -28.4534  -43.0538 H         1 UNK         0.3096 
     66 H66        15.1510  -26.2704  -44.1235 H         1 UNK         0.1121 
     67 H67        15.5011  -29.2569  -44.6958 H         1 UNK         0.0849 
     68 H68        14.2556  -28.3106  -45.4520 H         1 UNK         0.0849 
     69 H69        16.4147  -29.9694  -46.9215 H         1 UNK         0.0865 
     70 H70        17.4877  -29.0195  -47.9047 H         1 UNK         0.0865 
     71 H71        17.1664  -30.7961  -44.6729 H         1 UNK         0.1346 
     72 H72        21.3949  -30.8836  -43.9998 H         1 UNK         0.1412 
     73 H73        19.7934  -28.5643  -47.2276 H         1 UNK         0.1426 
     74 H74        22.1611  -28.9477  -47.1264 H         1 UNK         0.0716 
     75 H75        22.6993  -30.3317  -46.2172 H         1 UNK         0.0716 
     76 H76        23.2684  -26.2017  -46.1309 H         1 UNK         0.0695 
     77 H77        21.6246  -26.7563  -46.1181 H         1 UNK         0.0695 
     78 H78        21.8453  -24.7553  -44.6866 H         1 UNK         0.0983 
     79 H79        21.4407  -26.6910  -42.6016 H         1 UNK         0.3095 
     80 H80        19.1554  -27.8509  -42.5732 H         1 UNK         0.0454 
     81 H81        18.5907  -25.0259  -41.4630 H         1 UNK         0.0851 
     82 H82        19.8851  -26.0837  -40.9166 H         1 UNK         0.0851 
     83 H83        18.2179  -26.5319  -40.6286 H         1 UNK         0.0851 
     84 H84        17.4847  -26.2769  -44.1651 H         1 UNK         0.2976 
     85 H85        24.2771  -24.3738  -44.9001 H         1 UNK         0.3116 
     86 H86        25.4131  -23.8907  -42.3460 H         1 UNK         0.0646 
     87 H87        26.7066  -23.8351  -45.1278 H         1 UNK         0.0847 
     88 H88        27.3872  -23.1224  -43.6728 H         1 UNK         0.0847 
     89 H89        25.8928  -22.4848  -44.3346 H         1 UNK         0.0847 
     90 H90        25.7100  -26.6621  -44.4837 H         1 UNK         0.3040 
     91 H91        28.0237  -27.8320  -43.1318 H         1 UNK         0.1015 
     92 H92        26.0306  -29.0290  -45.1359 H         1 UNK         0.0786 
     93 H93        27.5397  -29.7648  -44.6199 H         1 UNK         0.0786 
     94 H94        27.5712  -28.2743  -45.5462 H         1 UNK         0.0786 
     95 H95        24.6845  -27.6057  -42.4406 H         1 UNK         0.3172 
     96 H96        23.2767  -28.3766  -40.9835 H         1 UNK         0.0595 
     97 H97        25.6645  -29.5883  -39.4937 H         1 UNK         0.0839 
     98 H98        24.0507  -29.3721  -38.8438 H         1 UNK         0.0839 
     99 H99        25.0081  -27.9670  -39.2797 H         1 UNK         0.0839 
    100 H100       25.5550  -31.0926  -41.4015 H         1 UNK         0.2998 
    101 H101       25.3321  -33.3015  -41.6318 H         1 UNK         0.0822 
    102 H102       24.4620  -32.6852  -43.8816 H         1 UNK         0.0787 
    103 H103       23.7095  -34.1601  -43.3089 H         1 UNK         0.0787 
    104 H104       22.8158  -32.6414  -43.2725 H         1 UNK         0.0787 
    105 H105       22.0467  -33.9451  -41.8435 H         1 UNK         0.3055 
    106 H106       21.8678  -34.8931  -39.0674 H         1 UNK         0.1106 
    107 H107       19.8901  -35.0586  -41.4097 H         1 UNK         0.0828 
    108 H108       19.7400  -35.9009  -39.8747 H         1 UNK         0.0828 
    109 H109       21.0563  -36.3054  -40.9619 H         1 UNK         0.0828 
    110 H110       21.1758  -31.9206  -40.6106 H         1 UNK         0.2931 
    111 H111       18.7918  -31.3048  -38.9618 H         1 UNK         0.0412 
    112 H112       18.7551  -28.8108  -38.2929 H         1 UNK         0.3472 
    113 H113       20.1935  -28.3209  -37.4377 H         1 UNK         0.3472 
    114 H114       19.9439  -29.8967  -41.4313 H         1 UNK         0.0970 
    115 H115       18.5737  -29.3229  -40.5225 H         1 UNK         0.0970 
    116 H116       19.9991  -32.2345  -42.6408 H         1 UNK         0.0612 
    117 H117       18.5822  -32.8119  -43.4770 H         1 UNK         0.0612 
@<TRIPOS>BOND
     1    1    2 1    
     2    1   62 1    
     3    1   63 1    
     4    1   64 1    
     5    2    3 2    
     6    2    4 am   BACKBONE|DICT|INTERRES
     7    4    5 1    
     8    4   65 1    
     9    5    6 1    
    10    5   25 1    
    11    5   66 1    
    12    6    7 1    
    13    6   67 1    
    14    6   68 1    
    15    7    8 1    
    16    8    9 1    
    17    8   69 1    
    18    8   70 1    
    19    9   10 ar   
    20    9   14 ar   
    21   10   11 ar   
    22   10   71 1    
    23   11   12 ar   
    24   11   61 1    
    25   12   13 ar   
    26   12   72 1    
    27   13   14 ar   
    28   13   15 1    
    29   14   73 1    
    30   15   16 1    
    31   15   74 1    
    32   15   75 1    
    33   16   17 1    
    34   17   18 1    
    35   17   76 1    
    36   17   77 1    
    37   18   19 1    
    38   18   27 1    
    39   18   78 1    
    40   19   20 am   BACKBONE|DICT|INTERRES
    41   19   79 1    
    42   20   21 2    
    43   20   22 1    
    44   22   23 1    
    45   22   24 1    
    46   22   80 1    
    47   23   81 1    
    48   23   82 1    
    49   23   83 1    
    50   24   25 am   BACKBONE|DICT|INTERRES
    51   24   84 1    
    52   25   26 2    
    53   27   28 2    
    54   27   29 am   BACKBONE|DICT|INTERRES
    55   29   30 1    
    56   29   85 1    
    57   30   31 1    
    58   30   32 1    
    59   30   86 1    
    60   31   87 1    
    61   31   88 1    
    62   31   89 1    
    63   32   33 2    
    64   32   34 am   BACKBONE|DICT|INTERRES
    65   34   35 1    
    66   34   90 1    
    67   35   36 1    
    68   35   37 1    
    69   35   91 1    
    70   36   92 1    
    71   36   93 1    
    72   36   94 1    
    73   37   38 2    
    74   37   39 am   BACKBONE|DICT|INTERRES
    75   39   40 1    
    76   39   95 1    
    77   40   41 1    
    78   40   42 1    
    79   40   96 1    
    80   41   97 1    
    81   41   98 1    
    82   41   99 1    
    83   42   43 2    
    84   42   44 am   BACKBONE|DICT|INTERRES
    85   44   45 1    
    86   44  100 1    
    87   45   46 1    
    88   45   47 1    
    89   45  101 1    
    90   46  102 1    
    91   46  103 1    
    92   46  104 1    
    93   47   48 2    
    94   47   49 am   BACKBONE|DICT|INTERRES
    95   49   50 1    
    96   49  105 1    
    97   50   51 1    
    98   50   52 1    
    99   50  106 1    
   100   51  107 1    
   101   51  108 1    
   102   51  109 1    
   103   52   53 2    
   104   52   54 am   BACKBONE|DICT|INTERRES
   105   54   55 1    
   106   54  110 1    
   107   55   56 1    
   108   55   59 1    
   109   55  111 1    
   110   56   57 am   BACKBONE|DICT|INTERRES
   111   56   58 2    
   112   57  112 1    
   113   57  113 1    
   114   59   60 1    
   115   59  114 1    
   116   59  115 1    
   117   60   61 1    
   118   61  116 1    
   119   61  117 1    
@<TRIPOS>SUBSTRUCTURE
     1 UNK         1 GROUP             0       ****    0 ROOT    
