@<TRIPOS>MOLECULE
3R8
117   119    1
SMALL
USER_CHARGES


@<TRIPOS>ATOM
      1 CA         18.1805  -21.5854  -45.5742 C.3       0 UNK        -0.2013 
      2 C          18.5434  -22.7322  -46.5054 C.2       0 UNK         0.4866 
      3 O          19.4338  -22.5842  -47.3424 O.2       0 UNK        -0.5176 
      4 N          17.8643  -23.8780  -46.3647 N.am      1 UNK        -0.4884 
      5 CA         18.0769  -25.0862  -47.1750 C.3       1 UNK         0.0853 
      6 C6         16.7918  -25.9537  -47.2361 C.3       10 UNK        -0.0849 
      7 S7         16.2564  -26.6138  -45.6160 S.3       10 UNK        -0.2776 
      8 C8         16.7185  -28.3721  -45.8131 C.3       10 UNK         0.0316 
      9 C9         16.7210  -29.2191  -44.5391 C.ar      10 UNK        -0.0863 
     10 C10        17.0270  -30.5779  -44.6613 C.ar      10 UNK        -0.1009 
     11 C11        17.0969  -31.4061  -43.5379 C.ar      10 UNK        -0.0712 
     12 C12        16.8418  -30.8709  -42.2738 C.ar      10 UNK        -0.0894 
     13 C13        16.5376  -29.5136  -42.1315 C.ar      10 UNK        -0.0745 
     14 C14        16.4735  -28.6950  -43.2632 C.ar      10 UNK        -0.0972 
     15 C15        16.3151  -28.9218  -40.7494 C.3       10 UNK         0.0209 
     16 S16        17.8663  -28.8542  -39.8003 S.3       10 UNK        -0.2568 
     17 C17        18.8886  -27.7009  -40.7880 C.3       10 UNK        -0.0983 
     18 CA         19.8313  -28.3672  -41.8357 C.3       3 UNK         0.0876 
     19 N          20.3172  -27.3483  -42.7687 N.am      3 UNK        -0.4424 
     20 C          20.4021  -27.4728  -44.0968 C.2       2 UNK         0.4918 
     21 O          20.0587  -28.4739  -44.7243 O.2       2 UNK        -0.4875 
     22 CA         20.9621  -26.2465  -44.8375 C.3       2 UNK         0.0481 
     23 CB         22.1885  -26.5916  -45.7070 C.3       2 UNK        -0.1831 
     24 N          19.9027  -25.5614  -45.5862 N.am      2 UNK        -0.4498 
     25 C          19.3133  -25.9116  -46.7419 C.2       1 UNK         0.5027 
     26 O          19.6853  -26.8380  -47.4633 O.2       1 UNK        -0.4969 
     27 C          21.0295  -29.1060  -41.1952 C.2       3 UNK         0.5005 
     28 O          22.1867  -28.8831  -41.5659 O.2       3 UNK        -0.5279 
     29 N          20.7423  -29.9449  -40.1920 N.am      4 UNK        -0.4463 
     30 CA         21.7150  -30.6172  -39.3253 C.3       4 UNK         0.0283 
     31 CB         20.9734  -31.5669  -38.3727 C.3       4 UNK        -0.1875 
     32 C          22.6099  -29.6467  -38.5334 C.2       4 UNK         0.4949 
     33 O          23.7465  -29.9968  -38.2217 O.2       4 UNK        -0.5039 
     34 N          22.1221  -28.4210  -38.2915 N.am      5 UNK        -0.4663 
     35 CA         22.8938  -27.2992  -37.7448 C.3       5 UNK         0.0242 
     36 CB         21.9392  -26.1294  -37.4566 C.3       5 UNK        -0.1982 
     37 C          24.0490  -26.8382  -38.6581 C.2       5 UNK         0.5017 
     38 O          25.0241  -26.2815  -38.1537 O.2       5 UNK        -0.5012 
     39 N          23.9314  -27.0979  -39.9685 N.am      6 UNK        -0.4439 
     40 CA         24.9703  -26.8808  -40.9781 C.3       6 UNK         0.0297 
     41 CB         24.3202  -26.2400  -42.2184 C.3       6 UNK        -0.2006 
     42 C          25.6898  -28.1940  -41.3506 C.2       6 UNK         0.4892 
     43 O          26.4827  -28.1906  -42.2926 O.2       6 UNK        -0.5089 
     44 N          25.3904  -29.2894  -40.6312 N.am      7 UNK        -0.4243 
     45 CA         25.8657  -30.6646  -40.8308 C.3       7 UNK         0.0196 
     46 CB         27.3901  -30.7601  -40.6068 C.3       7 UNK        -0.2007 
     47 C          25.4200  -31.2995  -42.1642 C.2       7 UNK         0.5020 
     48 O          26.0389  -32.2679  -42.6079 O.2       7 UNK        -0.5147 
     49 N          24.3565  -30.7663  -42.7826 N.am      8 UNK        -0.4734 
     50 CA         23.8275  -31.2542  -44.0603 C.3       8 UNK         0.0238 
     51 CB         23.1137  -30.1001  -44.7749 C.3       8 UNK        -0.1912 
     52 C          22.8830  -32.4572  -43.8992 C.2       8 UNK         0.5038 
     53 O          22.7392  -33.2346  -44.8436 O.2       8 UNK        -0.5046 
     54 N          22.2745  -32.5875  -42.7160 N.am      9 UNK        -0.4200 
     55 CA         21.3827  -33.6806  -42.3086 C.3       9 UNK         0.0839 
     56 C          21.8308  -34.2687  -40.9431 C.2       9 UNK         0.5513 
     57 N          21.2107  -35.3543  -40.5019 N.am      9 UNK        -0.7519 
     58 O          22.7353  -33.7648  -40.2803 O.2       9 UNK        -0.4960 
     59 C59        19.8935  -33.2282  -42.3063 C.3       10 UNK        -0.0876 
     60 S60        19.2341  -33.0996  -44.0016 S.3       10 UNK        -0.2414 
     61 C61        17.4524  -32.8752  -43.7040 C.3       10 UNK         0.0169 
     62 H62        17.3813  -21.8565  -44.8844 H         1 UNK         0.0903 
     63 H63        19.0493  -21.2888  -44.9872 H         1 UNK         0.0903 
     64 H64        17.8501  -20.7232  -46.1528 H         1 UNK         0.0903 
     65 H65        17.1386  -23.9517  -45.6640 H         1 UNK         0.3096 
     66 H66        18.2873  -24.7632  -48.1976 H         1 UNK         0.1121 
     67 H67        16.9209  -26.7729  -47.9463 H         1 UNK         0.0849 
     68 H68        15.9719  -25.3569  -47.6389 H         1 UNK         0.0849 
     69 H69        16.0418  -28.8254  -46.5391 H         1 UNK         0.0865 
     70 H70        17.7181  -28.4257  -46.2465 H         1 UNK         0.0865 
     71 H71        17.2359  -30.9936  -45.6379 H         1 UNK         0.1346 
     72 H72        16.9003  -31.5024  -41.3977 H         1 UNK         0.1412 
     73 H73        16.2524  -27.6457  -43.1337 H         1 UNK         0.1426 
     74 H74        15.5931  -29.5335  -40.2067 H         1 UNK         0.0716 
     75 H75        15.8844  -27.9212  -40.8123 H         1 UNK         0.0716 
     76 H76        18.2062  -27.0158  -41.2942 H         1 UNK         0.0695 
     77 H77        19.4615  -27.0771  -40.0993 H         1 UNK         0.0695 
     78 H78        19.2673  -29.1172  -42.3933 H         1 UNK         0.0983 
     79 H79        20.6688  -26.5036  -42.3436 H         1 UNK         0.3095 
     80 H80        21.3015  -25.5236  -44.0937 H         1 UNK         0.0454 
     81 H81        23.0222  -26.9159  -45.0847 H         1 UNK         0.0851 
     82 H82        22.5278  -25.7281  -46.2786 H         1 UNK         0.0851 
     83 H83        21.9822  -27.4007  -46.4082 H         1 UNK         0.0851 
     84 H84        19.4823  -24.7786  -45.1056 H         1 UNK         0.2976 
     85 H85        19.7673  -30.0290  -39.9275 H         1 UNK         0.3116 
     86 H86        22.3733  -31.2050  -39.9651 H         1 UNK         0.0646 
     87 H87        20.2998  -31.0280  -37.7053 H         1 UNK         0.0847 
     88 H88        20.3858  -32.3032  -38.9210 H         1 UNK         0.0847 
     89 H89        21.6785  -32.1199  -37.7502 H         1 UNK         0.0847 
     90 H90        21.1673  -28.2287  -38.5566 H         1 UNK         0.3040 
     91 H91        23.3373  -27.6256  -36.8013 H         1 UNK         0.1015 
     92 H92        22.4765  -25.2857  -37.0208 H         1 UNK         0.0786 
     93 H93        21.1620  -26.4158  -36.7476 H         1 UNK         0.0786 
     94 H94        21.4520  -25.7712  -38.3644 H         1 UNK         0.0786 
     95 H95        23.1104  -27.5957  -40.2974 H         1 UNK         0.3172 
     96 H96        25.7284  -26.1933  -40.5981 H         1 UNK         0.0595 
     97 H97        23.5932  -26.9071  -42.6818 H         1 UNK         0.0839 
     98 H98        25.0685  -25.9997  -42.9748 H         1 UNK         0.0839 
     99 H99        23.8103  -25.3107  -41.9645 H         1 UNK         0.0839 
    100 H100       24.7469  -29.1816  -39.8558 H         1 UNK         0.2998 
    101 H101       25.3864  -31.2599  -40.0522 H         1 UNK         0.0822 
    102 H102       27.7202  -31.7995  -40.5925 H         1 UNK         0.0787 
    103 H103       27.6791  -30.3183  -39.6531 H         1 UNK         0.0787 
    104 H104       27.9484  -30.2542  -41.3950 H         1 UNK         0.0787 
    105 H105       23.8781  -29.9793  -42.3568 H         1 UNK         0.3055 
    106 H106       24.6590  -31.5768  -44.6914 H         1 UNK         0.1106 
    107 H107       22.2858  -29.7229  -44.1774 H         1 UNK         0.0828 
    108 H108       23.7956  -29.2728  -44.9700 H         1 UNK         0.0828 
    109 H109       22.7046  -30.4202  -45.7342 H         1 UNK         0.0828 
    110 H110       22.5230  -31.9403  -41.9829 H         1 UNK         0.2931 
    111 H111       21.4944  -34.5062  -43.0143 H         1 UNK         0.0412 
    112 H112       21.4935  -35.7515  -39.6194 H         1 UNK         0.3472 
    113 H113       20.4839  -35.7999  -41.0402 H         1 UNK         0.3472 
    114 H114       19.2663  -33.9389  -41.7660 H         1 UNK         0.0970 
    115 H115       19.7758  -32.2701  -41.7977 H         1 UNK         0.0970 
    116 H116       17.1381  -33.4570  -42.8363 H         1 UNK         0.0612 
    117 H117       16.9042  -33.2810  -44.5556 H         1 UNK         0.0612 
@<TRIPOS>BOND
     1    1    2 1    
     2    1   62 1    
     3    1   63 1    
     4    1   64 1    
     5    2    3 2    
     6    2    4 am   BACKBONE|DICT|INTERRES
     7    4    5 1    
     8    4   65 1    
     9    5    6 1    
    10    5   25 1    
    11    5   66 1    
    12    6    7 1    
    13    6   67 1    
    14    6   68 1    
    15    7    8 1    
    16    8    9 1    
    17    8   69 1    
    18    8   70 1    
    19    9   10 ar   
    20    9   14 ar   
    21   10   11 ar   
    22   10   71 1    
    23   11   12 ar   
    24   11   61 1    
    25   12   13 ar   
    26   12   72 1    
    27   13   14 ar   
    28   13   15 1    
    29   14   73 1    
    30   15   16 1    
    31   15   74 1    
    32   15   75 1    
    33   16   17 1    
    34   17   18 1    
    35   17   76 1    
    36   17   77 1    
    37   18   19 1    
    38   18   27 1    
    39   18   78 1    
    40   19   20 am   BACKBONE|DICT|INTERRES
    41   19   79 1    
    42   20   21 2    
    43   20   22 1    
    44   22   23 1    
    45   22   24 1    
    46   22   80 1    
    47   23   81 1    
    48   23   82 1    
    49   23   83 1    
    50   24   25 am   BACKBONE|DICT|INTERRES
    51   24   84 1    
    52   25   26 2    
    53   27   28 2    
    54   27   29 am   BACKBONE|DICT|INTERRES
    55   29   30 1    
    56   29   85 1    
    57   30   31 1    
    58   30   32 1    
    59   30   86 1    
    60   31   87 1    
    61   31   88 1    
    62   31   89 1    
    63   32   33 2    
    64   32   34 am   BACKBONE|DICT|INTERRES
    65   34   35 1    
    66   34   90 1    
    67   35   36 1    
    68   35   37 1    
    69   35   91 1    
    70   36   92 1    
    71   36   93 1    
    72   36   94 1    
    73   37   38 2    
    74   37   39 am   BACKBONE|DICT|INTERRES
    75   39   40 1    
    76   39   95 1    
    77   40   41 1    
    78   40   42 1    
    79   40   96 1    
    80   41   97 1    
    81   41   98 1    
    82   41   99 1    
    83   42   43 2    
    84   42   44 am   BACKBONE|DICT|INTERRES
    85   44   45 1    
    86   44  100 1    
    87   45   46 1    
    88   45   47 1    
    89   45  101 1    
    90   46  102 1    
    91   46  103 1    
    92   46  104 1    
    93   47   48 2    
    94   47   49 am   BACKBONE|DICT|INTERRES
    95   49   50 1    
    96   49  105 1    
    97   50   51 1    
    98   50   52 1    
    99   50  106 1    
   100   51  107 1    
   101   51  108 1    
   102   51  109 1    
   103   52   53 2    
   104   52   54 am   BACKBONE|DICT|INTERRES
   105   54   55 1    
   106   54  110 1    
   107   55   56 1    
   108   55   59 1    
   109   55  111 1    
   110   56   57 am   BACKBONE|DICT|INTERRES
   111   56   58 2    
   112   57  112 1    
   113   57  113 1    
   114   59   60 1    
   115   59  114 1    
   116   59  115 1    
   117   60   61 1    
   118   61  116 1    
   119   61  117 1    
@<TRIPOS>SUBSTRUCTURE
     1 UNK         1 GROUP             0       ****    0 ROOT    
