@<TRIPOS>MOLECULE
3R8
117   119    1
SMALL
USER_CHARGES


@<TRIPOS>ATOM
      1 CA         16.5002  -25.8609  -50.5401 C.3       0 UNK        -0.2013 
      2 C          17.4209  -26.5485  -49.5429 C.2       0 UNK         0.4866 
      3 O          18.1466  -27.4718  -49.9135 O.2       0 UNK        -0.5176 
      4 N          17.4012  -26.1043  -48.2836 N.am      1 UNK        -0.4884 
      5 CA         18.2112  -26.6288  -47.1852 C.3       1 UNK         0.0853 
      6 C6         17.6749  -27.9768  -46.6171 C.3       10 UNK        -0.0849 
      7 S7         15.9355  -27.9147  -46.0576 S.3       10 UNK        -0.2776 
      8 C8         15.6948  -29.5995  -45.4068 C.3       10 UNK         0.0316 
      9 C9         16.1763  -29.7581  -43.9687 C.ar      10 UNK        -0.0863 
     10 C10        17.1520  -30.7069  -43.6471 C.ar      10 UNK        -0.1009 
     11 C11        17.5344  -30.9132  -42.3166 C.ar      10 UNK        -0.0712 
     12 C12        16.9383  -30.1558  -41.3030 C.ar      10 UNK        -0.0894 
     13 C13        15.9780  -29.1871  -41.6136 C.ar      10 UNK        -0.0745 
     14 C14        15.5962  -29.0011  -42.9458 C.ar      10 UNK        -0.0972 
     15 C15        15.3280  -28.3547  -40.5163 C.3       10 UNK         0.0209 
     16 S16        15.9132  -26.6281  -40.5325 S.3       10 UNK        -0.2568 
     17 C17        17.5383  -26.7651  -39.7148 C.3       10 UNK        -0.0983 
     18 CA         18.6933  -27.0274  -40.7099 C.3       3 UNK         0.0876 
     19 N          18.7974  -26.0006  -41.7489 N.am      3 UNK        -0.4424 
     20 C          19.5010  -26.1631  -42.8737 C.2       2 UNK         0.4918 
     21 O          20.1797  -27.1618  -43.1265 O.2       2 UNK        -0.4875 
     22 CA         19.4140  -25.0493  -43.9194 C.3       2 UNK         0.0481 
     23 CB         20.6789  -24.1763  -43.8997 C.3       2 UNK        -0.1831 
     24 N          19.3010  -25.7295  -45.2037 N.am      2 UNK        -0.4498 
     25 C          18.3285  -25.5454  -46.0993 C.2       1 UNK         0.5027 
     26 O          17.5330  -24.6004  -46.0771 O.2       1 UNK        -0.4969 
     27 C          20.0287  -27.2139  -39.9672 C.2       3 UNK         0.5005 
     28 O          20.7292  -26.2322  -39.7021 O.2       3 UNK        -0.5279 
     29 N          20.3410  -28.4767  -39.6466 N.am      4 UNK        -0.4463 
     30 CA         21.5906  -28.9888  -39.0789 C.3       4 UNK         0.0283 
     31 CB         21.8978  -28.3951  -37.6882 C.3       4 UNK        -0.1875 
     32 C          22.7689  -28.8459  -40.0531 C.2       4 UNK         0.4949 
     33 O          23.2359  -29.8570  -40.5775 O.2       4 UNK        -0.5039 
     34 N          23.2204  -27.6002  -40.2721 N.am      5 UNK        -0.4663 
     35 CA         24.4040  -27.2093  -41.0519 C.3       5 UNK         0.0242 
     36 CB         24.1426  -27.4187  -42.5584 C.3       5 UNK        -0.1982 
     37 C          25.6589  -27.9452  -40.5434 C.2       5 UNK         0.5017 
     38 O          26.3178  -28.6533  -41.3068 O.2       5 UNK        -0.5012 
     39 N          25.8799  -27.8547  -39.2224 N.am      6 UNK        -0.4439 
     40 CA         26.7042  -28.7397  -38.3898 C.3       6 UNK         0.0297 
     41 CB         28.1922  -28.7393  -38.8033 C.3       6 UNK        -0.2006 
     42 C          26.0845  -30.1479  -38.3364 C.2       6 UNK         0.4892 
     43 O          25.4351  -30.4823  -37.3451 O.2       6 UNK        -0.5089 
     44 N          26.2457  -30.9118  -39.4216 N.am      7 UNK        -0.4243 
     45 CA         25.5665  -32.1830  -39.6754 C.3       7 UNK         0.0196 
     46 CB         26.3343  -33.3314  -38.9903 C.3       7 UNK        -0.2007 
     47 C          25.3710  -32.4317  -41.1844 C.2       7 UNK         0.5020 
     48 O          25.1043  -33.5687  -41.5759 O.2       7 UNK        -0.5147 
     49 N          25.5346  -31.3956  -42.0210 N.am      8 UNK        -0.4734 
     50 CA         25.5445  -31.5101  -43.4808 C.3       8 UNK         0.0238 
     51 CB         26.4190  -30.3875  -44.0660 C.3       8 UNK        -0.1912 
     52 C          24.1515  -31.5057  -44.1333 C.2       8 UNK         0.5038 
     53 O          24.0838  -31.7438  -45.3406 O.2       8 UNK        -0.5046 
     54 N          23.0767  -31.2275  -43.3768 N.am      9 UNK        -0.4200 
     55 CA         21.7041  -31.1766  -43.9174 C.3       9 UNK         0.0839 
     56 C          21.1246  -32.5294  -44.4289 C.2       9 UNK         0.5513 
     57 N          21.6896  -33.6742  -44.0629 N.am      9 UNK        -0.7519 
     58 O          20.1521  -32.5348  -45.1791 O.2       9 UNK        -0.4960 
     59 C59        20.7204  -30.4160  -42.9896 C.3       10 UNK        -0.0876 
     60 S60        20.1816  -31.3165  -41.4911 S.3       10 UNK        -0.2414 
     61 C61        18.5566  -31.9899  -41.9733 C.3       10 UNK         0.0169 
     62 H62        17.0832  -25.4243  -51.3506 H         1 UNK         0.0903 
     63 H63        15.8066  -26.5834  -50.9694 H         1 UNK         0.0903 
     64 H64        15.9169  -25.0663  -50.0752 H         1 UNK         0.0903 
     65 H65        16.8189  -25.3202  -48.0135 H         1 UNK         0.3096 
     66 H66        19.2210  -26.7940  -47.5686 H         1 UNK         0.1121 
     67 H67        17.7545  -28.7482  -47.3845 H         1 UNK         0.0849 
     68 H68        18.2964  -28.3238  -45.7890 H         1 UNK         0.0849 
     69 H69        14.6298  -29.8331  -45.4399 H         1 UNK         0.0865 
     70 H70        16.1808  -30.3186  -46.0682 H         1 UNK         0.0865 
     71 H71        17.5997  -31.3049  -44.4298 H         1 UNK         0.1346 
     72 H72        17.2238  -30.3225  -40.2734 H         1 UNK         0.1412 
     73 H73        14.8399  -28.2664  -43.1875 H         1 UNK         0.1426 
     74 H74        15.4976  -28.7961  -39.5331 H         1 UNK         0.0716 
     75 H75        14.2471  -28.3563  -40.6646 H         1 UNK         0.0716 
     76 H76        17.4874  -27.5554  -38.9633 H         1 UNK         0.0695 
     77 H77        17.7158  -25.8386  -39.1654 H         1 UNK         0.0695 
     78 H78        18.4828  -27.9620  -41.2307 H         1 UNK         0.0983 
     79 H79        18.2709  -25.1529  -41.5995 H         1 UNK         0.3095 
     80 H80        18.5361  -24.4304  -43.7213 H         1 UNK         0.0454 
     81 H81        21.5818  -24.7672  -44.0598 H         1 UNK         0.0851 
     82 H82        20.7866  -23.6690  -42.9402 H         1 UNK         0.0851 
     83 H83        20.6403  -23.4081  -44.6720 H         1 UNK         0.0851 
     84 H84        19.8761  -26.5600  -45.2688 H         1 UNK         0.2976 
     85 H85        19.7070  -29.2038  -39.9498 H         1 UNK         0.3116 
     86 H86        21.4347  -30.0595  -38.9368 H         1 UNK         0.0646 
     87 H87        21.0874  -28.5965  -36.9879 H         1 UNK         0.0847 
     88 H88        22.8023  -28.8409  -37.2716 H         1 UNK         0.0847 
     89 H89        22.0528  -27.3168  -37.7139 H         1 UNK         0.0847 
     90 H90        22.6783  -26.8449  -39.8628 H         1 UNK         0.3040 
     91 H91        24.5698  -26.1440  -40.8840 H         1 UNK         0.1015 
     92 H92        23.9740  -28.4680  -42.7999 H         1 UNK         0.0786 
     93 H93        24.9901  -27.0774  -43.1538 H         1 UNK         0.0786 
     94 H94        23.2660  -26.8602  -42.8876 H         1 UNK         0.0786 
     95 H95        25.2504  -27.2589  -38.7023 H         1 UNK         0.3172 
     96 H96        26.6533  -28.3343  -37.3779 H         1 UNK         0.0595 
     97 H97        28.3576  -29.1222  -39.8099 H         1 UNK         0.0839 
     98 H98        28.7796  -29.3588  -38.1246 H         1 UNK         0.0839 
     99 H99        28.6088  -27.7330  -38.7620 H         1 UNK         0.0839 
    100 H100       26.7678  -30.5200  -40.1953 H         1 UNK         0.2998 
    101 H101       24.5620  -32.1316  -39.2492 H         1 UNK         0.0822 
    102 H102       25.8233  -34.2854  -39.1266 H         1 UNK         0.0787 
    103 H103       27.3407  -33.4367  -39.3966 H         1 UNK         0.0787 
    104 H104       26.4218  -33.1673  -37.9162 H         1 UNK         0.0787 
    105 H105       25.6585  -30.4580  -41.6494 H         1 UNK         0.3055 
    106 H106       26.0097  -32.4615  -43.7494 H         1 UNK         0.1106 
    107 H107       27.4197  -30.3956  -43.6338 H         1 UNK         0.0828 
    108 H108       26.5333  -30.5013  -45.1448 H         1 UNK         0.0828 
    109 H109       25.9868  -29.4029  -43.8891 H         1 UNK         0.0828 
    110 H110       23.1938  -31.0190  -42.3911 H         1 UNK         0.2931 
    111 H111       21.7792  -30.5571  -44.8137 H         1 UNK         0.0412 
    112 H112       21.3127  -34.5445  -44.4033 H         1 UNK         0.3472 
    113 H113       22.4850  -33.6735  -43.4436 H         1 UNK         0.3472 
    114 H114       21.1911  -29.4899  -42.6590 H         1 UNK         0.0970 
    115 H115       19.8486  -30.0962  -43.5600 H         1 UNK         0.0970 
    116 H116       18.1746  -32.5903  -41.1465 H         1 UNK         0.0612 
    117 H117       18.6833  -32.6807  -42.8072 H         1 UNK         0.0612 
@<TRIPOS>BOND
     1    1    2 1    
     2    1   62 1    
     3    1   63 1    
     4    1   64 1    
     5    2    3 2    
     6    2    4 am   BACKBONE|DICT|INTERRES
     7    4    5 1    
     8    4   65 1    
     9    5    6 1    
    10    5   25 1    
    11    5   66 1    
    12    6    7 1    
    13    6   67 1    
    14    6   68 1    
    15    7    8 1    
    16    8    9 1    
    17    8   69 1    
    18    8   70 1    
    19    9   10 ar   
    20    9   14 ar   
    21   10   11 ar   
    22   10   71 1    
    23   11   12 ar   
    24   11   61 1    
    25   12   13 ar   
    26   12   72 1    
    27   13   14 ar   
    28   13   15 1    
    29   14   73 1    
    30   15   16 1    
    31   15   74 1    
    32   15   75 1    
    33   16   17 1    
    34   17   18 1    
    35   17   76 1    
    36   17   77 1    
    37   18   19 1    
    38   18   27 1    
    39   18   78 1    
    40   19   20 am   BACKBONE|DICT|INTERRES
    41   19   79 1    
    42   20   21 2    
    43   20   22 1    
    44   22   23 1    
    45   22   24 1    
    46   22   80 1    
    47   23   81 1    
    48   23   82 1    
    49   23   83 1    
    50   24   25 am   BACKBONE|DICT|INTERRES
    51   24   84 1    
    52   25   26 2    
    53   27   28 2    
    54   27   29 am   BACKBONE|DICT|INTERRES
    55   29   30 1    
    56   29   85 1    
    57   30   31 1    
    58   30   32 1    
    59   30   86 1    
    60   31   87 1    
    61   31   88 1    
    62   31   89 1    
    63   32   33 2    
    64   32   34 am   BACKBONE|DICT|INTERRES
    65   34   35 1    
    66   34   90 1    
    67   35   36 1    
    68   35   37 1    
    69   35   91 1    
    70   36   92 1    
    71   36   93 1    
    72   36   94 1    
    73   37   38 2    
    74   37   39 am   BACKBONE|DICT|INTERRES
    75   39   40 1    
    76   39   95 1    
    77   40   41 1    
    78   40   42 1    
    79   40   96 1    
    80   41   97 1    
    81   41   98 1    
    82   41   99 1    
    83   42   43 2    
    84   42   44 am   BACKBONE|DICT|INTERRES
    85   44   45 1    
    86   44  100 1    
    87   45   46 1    
    88   45   47 1    
    89   45  101 1    
    90   46  102 1    
    91   46  103 1    
    92   46  104 1    
    93   47   48 2    
    94   47   49 am   BACKBONE|DICT|INTERRES
    95   49   50 1    
    96   49  105 1    
    97   50   51 1    
    98   50   52 1    
    99   50  106 1    
   100   51  107 1    
   101   51  108 1    
   102   51  109 1    
   103   52   53 2    
   104   52   54 am   BACKBONE|DICT|INTERRES
   105   54   55 1    
   106   54  110 1    
   107   55   56 1    
   108   55   59 1    
   109   55  111 1    
   110   56   57 am   BACKBONE|DICT|INTERRES
   111   56   58 2    
   112   57  112 1    
   113   57  113 1    
   114   59   60 1    
   115   59  114 1    
   116   59  115 1    
   117   60   61 1    
   118   61  116 1    
   119   61  117 1    
@<TRIPOS>SUBSTRUCTURE
     1 UNK         1 GROUP             0       ****    0 ROOT    
