@<TRIPOS>MOLECULE
3R8
117   119    1
SMALL
USER_CHARGES


@<TRIPOS>ATOM
      1 CA         16.3421  -24.5645  -40.6375 C.3       0 UNK        -0.2013 
      2 C          17.0335  -24.9421  -41.9383 C.2       0 UNK         0.4866 
      3 O          18.1054  -25.5458  -41.9050 O.2       0 UNK        -0.5176 
      4 N          16.4376  -24.5745  -43.0816 N.am      1 UNK        -0.4884 
      5 CA         16.8514  -24.8614  -44.4684 C.3       1 UNK         0.0853 
      6 C6         16.9741  -26.3710  -44.7851 C.3       10 UNK        -0.0849 
      7 S7         15.4253  -27.3158  -44.5555 S.3       10 UNK        -0.2776 
      8 C8         15.9065  -28.5826  -43.3189 C.3       10 UNK         0.0316 
      9 C9         17.1264  -29.4471  -43.6618 C.ar      10 UNK        -0.0863 
     10 C10        17.6841  -30.2478  -42.6588 C.ar      10 UNK        -0.1009 
     11 C11        18.8470  -30.9885  -42.8965 C.ar      10 UNK        -0.0712 
     12 C12        19.4803  -30.8974  -44.1405 C.ar      10 UNK        -0.0894 
     13 C13        18.9244  -30.1193  -45.1591 C.ar      10 UNK        -0.0745 
     14 C14        17.7270  -29.4422  -44.9269 C.ar      10 UNK        -0.0972 
     15 C15        19.6125  -29.9796  -46.5098 C.3       10 UNK         0.0209 
     16 S16        20.0932  -28.2496  -46.8460 S.3       10 UNK        -0.2568 
     17 C17        21.4891  -28.0515  -45.6966 C.3       10 UNK        -0.0983 
     18 CA         22.0868  -26.6203  -45.7254 C.3       3 UNK         0.0876 
     19 N          21.1772  -25.6333  -45.1303 N.am      3 UNK        -0.4424 
     20 C          21.3474  -24.3045  -45.1864 C.2       2 UNK         0.4918 
     21 O          22.1802  -23.7565  -45.9113 O.2       2 UNK        -0.4875 
     22 CA         20.4681  -23.4540  -44.2448 C.3       2 UNK         0.0481 
     23 CB         20.4047  -21.9658  -44.6511 C.3       2 UNK        -0.1831 
     24 N          19.1281  -24.0133  -44.0329 N.am      2 UNK        -0.4498 
     25 C          18.1387  -24.1391  -44.9276 C.2       1 UNK         0.5027 
     26 O          18.2089  -23.7306  -46.0873 O.2       1 UNK        -0.4969 
     27 C          23.4430  -26.6167  -44.9882 C.2       3 UNK         0.5005 
     28 O          23.4996  -26.2911  -43.7994 O.2       3 UNK        -0.5279 
     29 N          24.5042  -27.0581  -45.6785 N.am      4 UNK        -0.4463 
     30 CA         25.8565  -27.2076  -45.1215 C.3       4 UNK         0.0283 
     31 CB         26.8312  -27.5841  -46.2491 C.3       4 UNK        -0.1875 
     32 C          25.9540  -28.2261  -43.9670 C.2       4 UNK         0.4949 
     33 O          26.8600  -28.1140  -43.1412 O.2       4 UNK        -0.5039 
     34 N          25.0173  -29.1823  -43.9262 N.am      5 UNK        -0.4663 
     35 CA         24.8765  -30.1956  -42.8804 C.3       5 UNK         0.0242 
     36 CB         25.0265  -31.5908  -43.5173 C.3       5 UNK        -0.1982 
     37 C          23.5418  -30.0537  -42.1253 C.2       5 UNK         0.5017 
     38 O          23.0682  -31.0481  -41.5739 O.2       5 UNK        -0.5012 
     39 N          22.9452  -28.8483  -42.1096 N.am      6 UNK        -0.4439 
     40 CA         21.6895  -28.5458  -41.4076 C.3       6 UNK         0.0297 
     41 CB         21.3112  -27.0713  -41.6097 C.3       6 UNK        -0.2006 
     42 C          21.7481  -28.8687  -39.9049 C.2       6 UNK         0.4892 
     43 O          22.8026  -28.7136  -39.2841 O.2       6 UNK        -0.5089 
     44 N          20.6132  -29.3323  -39.3642 N.am      7 UNK        -0.4243 
     45 CA         20.3800  -29.8260  -37.9978 C.3       7 UNK         0.0196 
     46 CB         20.6709  -28.7450  -36.9382 C.3       7 UNK        -0.2007 
     47 C          21.1041  -31.1452  -37.6641 C.2       7 UNK         0.5020 
     48 O          20.4983  -32.0096  -37.0311 O.2       7 UNK        -0.5147 
     49 N          22.3633  -31.2928  -38.0963 N.am      8 UNK        -0.4734 
     50 CA         23.1648  -32.5123  -37.9683 C.3       8 UNK         0.0238 
     51 CB         24.6303  -32.2080  -38.3231 C.3       8 UNK        -0.1912 
     52 C          22.6074  -33.6522  -38.8349 C.2       8 UNK         0.5038 
     53 O          22.3405  -34.7360  -38.3150 O.2       8 UNK        -0.5046 
     54 N          22.4072  -33.3625  -40.1276 N.am      9 UNK        -0.4200 
     55 CA         21.7587  -34.2220  -41.1288 C.3       9 UNK         0.0839 
     56 C          22.4884  -35.5613  -41.4530 C.2       9 UNK         0.5513 
     57 N          23.7652  -35.7107  -41.1215 N.am      9 UNK        -0.7519 
     58 O          21.9057  -36.4658  -42.0457 O.2       9 UNK        -0.4960 
     59 C59        20.2274  -34.3690  -40.8529 C.3       10 UNK        -0.0876 
     60 S60        19.2194  -33.6334  -42.1807 S.3       10 UNK        -0.2414 
     61 C61        19.4392  -31.8660  -41.8050 C.3       10 UNK         0.0169 
     62 H62        16.1195  -25.4611  -40.0597 H         1 UNK         0.0903 
     63 H63        16.9920  -23.9263  -40.0394 H         1 UNK         0.0903 
     64 H64        15.4074  -24.0316  -40.8104 H         1 UNK         0.0903 
     65 H65        15.5749  -24.0514  -43.0150 H         1 UNK         0.3096 
     66 H66        16.0520  -24.4627  -45.0958 H         1 UNK         0.1121 
     67 H67        17.2757  -26.5112  -45.8256 H         1 UNK         0.0849 
     68 H68        17.7714  -26.8112  -44.1848 H         1 UNK         0.0849 
     69 H69        15.0519  -29.2387  -43.1492 H         1 UNK         0.0865 
     70 H70        16.0937  -28.0700  -42.3738 H         1 UNK         0.0865 
     71 H71        17.2155  -30.2858  -41.6847 H         1 UNK         0.1346 
     72 H72        20.3993  -31.4408  -44.3133 H         1 UNK         0.1412 
     73 H73        17.3047  -28.8667  -45.7366 H         1 UNK         0.1426 
     74 H74        18.9294  -30.3145  -47.2916 H         1 UNK         0.0716 
     75 H75        20.4926  -30.6215  -46.5727 H         1 UNK         0.0716 
     76 H76        22.2363  -28.7949  -45.9811 H         1 UNK         0.0695 
     77 H77        21.1637  -28.3164  -44.6886 H         1 UNK         0.0695 
     78 H78        22.2686  -26.3295  -46.7627 H         1 UNK         0.0983 
     79 H79        20.4690  -25.9971  -44.5127 H         1 UNK         0.3095 
     80 H80        20.9574  -23.4987  -43.2708 H         1 UNK         0.0454 
     81 H81        19.7834  -21.3920  -43.9638 H         1 UNK         0.0851 
     82 H82        20.0050  -21.8339  -45.6567 H         1 UNK         0.0851 
     83 H83        21.3982  -21.5161  -44.6388 H         1 UNK         0.0851 
     84 H84        18.9551  -24.4325  -43.1208 H         1 UNK         0.2976 
     85 H85        24.3850  -27.3177  -46.6481 H         1 UNK         0.3116 
     86 H86        26.1569  -26.2368  -44.7212 H         1 UNK         0.0646 
     87 H87        27.8504  -27.6729  -45.8700 H         1 UNK         0.0847 
     88 H88        26.8461  -26.8266  -47.0329 H         1 UNK         0.0847 
     89 H89        26.5711  -28.5393  -46.7070 H         1 UNK         0.0847 
     90 H90        24.3169  -29.1906  -44.6532 H         1 UNK         0.3040 
     91 H91        25.6618  -30.0806  -42.1302 H         1 UNK         0.1015 
     92 H92        25.9751  -31.6843  -44.0460 H         1 UNK         0.0786 
     93 H93        24.2245  -31.7982  -44.2267 H         1 UNK         0.0786 
     94 H94        25.0038  -32.3759  -42.7600 H         1 UNK         0.0786 
     95 H95        23.4071  -28.0679  -42.5625 H         1 UNK         0.3172 
     96 H96        20.9117  -29.1607  -41.8631 H         1 UNK         0.0595 
     97 H97        22.1090  -26.4010  -41.2876 H         1 UNK         0.0839 
     98 H98        20.4166  -26.8104  -41.0422 H         1 UNK         0.0839 
     99 H99        21.0925  -26.8600  -42.6535 H         1 UNK         0.0839 
    100 H100       19.8131  -29.4086  -39.9763 H         1 UNK         0.2998 
    101 H101       19.3115  -30.0434  -37.9499 H         1 UNK         0.0822 
    102 H102       21.7304  -28.4930  -36.8877 H         1 UNK         0.0787 
    103 H103       20.1173  -27.8288  -37.1439 H         1 UNK         0.0787 
    104 H104       20.3748  -29.0870  -35.9456 H         1 UNK         0.0787 
    105 H105       22.7774  -30.5078  -38.5924 H         1 UNK         0.3055 
    106 H106       23.1243  -32.8378  -36.9263 H         1 UNK         0.1106 
    107 H107       25.2464  -33.1045  -38.2407 H         1 UNK         0.0828 
    108 H108       24.7348  -31.8309  -39.3413 H         1 UNK         0.0828 
    109 H109       25.0526  -31.4634  -37.6483 H         1 UNK         0.0828 
    110 H110       22.6867  -32.4476  -40.4769 H         1 UNK         0.2931 
    111 H111       21.8883  -33.6583  -42.0534 H         1 UNK         0.0412 
    112 H112       24.2571  -34.9728  -40.6441 H         1 UNK         0.3472 
    113 H113       24.2368  -36.5734  -41.3437 H         1 UNK         0.3472 
    114 H114       19.9299  -35.4127  -40.7383 H         1 UNK         0.0970 
    115 H115       19.9398  -33.8965  -39.9120 H         1 UNK         0.0970 
    116 H116       18.9849  -31.6476  -40.8375 H         1 UNK         0.0612 
    117 H117       20.5008  -31.6422  -41.7065 H         1 UNK         0.0612 
@<TRIPOS>BOND
     1    1    2 1    
     2    1   62 1    
     3    1   63 1    
     4    1   64 1    
     5    2    3 2    
     6    2    4 am   BACKBONE|DICT|INTERRES
     7    4    5 1    
     8    4   65 1    
     9    5    6 1    
    10    5   25 1    
    11    5   66 1    
    12    6    7 1    
    13    6   67 1    
    14    6   68 1    
    15    7    8 1    
    16    8    9 1    
    17    8   69 1    
    18    8   70 1    
    19    9   10 ar   
    20    9   14 ar   
    21   10   11 ar   
    22   10   71 1    
    23   11   12 ar   
    24   11   61 1    
    25   12   13 ar   
    26   12   72 1    
    27   13   14 ar   
    28   13   15 1    
    29   14   73 1    
    30   15   16 1    
    31   15   74 1    
    32   15   75 1    
    33   16   17 1    
    34   17   18 1    
    35   17   76 1    
    36   17   77 1    
    37   18   19 1    
    38   18   27 1    
    39   18   78 1    
    40   19   20 am   BACKBONE|DICT|INTERRES
    41   19   79 1    
    42   20   21 2    
    43   20   22 1    
    44   22   23 1    
    45   22   24 1    
    46   22   80 1    
    47   23   81 1    
    48   23   82 1    
    49   23   83 1    
    50   24   25 am   BACKBONE|DICT|INTERRES
    51   24   84 1    
    52   25   26 2    
    53   27   28 2    
    54   27   29 am   BACKBONE|DICT|INTERRES
    55   29   30 1    
    56   29   85 1    
    57   30   31 1    
    58   30   32 1    
    59   30   86 1    
    60   31   87 1    
    61   31   88 1    
    62   31   89 1    
    63   32   33 2    
    64   32   34 am   BACKBONE|DICT|INTERRES
    65   34   35 1    
    66   34   90 1    
    67   35   36 1    
    68   35   37 1    
    69   35   91 1    
    70   36   92 1    
    71   36   93 1    
    72   36   94 1    
    73   37   38 2    
    74   37   39 am   BACKBONE|DICT|INTERRES
    75   39   40 1    
    76   39   95 1    
    77   40   41 1    
    78   40   42 1    
    79   40   96 1    
    80   41   97 1    
    81   41   98 1    
    82   41   99 1    
    83   42   43 2    
    84   42   44 am   BACKBONE|DICT|INTERRES
    85   44   45 1    
    86   44  100 1    
    87   45   46 1    
    88   45   47 1    
    89   45  101 1    
    90   46  102 1    
    91   46  103 1    
    92   46  104 1    
    93   47   48 2    
    94   47   49 am   BACKBONE|DICT|INTERRES
    95   49   50 1    
    96   49  105 1    
    97   50   51 1    
    98   50   52 1    
    99   50  106 1    
   100   51  107 1    
   101   51  108 1    
   102   51  109 1    
   103   52   53 2    
   104   52   54 am   BACKBONE|DICT|INTERRES
   105   54   55 1    
   106   54  110 1    
   107   55   56 1    
   108   55   59 1    
   109   55  111 1    
   110   56   57 am   BACKBONE|DICT|INTERRES
   111   56   58 2    
   112   57  112 1    
   113   57  113 1    
   114   59   60 1    
   115   59  114 1    
   116   59  115 1    
   117   60   61 1    
   118   61  116 1    
   119   61  117 1    
@<TRIPOS>SUBSTRUCTURE
     1 UNK         1 GROUP             0       ****    0 ROOT    
