@<TRIPOS>MOLECULE
3R8
117   119    1
SMALL
USER_CHARGES


@<TRIPOS>ATOM
      1 CA         13.8355  -24.4387  -48.0307 C.3       0 UNK        -0.2013 
      2 C          15.2024  -25.0528  -47.7675 C.2       0 UNK         0.4866 
      3 O          16.2016  -24.5771  -48.3075 O.2       0 UNK        -0.5176 
      4 N          15.2548  -26.1104  -46.9480 N.am      1 UNK        -0.4884 
      5 CA         16.4879  -26.7822  -46.5310 C.3       1 UNK         0.0853 
      6 C6         16.1839  -28.1958  -45.9703 C.3       10 UNK        -0.0849 
      7 S7         17.6734  -29.2395  -45.7867 S.3       10 UNK        -0.2776 
      8 C8         17.1914  -30.3507  -44.4172 C.3       10 UNK         0.0316 
      9 C9         17.6963  -29.8974  -43.0480 C.ar      10 UNK        -0.0863 
     10 C10        18.3685  -30.7999  -42.2172 C.ar      10 UNK        -0.1009 
     11 C11        18.8106  -30.4154  -40.9443 C.ar      10 UNK        -0.0712 
     12 C12        18.5820  -29.1069  -40.5110 C.ar      10 UNK        -0.0894 
     13 C13        17.9483  -28.1777  -41.3451 C.ar      10 UNK        -0.0745 
     14 C14        17.4867  -28.5921  -42.5965 C.ar      10 UNK        -0.0972 
     15 C15        17.7833  -26.7078  -40.9631 C.3       10 UNK         0.0209 
     16 S16        19.0043  -26.0476  -39.7688 S.3       10 UNK        -0.2568 
     17 C17        20.6886  -26.3699  -40.4228 C.3       10 UNK        -0.0983 
     18 CA         20.8672  -26.7644  -41.9136 C.3       3 UNK         0.0876 
     19 N          20.3346  -25.7561  -42.8352 N.am      3 UNK        -0.4424 
     20 C          20.1457  -25.9754  -44.1424 C.2       2 UNK         0.4918 
     21 O          20.5141  -26.9923  -44.7320 O.2       2 UNK        -0.4875 
     22 CA         19.4240  -24.8776  -44.9347 C.3       2 UNK         0.0481 
     23 CB         20.4314  -24.0352  -45.7330 C.3       2 UNK        -0.1831 
     24 N          18.4791  -25.5095  -45.8551 N.am      2 UNK        -0.4498 
     25 C          17.2438  -25.8994  -45.5160 C.2       1 UNK         0.5027 
     26 O          16.6963  -25.5998  -44.4518 O.2       1 UNK        -0.4969 
     27 C          22.3418  -27.1189  -42.1835 C.2       3 UNK         0.5005 
     28 O          22.7146  -28.2811  -42.0131 O.2       3 UNK        -0.5279 
     29 N          23.1531  -26.1152  -42.5571 N.am      4 UNK        -0.4463 
     30 CA         24.6007  -26.2043  -42.8015 C.3       4 UNK         0.0283 
     31 CB         24.8779  -27.0168  -44.0853 C.3       4 UNK        -0.1875 
     32 C          25.3674  -26.7471  -41.5774 C.2       4 UNK         0.4949 
     33 O          26.1409  -27.6947  -41.7038 O.2       4 UNK        -0.5039 
     34 N          25.0796  -26.1783  -40.3953 N.am      5 UNK        -0.4663 
     35 CA         25.5554  -26.6216  -39.0721 C.3       5 UNK         0.0242 
     36 CB         27.0794  -26.4150  -38.9330 C.3       5 UNK        -0.1982 
     37 C          25.1088  -28.0601  -38.7257 C.2       5 UNK         0.5017 
     38 O          25.8507  -28.8044  -38.0838 O.2       5 UNK        -0.5012 
     39 N          23.8992  -28.4116  -39.1854 N.am      6 UNK        -0.4439 
     40 CA         23.2202  -29.7100  -39.1077 C.3       6 UNK         0.0297 
     41 CB         23.0491  -30.1852  -37.6500 C.3       6 UNK        -0.2006 
     42 C          23.8191  -30.8011  -40.0177 C.2       6 UNK         0.4892 
     43 O          23.3786  -31.9478  -39.9305 O.2       6 UNK        -0.5089 
     44 N          24.7571  -30.4471  -40.9115 N.am      7 UNK        -0.4243 
     45 CA         25.3504  -31.3652  -41.8911 C.3       7 UNK         0.0196 
     46 CB         26.5985  -30.7249  -42.5177 C.3       7 UNK        -0.2007 
     47 C          24.3694  -31.8129  -42.9898 C.2       7 UNK         0.5020 
     48 O          24.6335  -32.8177  -43.6504 O.2       7 UNK        -0.5147 
     49 N          23.2569  -31.0847  -43.1679 N.am      8 UNK        -0.4734 
     50 CA         22.1672  -31.4526  -44.0763 C.3       8 UNK         0.0238 
     51 CB         21.2427  -30.2418  -44.2648 C.3       8 UNK        -0.1912 
     52 C          21.3659  -32.6895  -43.6212 C.2       8 UNK         0.5038 
     53 O          20.7067  -33.3086  -44.4574 O.2       8 UNK        -0.5046 
     54 N          21.4322  -33.0312  -42.3275 N.am      9 UNK        -0.4200 
     55 CA         20.8559  -34.2533  -41.7536 C.3       9 UNK         0.0839 
     56 C          21.8468  -35.4334  -41.9186 C.2       9 UNK         0.5513 
     57 N          21.3761  -36.5802  -42.3889 N.am      9 UNK        -0.7519 
     58 O          23.0246  -35.3325  -41.5832 O.2       9 UNK        -0.4960 
     59 C59        20.4686  -34.0559  -40.2638 C.3       10 UNK        -0.0876 
     60 S60        18.9426  -33.0753  -40.0716 S.3       10 UNK        -0.2414 
     61 C61        19.5922  -31.3722  -40.0480 C.3       10 UNK         0.0169 
     62 H62        13.8246  -23.3971  -47.7108 H         1 UNK         0.0903 
     63 H63        13.0422  -24.9646  -47.4997 H         1 UNK         0.0903 
     64 H64        13.6088  -24.4704  -49.0960 H         1 UNK         0.0903 
     65 H65        14.4062  -26.4373  -46.5076 H         1 UNK         0.3096 
     66 H66        17.1112  -26.9060  -47.4200 H         1 UNK         0.1121 
     67 H67        15.5164  -28.7228  -46.6542 H         1 UNK         0.0849 
     68 H68        15.6417  -28.1314  -45.0256 H         1 UNK         0.0849 
     69 H69        16.1067  -30.4598  -44.3842 H         1 UNK         0.0865 
     70 H70        17.5845  -31.3422  -44.6478 H         1 UNK         0.0865 
     71 H71        18.5530  -31.8071  -42.5646 H         1 UNK         0.1346 
     72 H72        18.9374  -28.8038  -39.5363 H         1 UNK         0.1412 
     73 H73        16.9849  -27.8799  -43.2326 H         1 UNK         0.1426 
     74 H74        17.8027  -26.0829  -41.8566 H         1 UNK         0.0716 
     75 H75        16.7891  -26.5814  -40.5331 H         1 UNK         0.0716 
     76 H76        21.1000  -27.1577  -39.7887 H         1 UNK         0.0695 
     77 H77        21.2834  -25.4811  -40.2032 H         1 UNK         0.0695 
     78 H78        20.3318  -27.6922  -42.1050 H         1 UNK         0.0983 
     79 H79        20.0074  -24.8947  -42.4220 H         1 UNK         0.3095 
     80 H80        18.8873  -24.2201  -44.2472 H         1 UNK         0.0454 
     81 H81        19.9286  -23.2619  -46.3139 H         1 UNK         0.0851 
     82 H82        21.0153  -24.6462  -46.4227 H         1 UNK         0.0851 
     83 H83        21.1349  -23.5336  -45.0674 H         1 UNK         0.0851 
     84 H84        18.8634  -25.8271  -46.7334 H         1 UNK         0.2976 
     85 H85        22.7437  -25.1973  -42.6639 H         1 UNK         0.3116 
     86 H86        24.9588  -25.1872  -42.9669 H         1 UNK         0.0646 
     87 H87        24.3483  -26.5987  -44.9412 H         1 UNK         0.0847 
     88 H88        25.9411  -27.0140  -44.3279 H         1 UNK         0.0847 
     89 H89        24.5721  -28.0586  -43.9809 H         1 UNK         0.0847 
     90 H90        24.4350  -25.3992  -40.3923 H         1 UNK         0.3040 
     91 H91        25.0712  -25.9758  -38.3374 H         1 UNK         0.1015 
     92 H92        27.3650  -25.3916  -39.1761 H         1 UNK         0.0786 
     93 H93        27.6423  -27.0844  -39.5841 H         1 UNK         0.0786 
     94 H94        27.4079  -26.6072  -37.9108 H         1 UNK         0.0786 
     95 H95        23.4288  -27.7317  -39.7648 H         1 UNK         0.3172 
     96 H96        22.2190  -29.5291  -39.5013 H         1 UNK         0.0595 
     97 H97        22.6035  -29.4092  -37.0278 H         1 UNK         0.0839 
     98 H98        24.0001  -30.4734  -37.2017 H         1 UNK         0.0839 
     99 H99        22.3933  -31.0553  -37.5983 H         1 UNK         0.0839 
    100 H100       25.0475  -29.4776  -40.9650 H         1 UNK         0.2998 
    101 H101       25.6648  -32.2626  -41.3537 H         1 UNK         0.0822 
    102 H102       27.2980  -30.3808  -41.7555 H         1 UNK         0.0787 
    103 H103       27.1287  -31.4415  -43.1463 H         1 UNK         0.0787 
    104 H104       26.3396  -29.8735  -43.1478 H         1 UNK         0.0787 
    105 H105       23.1333  -30.2357  -42.6231 H         1 UNK         0.3055 
    106 H106       22.6048  -31.6984  -45.0464 H         1 UNK         0.1106 
    107 H107       21.7792  -29.4005  -44.7035 H         1 UNK         0.0828 
    108 H108       20.4118  -30.4773  -44.9308 H         1 UNK         0.0828 
    109 H109       20.8178  -29.9056  -43.3193 H         1 UNK         0.0828 
    110 H110       22.0570  -32.5144  -41.7224 H         1 UNK         0.2931 
    111 H111       19.9441  -34.4996  -42.3026 H         1 UNK         0.0412 
    112 H112       20.4086  -36.6749  -42.6579 H         1 UNK         0.3472 
    113 H113       22.0023  -37.3645  -42.4875 H         1 UNK         0.3472 
    114 H114       21.2840  -33.6074  -39.6936 H         1 UNK         0.0970 
    115 H115       20.2745  -35.0209  -39.7913 H         1 UNK         0.0970 
    116 H116       20.6338  -31.3552  -40.3656 H         1 UNK         0.0612 
    117 H117       19.5847  -31.0242  -39.0140 H         1 UNK         0.0612 
@<TRIPOS>BOND
     1    1    2 1    
     2    1   62 1    
     3    1   63 1    
     4    1   64 1    
     5    2    3 2    
     6    2    4 am   BACKBONE|DICT|INTERRES
     7    4    5 1    
     8    4   65 1    
     9    5    6 1    
    10    5   25 1    
    11    5   66 1    
    12    6    7 1    
    13    6   67 1    
    14    6   68 1    
    15    7    8 1    
    16    8    9 1    
    17    8   69 1    
    18    8   70 1    
    19    9   10 ar   
    20    9   14 ar   
    21   10   11 ar   
    22   10   71 1    
    23   11   12 ar   
    24   11   61 1    
    25   12   13 ar   
    26   12   72 1    
    27   13   14 ar   
    28   13   15 1    
    29   14   73 1    
    30   15   16 1    
    31   15   74 1    
    32   15   75 1    
    33   16   17 1    
    34   17   18 1    
    35   17   76 1    
    36   17   77 1    
    37   18   19 1    
    38   18   27 1    
    39   18   78 1    
    40   19   20 am   BACKBONE|DICT|INTERRES
    41   19   79 1    
    42   20   21 2    
    43   20   22 1    
    44   22   23 1    
    45   22   24 1    
    46   22   80 1    
    47   23   81 1    
    48   23   82 1    
    49   23   83 1    
    50   24   25 am   BACKBONE|DICT|INTERRES
    51   24   84 1    
    52   25   26 2    
    53   27   28 2    
    54   27   29 am   BACKBONE|DICT|INTERRES
    55   29   30 1    
    56   29   85 1    
    57   30   31 1    
    58   30   32 1    
    59   30   86 1    
    60   31   87 1    
    61   31   88 1    
    62   31   89 1    
    63   32   33 2    
    64   32   34 am   BACKBONE|DICT|INTERRES
    65   34   35 1    
    66   34   90 1    
    67   35   36 1    
    68   35   37 1    
    69   35   91 1    
    70   36   92 1    
    71   36   93 1    
    72   36   94 1    
    73   37   38 2    
    74   37   39 am   BACKBONE|DICT|INTERRES
    75   39   40 1    
    76   39   95 1    
    77   40   41 1    
    78   40   42 1    
    79   40   96 1    
    80   41   97 1    
    81   41   98 1    
    82   41   99 1    
    83   42   43 2    
    84   42   44 am   BACKBONE|DICT|INTERRES
    85   44   45 1    
    86   44  100 1    
    87   45   46 1    
    88   45   47 1    
    89   45  101 1    
    90   46  102 1    
    91   46  103 1    
    92   46  104 1    
    93   47   48 2    
    94   47   49 am   BACKBONE|DICT|INTERRES
    95   49   50 1    
    96   49  105 1    
    97   50   51 1    
    98   50   52 1    
    99   50  106 1    
   100   51  107 1    
   101   51  108 1    
   102   51  109 1    
   103   52   53 2    
   104   52   54 am   BACKBONE|DICT|INTERRES
   105   54   55 1    
   106   54  110 1    
   107   55   56 1    
   108   55   59 1    
   109   55  111 1    
   110   56   57 am   BACKBONE|DICT|INTERRES
   111   56   58 2    
   112   57  112 1    
   113   57  113 1    
   114   59   60 1    
   115   59  114 1    
   116   59  115 1    
   117   60   61 1    
   118   61  116 1    
   119   61  117 1    
@<TRIPOS>SUBSTRUCTURE
     1 UNK         1 GROUP             0       ****    0 ROOT    
