@<TRIPOS>MOLECULE
3R8
117   119    1
SMALL
USER_CHARGES


@<TRIPOS>ATOM
      1 CA         14.6151  -23.6204  -47.6119 C.3       0 UNK        -0.2013 
      2 C          15.3431  -24.7215  -46.8549 C.2       0 UNK         0.4866 
      3 O          16.3000  -25.2916  -47.3783 O.2       0 UNK        -0.5176 
      4 N          14.8902  -25.0273  -45.6328 N.am      1 UNK        -0.4884 
      5 CA         15.4916  -26.0220  -44.7360 C.3       1 UNK         0.0853 
      6 C6         14.4649  -26.5277  -43.6887 C.3       10 UNK        -0.0849 
      7 S7         13.3339  -27.7364  -44.4507 S.3       10 UNK        -0.2776 
      8 C8         13.9734  -29.3148  -43.7903 C.3       10 UNK         0.0316 
      9 C9         15.4634  -29.5267  -44.0505 C.ar      10 UNK        -0.0863 
     10 C10        16.3463  -29.6949  -42.9787 C.ar      10 UNK        -0.1009 
     11 C11        17.7072  -29.9362  -43.1962 C.ar      10 UNK        -0.0712 
     12 C12        18.1794  -30.0099  -44.5130 C.ar      10 UNK        -0.0894 
     13 C13        17.3169  -29.8086  -45.5937 C.ar      10 UNK        -0.0745 
     14 C14        15.9575  -29.5835  -45.3569 C.ar      10 UNK        -0.0972 
     15 C15        17.8478  -29.8519  -47.0191 C.3       10 UNK         0.0209 
     16 S16        18.5819  -28.2589  -47.5167 S.3       10 UNK        -0.2568 
     17 C17        20.3081  -28.4208  -46.9399 C.3       10 UNK        -0.0983 
     18 CA         20.7571  -27.2800  -45.9901 C.3       3 UNK         0.0876 
     19 N          19.8779  -27.1623  -44.8214 N.am      3 UNK        -0.4424 
     20 C          19.8759  -26.1554  -43.9373 C.2       2 UNK         0.4918 
     21 O          20.6239  -25.1788  -43.9989 O.2       2 UNK        -0.4875 
     22 CA         18.8285  -26.2775  -42.8181 C.3       2 UNK         0.0481 
     23 CB         18.9030  -25.1476  -41.7694 C.3       2 UNK        -0.1831 
     24 N          17.4846  -26.4244  -43.3884 N.am      2 UNK        -0.4498 
     25 C          16.7862  -25.5056  -44.0749 C.2       1 UNK         0.5027 
     26 O          17.1210  -24.3241  -44.1947 O.2       1 UNK        -0.4969 
     27 C          22.2459  -27.4674  -45.6180 C.2       3 UNK         0.5005 
     28 O          23.1112  -27.2147  -46.4585 O.2       3 UNK        -0.5279 
     29 N          22.5190  -27.9167  -44.3876 N.am      4 UNK        -0.4463 
     30 CA         23.8460  -28.1411  -43.8259 C.3       4 UNK         0.0283 
     31 CB         24.1553  -29.6453  -43.8863 C.3       4 UNK        -0.1875 
     32 C          23.8832  -27.6091  -42.3848 C.2       4 UNK         0.4949 
     33 O          22.8438  -27.2250  -41.8419 O.2       4 UNK        -0.5039 
     34 N          25.0894  -27.5751  -41.8065 N.am      5 UNK        -0.4663 
     35 CA         25.3602  -27.1082  -40.4455 C.3       5 UNK         0.0242 
     36 CB         26.7167  -26.3710  -40.4377 C.3       5 UNK        -0.1982 
     37 C          25.2692  -28.2750  -39.4410 C.2       5 UNK         0.5017 
     38 O          24.2369  -28.9428  -39.3796 O.2       5 UNK        -0.5012 
     39 N          26.3330  -28.4978  -38.6547 N.am      6 UNK        -0.4439 
     40 CA         26.4205  -29.5505  -37.6351 C.3       6 UNK         0.0297 
     41 CB         27.6563  -29.3033  -36.7546 C.3       6 UNK        -0.2006 
     42 C          26.4493  -30.9773  -38.2142 C.2       6 UNK         0.4892 
     43 O          26.0184  -31.9103  -37.5355 O.2       6 UNK        -0.5089 
     44 N          26.9481  -31.1208  -39.4485 N.am      7 UNK        -0.4243 
     45 CA         26.8739  -32.3523  -40.2311 C.3       7 UNK         0.0196 
     46 CB         28.0014  -32.3534  -41.2759 C.3       7 UNK        -0.2007 
     47 C          25.5057  -32.4411  -40.9209 C.2       7 UNK         0.5020 
     48 O          24.9852  -31.4155  -41.3612 O.2       7 UNK        -0.5147 
     49 N          24.9683  -33.6624  -41.0309 N.am      8 UNK        -0.4734 
     50 CA         23.6853  -34.0393  -41.6449 C.3       8 UNK         0.0238 
     51 CB         23.6504  -33.7089  -43.1514 C.3       8 UNK        -0.1912 
     52 C          22.4467  -33.4892  -40.9130 C.2       8 UNK         0.5038 
     53 O          21.6273  -34.2859  -40.4535 O.2       8 UNK        -0.5046 
     54 N          22.3287  -32.1601  -40.8174 N.am      9 UNK        -0.4200 
     55 CA         21.2665  -31.4661  -40.0792 C.3       9 UNK         0.0839 
     56 C          21.5279  -31.5127  -38.5523 C.2       9 UNK         0.5513 
     57 N          22.6010  -30.9030  -38.0675 N.am      9 UNK        -0.7519 
     58 O          20.7545  -32.1037  -37.8033 O.2       9 UNK        -0.4960 
     59 C59        21.0383  -30.0179  -40.5835 C.3       10 UNK        -0.0876 
     60 S60        20.4040  -29.9532  -42.2915 S.3       10 UNK        -0.2414 
     61 C61        18.6130  -30.1388  -41.9801 C.3       10 UNK         0.0169 
     62 H62        14.2254  -24.0068  -48.5533 H         1 UNK         0.0903 
     63 H63        15.3009  -22.8038  -47.8362 H         1 UNK         0.0903 
     64 H64        13.7802  -23.2147  -47.0406 H         1 UNK         0.0903 
     65 H65        14.1114  -24.5102  -45.2510 H         1 UNK         0.3096 
     66 H66        15.8076  -26.8640  -45.3549 H         1 UNK         0.1121 
     67 H67        13.8827  -25.6991  -43.2818 H         1 UNK         0.0849 
     68 H68        14.9391  -26.9975  -42.8255 H         1 UNK         0.0849 
     69 H69        13.7569  -29.3584  -42.7216 H         1 UNK         0.0865 
     70 H70        13.4166  -30.1360  -44.2438 H         1 UNK         0.0865 
     71 H71        15.9695  -29.6578  -41.9650 H         1 UNK         0.1346 
     72 H72        19.2188  -30.2287  -44.7078 H         1 UNK         0.1412 
     73 H73        15.2805  -29.4467  -46.1897 H         1 UNK         0.1426 
     74 H74        18.5748  -30.6576  -47.1324 H         1 UNK         0.0716 
     75 H75        17.0358  -30.0853  -47.7095 H         1 UNK         0.0716 
     76 H76        20.9387  -28.4344  -47.8311 H         1 UNK         0.0695 
     77 H77        20.4516  -29.3921  -46.4649 H         1 UNK         0.0695 
     78 H78        20.6889  -26.3375  -46.5379 H         1 UNK         0.0983 
     79 H79        19.1958  -27.8990  -44.7152 H         1 UNK         0.3095 
     80 H80        19.0422  -27.2090  -42.2941 H         1 UNK         0.0454 
     81 H81        18.1401  -25.2680  -41.0006 H         1 UNK         0.0851 
     82 H82        18.7806  -24.1600  -42.2139 H         1 UNK         0.0851 
     83 H83        19.8722  -25.1542  -41.2692 H         1 UNK         0.0851 
     84 H84        17.1081  -27.3627  -43.3497 H         1 UNK         0.2976 
     85 H85        21.7611  -28.0236  -43.7253 H         1 UNK         0.3116 
     86 H86        24.5951  -27.5931  -44.4013 H         1 UNK         0.0646 
     87 H87        24.0925  -30.0248  -44.9061 H         1 UNK         0.0847 
     88 H88        25.1618  -29.8587  -43.5259 H         1 UNK         0.0847 
     89 H89        23.4581  -30.2172  -43.2731 H         1 UNK         0.0847 
     90 H90        25.8771  -27.9477  -42.3167 H         1 UNK         0.3040 
     91 H91        24.5928  -26.3888  -40.1504 H         1 UNK         0.1015 
     92 H92        27.5443  -27.0252  -40.7156 H         1 UNK         0.0786 
     93 H93        26.9346  -25.9449  -39.4573 H         1 UNK         0.0786 
     94 H94        26.7089  -25.5389  -41.1424 H         1 UNK         0.0786 
     95 H95        27.1376  -27.8964  -38.7588 H         1 UNK         0.3172 
     96 H96        25.5332  -29.4751  -37.0028 H         1 UNK         0.0595 
     97 H97        28.5806  -29.3449  -37.3322 H         1 UNK         0.0839 
     98 H98        27.7307  -30.0558  -35.9681 H         1 UNK         0.0839 
     99 H99        27.6080  -28.3307  -36.2643 H         1 UNK         0.0839 
    100 H100       27.2247  -30.2883  -39.9466 H         1 UNK         0.2998 
    101 H101       27.0060  -33.2117  -39.5698 H         1 UNK         0.0822 
    102 H102       28.9812  -32.2870  -40.8025 H         1 UNK         0.0787 
    103 H103       27.9872  -33.2721  -41.8640 H         1 UNK         0.0787 
    104 H104       27.9075  -31.5194  -41.9731 H         1 UNK         0.0787 
    105 H105       25.4781  -34.4321  -40.6178 H         1 UNK         0.3055 
    106 H106       23.6297  -35.1262  -41.5593 H         1 UNK         0.1106 
    107 H107       24.4725  -34.1906  -43.6805 H         1 UNK         0.0828 
    108 H108       22.7230  -34.0617  -43.6044 H         1 UNK         0.0828 
    109 H109       23.7139  -32.6384  -43.3430 H         1 UNK         0.0828 
    110 H110       23.1088  -31.5968  -41.1446 H         1 UNK         0.2931 
    111 H111       20.3360  -32.0108  -40.2517 H         1 UNK         0.0412 
    112 H112       22.7803  -30.9414  -37.0774 H         1 UNK         0.3472 
    113 H113       23.2109  -30.3521  -38.6671 H         1 UNK         0.3472 
    114 H114       20.3452  -29.4831  -39.9316 H         1 UNK         0.0970 
    115 H115       21.9700  -29.4531  -40.5492 H         1 UNK         0.0970 
    116 H116       18.4301  -31.1349  -41.5754 H         1 UNK         0.0612 
    117 H117       18.3243  -29.4277  -41.2045 H         1 UNK         0.0612 
@<TRIPOS>BOND
     1    1    2 1    
     2    1   62 1    
     3    1   63 1    
     4    1   64 1    
     5    2    3 2    
     6    2    4 am   BACKBONE|DICT|INTERRES
     7    4    5 1    
     8    4   65 1    
     9    5    6 1    
    10    5   25 1    
    11    5   66 1    
    12    6    7 1    
    13    6   67 1    
    14    6   68 1    
    15    7    8 1    
    16    8    9 1    
    17    8   69 1    
    18    8   70 1    
    19    9   10 ar   
    20    9   14 ar   
    21   10   11 ar   
    22   10   71 1    
    23   11   12 ar   
    24   11   61 1    
    25   12   13 ar   
    26   12   72 1    
    27   13   14 ar   
    28   13   15 1    
    29   14   73 1    
    30   15   16 1    
    31   15   74 1    
    32   15   75 1    
    33   16   17 1    
    34   17   18 1    
    35   17   76 1    
    36   17   77 1    
    37   18   19 1    
    38   18   27 1    
    39   18   78 1    
    40   19   20 am   BACKBONE|DICT|INTERRES
    41   19   79 1    
    42   20   21 2    
    43   20   22 1    
    44   22   23 1    
    45   22   24 1    
    46   22   80 1    
    47   23   81 1    
    48   23   82 1    
    49   23   83 1    
    50   24   25 am   BACKBONE|DICT|INTERRES
    51   24   84 1    
    52   25   26 2    
    53   27   28 2    
    54   27   29 am   BACKBONE|DICT|INTERRES
    55   29   30 1    
    56   29   85 1    
    57   30   31 1    
    58   30   32 1    
    59   30   86 1    
    60   31   87 1    
    61   31   88 1    
    62   31   89 1    
    63   32   33 2    
    64   32   34 am   BACKBONE|DICT|INTERRES
    65   34   35 1    
    66   34   90 1    
    67   35   36 1    
    68   35   37 1    
    69   35   91 1    
    70   36   92 1    
    71   36   93 1    
    72   36   94 1    
    73   37   38 2    
    74   37   39 am   BACKBONE|DICT|INTERRES
    75   39   40 1    
    76   39   95 1    
    77   40   41 1    
    78   40   42 1    
    79   40   96 1    
    80   41   97 1    
    81   41   98 1    
    82   41   99 1    
    83   42   43 2    
    84   42   44 am   BACKBONE|DICT|INTERRES
    85   44   45 1    
    86   44  100 1    
    87   45   46 1    
    88   45   47 1    
    89   45  101 1    
    90   46  102 1    
    91   46  103 1    
    92   46  104 1    
    93   47   48 2    
    94   47   49 am   BACKBONE|DICT|INTERRES
    95   49   50 1    
    96   49  105 1    
    97   50   51 1    
    98   50   52 1    
    99   50  106 1    
   100   51  107 1    
   101   51  108 1    
   102   51  109 1    
   103   52   53 2    
   104   52   54 am   BACKBONE|DICT|INTERRES
   105   54   55 1    
   106   54  110 1    
   107   55   56 1    
   108   55   59 1    
   109   55  111 1    
   110   56   57 am   BACKBONE|DICT|INTERRES
   111   56   58 2    
   112   57  112 1    
   113   57  113 1    
   114   59   60 1    
   115   59  114 1    
   116   59  115 1    
   117   60   61 1    
   118   61  116 1    
   119   61  117 1    
@<TRIPOS>SUBSTRUCTURE
     1 UNK         1 GROUP             0       ****    0 ROOT    
