@<TRIPOS>MOLECULE
3R8
117   119    1
SMALL
USER_CHARGES


@<TRIPOS>ATOM
      1 CA         16.0051  -25.9945  -48.6690 C.3       0 UNK        -0.2013 
      2 C          17.4174  -25.6998  -48.1860 C.2       0 UNK         0.4866 
      3 O          17.8991  -24.5777  -48.3483 O.2       0 UNK        -0.5176 
      4 N          18.0881  -26.7002  -47.6026 N.am      1 UNK        -0.4884 
      5 CA         19.4218  -26.5810  -47.0053 C.3       1 UNK         0.0853 
      6 C6         20.1227  -27.9630  -46.9080 C.3       10 UNK        -0.0849 
      7 S7         19.1990  -29.2122  -45.9441 S.3       10 UNK        -0.2776 
      8 C8         20.1160  -29.1454  -44.3781 C.3       10 UNK         0.0316 
      9 C9         19.3342  -29.7770  -43.2408 C.ar      10 UNK        -0.0863 
     10 C10        19.7055  -31.0245  -42.7375 C.ar      10 UNK        -0.1009 
     11 C11        19.0403  -31.5786  -41.6422 C.ar      10 UNK        -0.0712 
     12 C12        17.9935  -30.8713  -41.0435 C.ar      10 UNK        -0.0894 
     13 C13        17.6099  -29.6199  -41.5405 C.ar      10 UNK        -0.0745 
     14 C14        18.2729  -29.0861  -42.6499 C.ar      10 UNK        -0.0972 
     15 C15        16.4884  -28.8413  -40.8690 C.3       10 UNK         0.0209 
     16 S16        17.1244  -27.7504  -39.5536 S.3       10 UNK        -0.2568 
     17 C17        17.6772  -26.2810  -40.4874 C.3       10 UNK        -0.0983 
     18 CA         19.1922  -26.2845  -40.8206 C.3       3 UNK         0.0876 
     19 N          19.4604  -25.4962  -42.0328 N.am      3 UNK        -0.4424 
     20 C          20.5942  -25.5324  -42.7426 C.2       2 UNK         0.4918 
     21 O          21.5539  -26.2512  -42.4588 O.2       2 UNK        -0.4875 
     22 CA         20.6846  -24.5869  -43.9516 C.3       2 UNK         0.0481 
     23 CB         22.0301  -23.8406  -43.9640 C.3       2 UNK        -0.1831 
     24 N          20.5193  -25.3065  -45.2156 N.am      2 UNK        -0.4498 
     25 C          19.3691  -25.8444  -45.6459 C.2       1 UNK         0.5027 
     26 O          18.3130  -25.7876  -45.0086 O.2       1 UNK        -0.4969 
     27 C          20.0732  -25.8697  -39.6174 C.2       3 UNK         0.5005 
     28 O          20.2512  -26.6621  -38.6926 O.2       3 UNK        -0.5279 
     29 N          20.6530  -24.6595  -39.6653 N.am      4 UNK        -0.4463 
     30 CA         21.6817  -24.1925  -38.7312 C.3       4 UNK         0.0283 
     31 CB         21.9238  -22.6898  -38.9458 C.3       4 UNK        -0.1875 
     32 C          23.0041  -24.9746  -38.8567 C.2       4 UNK         0.4949 
     33 O          23.6834  -25.1692  -37.8487 O.2       4 UNK        -0.5039 
     34 N          23.3388  -25.4123  -40.0795 N.am      5 UNK        -0.4663 
     35 CA         24.4818  -26.2835  -40.3612 C.3       5 UNK         0.0242 
     36 CB         25.0416  -25.9647  -41.7583 C.3       5 UNK        -0.1982 
     37 C          24.0817  -27.7632  -40.2618 C.2       5 UNK         0.5017 
     38 O          24.8254  -28.5523  -39.6797 O.2       5 UNK        -0.5012 
     39 N          22.9152  -28.0986  -40.8359 N.am      6 UNK        -0.4439 
     40 CA         22.2834  -29.4227  -40.8893 C.3       6 UNK         0.0297 
     41 CB         21.8715  -29.9002  -39.4814 C.3       6 UNK        -0.2006 
     42 C          23.1064  -30.4789  -41.6566 C.2       6 UNK         0.4892 
     43 O          22.9844  -31.6707  -41.3762 O.2       6 UNK        -0.5089 
     44 N          23.9203  -30.0263  -42.6221 N.am      7 UNK        -0.4243 
     45 CA         24.9471  -30.8074  -43.3241 C.3       7 UNK         0.0196 
     46 CB         25.7063  -29.8750  -44.2824 C.3       7 UNK        -0.2007 
     47 C          24.4540  -32.0585  -44.0758 C.2       7 UNK         0.5020 
     48 O          25.2394  -32.9862  -44.2712 O.2       7 UNK        -0.5147 
     49 N          23.1803  -32.0701  -44.4895 N.am      8 UNK        -0.4734 
     50 CA         22.5527  -33.1919  -45.1964 C.3       8 UNK         0.0238 
     51 CB         21.3178  -32.6842  -45.9627 C.3       8 UNK        -0.1912 
     52 C          22.1834  -34.3837  -44.2890 C.2       8 UNK         0.5038 
     53 O          21.8859  -35.4549  -44.8203 O.2       8 UNK        -0.5046 
     54 N          22.1929  -34.1960  -42.9632 N.am      9 UNK        -0.4200 
     55 CA         21.8262  -35.2080  -41.9630 C.3       9 UNK         0.0839 
     56 C          22.5113  -34.9126  -40.6001 C.2       9 UNK         0.5513 
     57 N          21.8094  -34.9882  -39.4766 N.am      9 UNK        -0.7519 
     58 O          23.7161  -34.6770  -40.5493 O.2       9 UNK        -0.4960 
     59 C59        20.3011  -35.5713  -41.9344 C.3       10 UNK        -0.0876 
     60 S60        19.0951  -34.2437  -42.3031 S.3       10 UNK        -0.2414 
     61 C61        19.4869  -32.9299  -41.1082 C.3       10 UNK         0.0169 
     62 H62        15.7147  -27.0269  -48.4741 H         1 UNK         0.0903 
     63 H63        15.2930  -25.3415  -48.1652 H         1 UNK         0.0903 
     64 H64        15.9303  -25.8181  -49.7417 H         1 UNK         0.0903 
     65 H65        17.6353  -27.5919  -47.4567 H         1 UNK         0.3096 
     66 H66        20.0222  -25.9593  -47.6741 H         1 UNK         0.1121 
     67 H67        20.2560  -28.3647  -47.9138 H         1 UNK         0.0849 
     68 H68        21.1341  -27.8592  -46.5104 H         1 UNK         0.0849 
     69 H69        21.0816  -29.6348  -44.5085 H         1 UNK         0.0865 
     70 H70        20.3353  -28.1117  -44.1163 H         1 UNK         0.0865 
     71 H71        20.5292  -31.5661  -43.1772 H         1 UNK         0.1346 
     72 H72        17.4841  -31.2877  -40.1853 H         1 UNK         0.1412 
     73 H73        17.9850  -28.1176  -43.0373 H         1 UNK         0.1426 
     74 H74        15.7740  -29.5373  -40.4268 H         1 UNK         0.0716 
     75 H75        15.9267  -28.2630  -41.6041 H         1 UNK         0.0716 
     76 H76        17.4048  -25.3861  -39.9245 H         1 UNK         0.0695 
     77 H77        17.0889  -26.2332  -41.4050 H         1 UNK         0.0695 
     78 H78        19.4895  -27.3091  -41.0492 H         1 UNK         0.0983 
     79 H79        18.7094  -24.9027  -42.3568 H         1 UNK         0.3095 
     80 H80        19.8915  -23.8400  -43.8746 H         1 UNK         0.0454 
     81 H81        22.1860  -23.2970  -43.0313 H         1 UNK         0.0851 
     82 H82        22.8735  -24.5213  -44.0876 H         1 UNK         0.0851 
     83 H83        22.0703  -23.1097  -44.7717 H         1 UNK         0.0851 
     84 H84        21.3512  -25.4138  -45.7782 H         1 UNK         0.2976 
     85 H85        20.4267  -24.0517  -40.4387 H         1 UNK         0.3116 
     86 H86        21.3060  -24.3364  -37.7158 H         1 UNK         0.0646 
     87 H87        22.6688  -22.3124  -38.2437 H         1 UNK         0.0847 
     88 H88        21.0124  -22.1131  -38.7874 H         1 UNK         0.0847 
     89 H89        22.2883  -22.4759  -39.9513 H         1 UNK         0.0847 
     90 H90        22.7061  -25.2353  -40.8475 H         1 UNK         0.3040 
     91 H91        25.2734  -26.1002  -39.6305 H         1 UNK         0.1015 
     92 H92        25.3750  -24.9287  -41.8220 H         1 UNK         0.0786 
     93 H93        24.3029  -26.1255  -42.5441 H         1 UNK         0.0786 
     94 H94        25.9022  -26.5954  -41.9858 H         1 UNK         0.0786 
     95 H95        22.4157  -27.3679  -41.3404 H         1 UNK         0.3172 
     96 H96        21.3684  -29.2728  -41.4579 H         1 UNK         0.0595 
     97 H97        21.2718  -29.1499  -38.9672 H         1 UNK         0.0839 
     98 H98        22.7390  -30.1231  -38.8598 H         1 UNK         0.0839 
     99 H99        21.2693  -30.8076  -39.5366 H         1 UNK         0.0839 
    100 H100       23.9301  -29.0307  -42.7875 H         1 UNK         0.2998 
    101 H101       25.6493  -31.1573  -42.5643 H         1 UNK         0.0822 
    102 H102       25.0465  -29.4550  -45.0428 H         1 UNK         0.0787 
    103 H103       26.5023  -30.4107  -44.8018 H         1 UNK         0.0787 
    104 H104       26.1734  -29.0480  -43.7469 H         1 UNK         0.0787 
    105 H105       22.6085  -31.2644  -44.2914 H         1 UNK         0.3055 
    106 H106       23.2665  -33.5695  -45.9324 H         1 UNK         0.1106 
    107 H107       20.5226  -32.3544  -45.2954 H         1 UNK         0.0828 
    108 H108       21.5690  -31.8541  -46.6232 H         1 UNK         0.0828 
    109 H109       20.8998  -33.4748  -46.5873 H         1 UNK         0.0828 
    110 H110       22.5090  -33.3101  -42.5806 H         1 UNK         0.2931 
    111 H111       22.3338  -36.1241  -42.2721 H         1 UNK         0.0412 
    112 H112       22.2771  -34.8180  -38.6000 H         1 UNK         0.3472 
    113 H113       20.8254  -35.2019  -39.4849 H         1 UNK         0.3472 
    114 H114       20.0111  -36.0728  -41.0109 H         1 UNK         0.0970 
    115 H115       20.1315  -36.3261  -42.7037 H         1 UNK         0.0970 
    116 H116       20.5589  -32.8829  -40.9273 H         1 UNK         0.0612 
    117 H117       19.0151  -33.1559  -40.1510 H         1 UNK         0.0612 
@<TRIPOS>BOND
     1    1    2 1    
     2    1   62 1    
     3    1   63 1    
     4    1   64 1    
     5    2    3 2    
     6    2    4 am   BACKBONE|DICT|INTERRES
     7    4    5 1    
     8    4   65 1    
     9    5    6 1    
    10    5   25 1    
    11    5   66 1    
    12    6    7 1    
    13    6   67 1    
    14    6   68 1    
    15    7    8 1    
    16    8    9 1    
    17    8   69 1    
    18    8   70 1    
    19    9   10 ar   
    20    9   14 ar   
    21   10   11 ar   
    22   10   71 1    
    23   11   12 ar   
    24   11   61 1    
    25   12   13 ar   
    26   12   72 1    
    27   13   14 ar   
    28   13   15 1    
    29   14   73 1    
    30   15   16 1    
    31   15   74 1    
    32   15   75 1    
    33   16   17 1    
    34   17   18 1    
    35   17   76 1    
    36   17   77 1    
    37   18   19 1    
    38   18   27 1    
    39   18   78 1    
    40   19   20 am   BACKBONE|DICT|INTERRES
    41   19   79 1    
    42   20   21 2    
    43   20   22 1    
    44   22   23 1    
    45   22   24 1    
    46   22   80 1    
    47   23   81 1    
    48   23   82 1    
    49   23   83 1    
    50   24   25 am   BACKBONE|DICT|INTERRES
    51   24   84 1    
    52   25   26 2    
    53   27   28 2    
    54   27   29 am   BACKBONE|DICT|INTERRES
    55   29   30 1    
    56   29   85 1    
    57   30   31 1    
    58   30   32 1    
    59   30   86 1    
    60   31   87 1    
    61   31   88 1    
    62   31   89 1    
    63   32   33 2    
    64   32   34 am   BACKBONE|DICT|INTERRES
    65   34   35 1    
    66   34   90 1    
    67   35   36 1    
    68   35   37 1    
    69   35   91 1    
    70   36   92 1    
    71   36   93 1    
    72   36   94 1    
    73   37   38 2    
    74   37   39 am   BACKBONE|DICT|INTERRES
    75   39   40 1    
    76   39   95 1    
    77   40   41 1    
    78   40   42 1    
    79   40   96 1    
    80   41   97 1    
    81   41   98 1    
    82   41   99 1    
    83   42   43 2    
    84   42   44 am   BACKBONE|DICT|INTERRES
    85   44   45 1    
    86   44  100 1    
    87   45   46 1    
    88   45   47 1    
    89   45  101 1    
    90   46  102 1    
    91   46  103 1    
    92   46  104 1    
    93   47   48 2    
    94   47   49 am   BACKBONE|DICT|INTERRES
    95   49   50 1    
    96   49  105 1    
    97   50   51 1    
    98   50   52 1    
    99   50  106 1    
   100   51  107 1    
   101   51  108 1    
   102   51  109 1    
   103   52   53 2    
   104   52   54 am   BACKBONE|DICT|INTERRES
   105   54   55 1    
   106   54  110 1    
   107   55   56 1    
   108   55   59 1    
   109   55  111 1    
   110   56   57 am   BACKBONE|DICT|INTERRES
   111   56   58 2    
   112   57  112 1    
   113   57  113 1    
   114   59   60 1    
   115   59  114 1    
   116   59  115 1    
   117   60   61 1    
   118   61  116 1    
   119   61  117 1    
@<TRIPOS>SUBSTRUCTURE
     1 UNK         1 GROUP             0       ****    0 ROOT    
