@<TRIPOS>MOLECULE
3R8
117   119    1
SMALL
USER_CHARGES


@<TRIPOS>ATOM
      1 CA         15.2879  -24.8224  -44.4936 C.3       0 UNK        -0.2013 
      2 C          16.6401  -25.4927  -44.6770 C.2       0 UNK         0.4866 
      3 O          17.1940  -26.0180  -43.7117 O.2       0 UNK        -0.5176 
      4 N          17.1848  -25.4561  -45.9033 N.am      1 UNK        -0.4884 
      5 CA         18.4242  -26.1167  -46.3643 C.3       1 UNK         0.0853 
      6 C6         18.3561  -27.6659  -46.2693 C.3       10 UNK        -0.0849 
      7 S7         16.9776  -28.4061  -47.2115 S.3       10 UNK        -0.2776 
      8 C8         15.8337  -28.9452  -45.8930 C.3       10 UNK         0.0316 
      9 C9         16.4972  -29.8084  -44.8241 C.ar      10 UNK        -0.0863 
     10 C10        17.2158  -30.9560  -45.1761 C.ar      10 UNK        -0.1009 
     11 C11        17.8384  -31.7324  -44.1947 C.ar      10 UNK        -0.0712 
     12 C12        17.7110  -31.3738  -42.8495 C.ar      10 UNK        -0.0894 
     13 C13        16.9849  -30.2373  -42.4825 C.ar      10 UNK        -0.0745 
     14 C14        16.3897  -29.4530  -43.4750 C.ar      10 UNK        -0.0972 
     15 C15        16.8066  -29.8865  -41.0116 C.3       10 UNK         0.0209 
     16 S16        18.3545  -29.3396  -40.2255 S.3       10 UNK        -0.2568 
     17 C17        18.5671  -27.6544  -40.8949 C.3       10 UNK        -0.0983 
     18 CA         19.9486  -27.4079  -41.5565 C.3       3 UNK         0.0876 
     19 N          19.9287  -26.1620  -42.3418 N.am      3 UNK        -0.4424 
     20 C          20.9677  -25.4866  -42.8636 C.2       2 UNK         0.4918 
     21 O          22.1479  -25.7873  -42.6898 O.2       2 UNK        -0.4875 
     22 CA         20.6113  -24.2788  -43.7554 C.3       2 UNK         0.0481 
     23 CB         21.8446  -23.6107  -44.3995 C.3       2 UNK        -0.1831 
     24 N          19.6126  -24.6478  -44.7630 N.am      2 UNK        -0.4498 
     25 C          19.7233  -25.6138  -45.6884 C.2       1 UNK         0.5027 
     26 O          20.7947  -26.1384  -45.9963 O.2       1 UNK        -0.4969 
     27 C          21.0922  -27.5098  -40.5195 C.2       3 UNK         0.5005 
     28 O          21.7638  -28.5412  -40.4612 O.2       3 UNK        -0.5279 
     29 N          21.3114  -26.4372  -39.7441 N.am      4 UNK        -0.4463 
     30 CA         22.3569  -26.3553  -38.7195 C.3       4 UNK         0.0283 
     31 CB         22.1334  -25.1046  -37.8548 C.3       4 UNK        -0.1875 
     32 C          23.7853  -26.3657  -39.2930 C.2       4 UNK         0.4949 
     33 O          24.6612  -27.0079  -38.7147 O.2       4 UNK        -0.5039 
     34 N          23.9939  -25.6761  -40.4230 N.am      5 UNK        -0.4663 
     35 CA         25.2698  -25.6374  -41.1458 C.3       5 UNK         0.0242 
     36 CB         25.3064  -24.4034  -42.0617 C.3       5 UNK        -0.1982 
     37 C          25.5046  -26.9222  -41.9556 C.2       5 UNK         0.5017 
     38 O          26.6423  -27.3817  -42.0522 O.2       5 UNK        -0.5012 
     39 N          24.4159  -27.4947  -42.4870 N.am      6 UNK        -0.4439 
     40 CA         24.3771  -28.7855  -43.1780 C.3       6 UNK         0.0297 
     41 CB         23.0521  -28.8914  -43.9537 C.3       6 UNK        -0.2006 
     42 C          24.5441  -29.9976  -42.2398 C.2       6 UNK         0.4892 
     43 O          24.6705  -31.1150  -42.7409 O.2       6 UNK        -0.5089 
     44 N          24.5039  -29.7715  -40.9162 N.am      7 UNK        -0.4243 
     45 CA         24.5708  -30.7596  -39.8320 C.3       7 UNK         0.0196 
     46 CB         25.9785  -31.3868  -39.7549 C.3       7 UNK        -0.2007 
     47 C          23.4473  -31.8086  -39.9322 C.2       7 UNK         0.5020 
     48 O          23.7011  -33.0070  -39.7942 O.2       7 UNK        -0.5147 
     49 N          22.2302  -31.3320  -40.2359 N.am      8 UNK        -0.4734 
     50 CA         21.0146  -32.1088  -40.5143 C.3       8 UNK         0.0238 
     51 CB         20.4765  -32.7581  -39.2228 C.3       8 UNK        -0.1912 
     52 C          21.1719  -33.1162  -41.6725 C.2       8 UNK         0.5038 
     53 O          20.5054  -34.1523  -41.6765 O.2       8 UNK        -0.5046 
     54 N          22.0545  -32.7880  -42.6258 N.am      9 UNK        -0.4200 
     55 CA         22.4533  -33.6073  -43.7804 C.3       9 UNK         0.0839 
     56 C          23.3215  -34.8477  -43.4091 C.2       9 UNK         0.5513 
     57 N          23.8641  -34.9472  -42.2000 N.am      9 UNK        -0.7519 
     58 O          23.5326  -35.7274  -44.2404 O.2       9 UNK        -0.4960 
     59 C59        21.2818  -33.9580  -44.7461 C.3       10 UNK        -0.0876 
     60 S60        20.2849  -32.5007  -45.2219 S.3       10 UNK        -0.2414 
     61 C61        18.6426  -32.9621  -44.5833 C.3       10 UNK         0.0169 
     62 H62        15.3623  -24.0226  -43.7574 H         1 UNK         0.0903 
     63 H63        14.9130  -24.3956  -45.4237 H         1 UNK         0.0903 
     64 H64        14.5583  -25.5480  -44.1353 H         1 UNK         0.0903 
     65 H65        16.6783  -24.9759  -46.6351 H         1 UNK         0.3096 
     66 H66        18.5299  -25.8548  -47.4185 H         1 UNK         0.1121 
     67 H67        18.3184  -27.9753  -45.2243 H         1 UNK         0.0849 
     68 H68        19.2675  -28.1153  -46.6686 H         1 UNK         0.0849 
     69 H69        15.3756  -28.0618  -45.4472 H         1 UNK         0.0865 
     70 H70        15.0193  -29.5121  -46.3458 H         1 UNK         0.0865 
     71 H71        17.3091  -31.2336  -46.2173 H         1 UNK         0.1346 
     72 H72        18.1724  -31.9823  -42.0841 H         1 UNK         0.1412 
     73 H73        15.8351  -28.5674  -43.1950 H         1 UNK         0.1426 
     74 H74        16.0429  -29.1183  -40.8796 H         1 UNK         0.0716 
     75 H75        16.4424  -30.7681  -40.4822 H         1 UNK         0.0716 
     76 H76        18.3877  -26.9374  -40.0918 H         1 UNK         0.0695 
     77 H77        17.7762  -27.4806  -41.6245 H         1 UNK         0.0695 
     78 H78        20.1115  -28.2061  -42.2829 H         1 UNK         0.0983 
     79 H79        19.0006  -25.8626  -42.6221 H         1 UNK         0.3095 
     80 H80        20.1377  -23.5415  -43.1059 H         1 UNK         0.0454 
     81 H81        21.5559  -22.7789  -45.0416 H         1 UNK         0.0851 
     82 H82        22.4249  -24.3123  -44.9995 H         1 UNK         0.0851 
     83 H83        22.5116  -23.2124  -43.6346 H         1 UNK         0.0851 
     84 H84        18.6787  -24.2976  -44.6000 H         1 UNK         0.2976 
     85 H85        20.7207  -25.6274  -39.8664 H         1 UNK         0.3116 
     86 H86        22.2572  -27.2321  -38.0756 H         1 UNK         0.0646 
     87 H87        21.1603  -25.1290  -37.3641 H         1 UNK         0.0847 
     88 H88        22.8875  -25.0345  -37.0695 H         1 UNK         0.0847 
     89 H89        22.1914  -24.1881  -38.4434 H         1 UNK         0.0847 
     90 H90        23.1997  -25.2519  -40.8856 H         1 UNK         0.3040 
     91 H91        26.0811  -25.5481  -40.4194 H         1 UNK         0.1015 
     92 H92        24.5353  -24.4466  -42.8314 H         1 UNK         0.0786 
     93 H93        26.2683  -24.3262  -42.5704 H         1 UNK         0.0786 
     94 H94        25.1651  -23.4832  -41.4947 H         1 UNK         0.0786 
     95 H95        23.5340  -26.9918  -42.4097 H         1 UNK         0.3172 
     96 H96        25.1991  -28.8116  -43.8960 H         1 UNK         0.0595 
     97 H97        22.1944  -28.9097  -43.2817 H         1 UNK         0.0839 
     98 H98        23.0167  -29.8050  -44.5490 H         1 UNK         0.0839 
     99 H99        22.9210  -28.0532  -44.6390 H         1 UNK         0.0839 
    100 H100       24.3314  -28.8199  -40.6211 H         1 UNK         0.2998 
    101 H101       24.3977  -30.2114  -38.9045 H         1 UNK         0.0822 
    102 H102       26.0684  -32.0390  -38.8854 H         1 UNK         0.0787 
    103 H103       26.2026  -31.9880  -40.6369 H         1 UNK         0.0787 
    104 H104       26.7487  -30.6206  -39.6666 H         1 UNK         0.0787 
    105 H105       22.1289  -30.3201  -40.3318 H         1 UNK         0.3055 
    106 H106       20.2734  -31.3882  -40.8580 H         1 UNK         0.1106 
    107 H107       19.5061  -33.2257  -39.3935 H         1 UNK         0.0828 
    108 H108       21.1496  -33.5299  -38.8483 H         1 UNK         0.0828 
    109 H109       20.3410  -32.0169  -38.4352 H         1 UNK         0.0828 
    110 H110       22.6062  -31.9504  -42.4961 H         1 UNK         0.2931 
    111 H111       23.1328  -32.9645  -44.3412 H         1 UNK         0.0412 
    112 H112       24.4311  -35.7505  -41.9802 H         1 UNK         0.3472 
    113 H113       23.7162  -34.2290  -41.5000 H         1 UNK         0.3472 
    114 H114       20.6450  -34.7274  -44.3075 H         1 UNK         0.0970 
    115 H115       21.6758  -34.3952  -45.6651 H         1 UNK         0.0970 
    116 H116       18.7439  -33.6198  -43.7194 H         1 UNK         0.0612 
    117 H117       18.1092  -33.5340  -45.3438 H         1 UNK         0.0612 
@<TRIPOS>BOND
     1    1    2 1    
     2    1   62 1    
     3    1   63 1    
     4    1   64 1    
     5    2    3 2    
     6    2    4 am   BACKBONE|DICT|INTERRES
     7    4    5 1    
     8    4   65 1    
     9    5    6 1    
    10    5   25 1    
    11    5   66 1    
    12    6    7 1    
    13    6   67 1    
    14    6   68 1    
    15    7    8 1    
    16    8    9 1    
    17    8   69 1    
    18    8   70 1    
    19    9   10 ar   
    20    9   14 ar   
    21   10   11 ar   
    22   10   71 1    
    23   11   12 ar   
    24   11   61 1    
    25   12   13 ar   
    26   12   72 1    
    27   13   14 ar   
    28   13   15 1    
    29   14   73 1    
    30   15   16 1    
    31   15   74 1    
    32   15   75 1    
    33   16   17 1    
    34   17   18 1    
    35   17   76 1    
    36   17   77 1    
    37   18   19 1    
    38   18   27 1    
    39   18   78 1    
    40   19   20 am   BACKBONE|DICT|INTERRES
    41   19   79 1    
    42   20   21 2    
    43   20   22 1    
    44   22   23 1    
    45   22   24 1    
    46   22   80 1    
    47   23   81 1    
    48   23   82 1    
    49   23   83 1    
    50   24   25 am   BACKBONE|DICT|INTERRES
    51   24   84 1    
    52   25   26 2    
    53   27   28 2    
    54   27   29 am   BACKBONE|DICT|INTERRES
    55   29   30 1    
    56   29   85 1    
    57   30   31 1    
    58   30   32 1    
    59   30   86 1    
    60   31   87 1    
    61   31   88 1    
    62   31   89 1    
    63   32   33 2    
    64   32   34 am   BACKBONE|DICT|INTERRES
    65   34   35 1    
    66   34   90 1    
    67   35   36 1    
    68   35   37 1    
    69   35   91 1    
    70   36   92 1    
    71   36   93 1    
    72   36   94 1    
    73   37   38 2    
    74   37   39 am   BACKBONE|DICT|INTERRES
    75   39   40 1    
    76   39   95 1    
    77   40   41 1    
    78   40   42 1    
    79   40   96 1    
    80   41   97 1    
    81   41   98 1    
    82   41   99 1    
    83   42   43 2    
    84   42   44 am   BACKBONE|DICT|INTERRES
    85   44   45 1    
    86   44  100 1    
    87   45   46 1    
    88   45   47 1    
    89   45  101 1    
    90   46  102 1    
    91   46  103 1    
    92   46  104 1    
    93   47   48 2    
    94   47   49 am   BACKBONE|DICT|INTERRES
    95   49   50 1    
    96   49  105 1    
    97   50   51 1    
    98   50   52 1    
    99   50  106 1    
   100   51  107 1    
   101   51  108 1    
   102   51  109 1    
   103   52   53 2    
   104   52   54 am   BACKBONE|DICT|INTERRES
   105   54   55 1    
   106   54  110 1    
   107   55   56 1    
   108   55   59 1    
   109   55  111 1    
   110   56   57 am   BACKBONE|DICT|INTERRES
   111   56   58 2    
   112   57  112 1    
   113   57  113 1    
   114   59   60 1    
   115   59  114 1    
   116   59  115 1    
   117   60   61 1    
   118   61  116 1    
   119   61  117 1    
@<TRIPOS>SUBSTRUCTURE
     1 UNK         1 GROUP             0       ****    0 ROOT    
