@<TRIPOS>MOLECULE
3R8
117   119    1
SMALL
USER_CHARGES


@<TRIPOS>ATOM
      1 CA         16.1069  -23.3979  -41.1696 C.3       0 UNK        -0.2013 
      2 C          16.2611  -23.5379  -42.6767 C.2       0 UNK         0.4866 
      3 O          16.1757  -22.5425  -43.3972 O.2       0 UNK        -0.5176 
      4 N          16.4766  -24.7682  -43.1578 N.am      1 UNK        -0.4884 
      5 CA         16.6974  -25.0982  -44.5717 C.3       1 UNK         0.0853 
      6 C6         16.5889  -26.6232  -44.8498 C.3       10 UNK        -0.0849 
      7 S7         15.1969  -27.4468  -43.9988 S.3       10 UNK        -0.2776 
      8 C8         15.3063  -29.1452  -44.6507 C.3       10 UNK         0.0316 
      9 C9         16.6759  -29.7730  -44.4233 C.ar      10 UNK        -0.0863 
     10 C10        17.0181  -30.3110  -43.1789 C.ar      10 UNK        -0.1009 
     11 C11        18.2663  -30.9125  -42.9866 C.ar      10 UNK        -0.0712 
     12 C12        19.1841  -30.9462  -44.0434 C.ar      10 UNK        -0.0894 
     13 C13        18.8583  -30.4066  -45.2928 C.ar      10 UNK        -0.0745 
     14 C14        17.5937  -29.8358  -45.4751 C.ar      10 UNK        -0.0972 
     15 C15        19.8505  -30.5112  -46.4508 C.3       10 UNK         0.0209 
     16 S16        19.8665  -29.0439  -47.5430 S.3       10 UNK        -0.2568 
     17 C17        21.5002  -28.2945  -47.2076 C.3       10 UNK        -0.0983 
     18 CA         21.4904  -27.1538  -46.1538 C.3       3 UNK         0.0876 
     19 N          20.4765  -26.1422  -46.4587 N.am      3 UNK        -0.4424 
     20 C          20.7117  -24.8569  -46.7460 C.2       2 UNK         0.4918 
     21 O          21.8358  -24.3570  -46.7979 O.2       2 UNK        -0.4875 
     22 CA         19.4801  -23.9646  -47.0103 C.3       2 UNK         0.0481 
     23 CB         19.2442  -23.8223  -48.5224 C.3       2 UNK        -0.1831 
     24 N          18.2369  -24.4179  -46.3678 N.am      2 UNK        -0.4498 
     25 C          18.0738  -24.5834  -45.0471 C.2       1 UNK         0.5027 
     26 O          18.9842  -24.4193  -44.2300 O.2       1 UNK        -0.4969 
     27 C          21.3735  -27.6837  -44.7083 C.2       3 UNK         0.5005 
     28 O          22.0024  -28.6986  -44.3998 O.2       3 UNK        -0.5279 
     29 N          20.6088  -27.0105  -43.8297 N.am      4 UNK        -0.4463 
     30 CA         20.3847  -27.4315  -42.4395 C.3       4 UNK         0.0283 
     31 CB         19.0668  -26.8461  -41.9006 C.3       4 UNK        -0.1875 
     32 C          21.5800  -27.1389  -41.5094 C.2       4 UNK         0.4949 
     33 O          21.4315  -26.4452  -40.5015 O.2       4 UNK        -0.5039 
     34 N          22.7513  -27.6730  -41.8655 N.am      5 UNK        -0.4663 
     35 CA         23.9511  -27.6914  -41.0332 C.3       5 UNK         0.0242 
     36 CB         25.1793  -27.8629  -41.9420 C.3       5 UNK        -0.1982 
     37 C          23.8714  -28.8500  -40.0299 C.2       5 UNK         0.5017 
     38 O          23.3111  -29.8985  -40.3566 O.2       5 UNK        -0.5012 
     39 N          24.4973  -28.6842  -38.8569 N.am      6 UNK        -0.4439 
     40 CA         24.5804  -29.7157  -37.8131 C.3       6 UNK         0.0297 
     41 CB         25.2672  -29.1356  -36.5667 C.3       6 UNK        -0.2006 
     42 C          25.2930  -31.0013  -38.2743 C.2       6 UNK         0.4892 
     43 O          24.9119  -32.0915  -37.8498 O.2       6 UNK        -0.5089 
     44 N          26.2790  -30.8522  -39.1699 N.am      7 UNK        -0.4243 
     45 CA         26.9860  -31.9547  -39.8243 C.3       7 UNK         0.0196 
     46 CB         28.2477  -31.4034  -40.5084 C.3       7 UNK        -0.2007 
     47 C          26.1202  -32.7257  -40.8392 C.2       7 UNK         0.5020 
     48 O          26.4225  -33.8868  -41.1154 O.2       7 UNK        -0.5147 
     49 N          25.0779  -32.0811  -41.3830 N.am      8 UNK        -0.4734 
     50 CA         24.1308  -32.6904  -42.3164 C.3       8 UNK         0.0238 
     51 CB         23.6205  -31.6331  -43.3126 C.3       8 UNK        -0.1912 
     52 C          22.9633  -33.3417  -41.5642 C.2       8 UNK         0.5038 
     53 O          22.6372  -34.4961  -41.8447 O.2       8 UNK        -0.5046 
     54 N          22.3528  -32.5919  -40.6372 N.am      9 UNK        -0.4200 
     55 CA         21.1697  -33.0243  -39.8776 C.3       9 UNK         0.0839 
     56 C          21.4748  -33.9888  -38.6989 C.2       9 UNK         0.5513 
     57 N          22.6938  -34.0477  -38.1781 N.am      9 UNK        -0.7519 
     58 O          20.5840  -34.7074  -38.2530 O.2       9 UNK        -0.4960 
     59 C59        20.2969  -31.8302  -39.4067 C.3       10 UNK        -0.0876 
     60 S60        19.8774  -30.6589  -40.7416 S.3       10 UNK        -0.2414 
     61 C61        18.6063  -31.5786  -41.6594 C.3       10 UNK         0.0169 
     62 H62        15.1299  -22.9796  -40.9291 H         1 UNK         0.0903 
     63 H63        16.2007  -24.3564  -40.6593 H         1 UNK         0.0903 
     64 H64        16.8713  -22.7286  -40.7758 H         1 UNK         0.0903 
     65 H65        16.5158  -25.5526  -42.5236 H         1 UNK         0.3096 
     66 H66        15.9252  -24.5853  -45.1497 H         1 UNK         0.1121 
     67 H67        16.4816  -26.7988  -45.9218 H         1 UNK         0.0849 
     68 H68        17.5067  -27.1351  -44.5587 H         1 UNK         0.0849 
     69 H69        14.5411  -29.7575  -44.1713 H         1 UNK         0.0865 
     70 H70        15.0603  -29.1352  -45.7137 H         1 UNK         0.0865 
     71 H71        16.3038  -30.2774  -42.3675 H         1 UNK         0.1346 
     72 H72        20.1496  -31.4099  -43.8925 H         1 UNK         0.1412 
     73 H73        17.3181  -29.4393  -46.4424 H         1 UNK         0.1426 
     74 H74        19.5806  -31.3808  -47.0509 H         1 UNK         0.0716 
     75 H75        20.8555  -30.7036  -46.0728 H         1 UNK         0.0716 
     76 H76        22.2264  -29.0695  -46.9563 H         1 UNK         0.0695 
     77 H77        21.8518  -27.8830  -48.1548 H         1 UNK         0.0695 
     78 H78        22.4792  -26.6916  -46.1868 H         1 UNK         0.0983 
     79 H79        19.5233  -26.4731  -46.4713 H         1 UNK         0.3095 
     80 H80        19.7088  -22.9753  -46.6089 H         1 UNK         0.0454 
     81 H81        20.1412  -23.4577  -49.0252 H         1 UNK         0.0851 
     82 H82        18.9795  -24.7756  -48.9818 H         1 UNK         0.0851 
     83 H83        18.4463  -23.1112  -48.7365 H         1 UNK         0.0851 
     84 H84        17.4526  -24.5867  -46.9822 H         1 UNK         0.2976 
     85 H85        20.1817  -26.1345  -44.1107 H         1 UNK         0.3116 
     86 H86        20.2620  -28.5136  -42.4513 H         1 UNK         0.0646 
     87 H87        18.9063  -27.1416  -40.8628 H         1 UNK         0.0847 
     88 H88        18.2111  -27.2190  -42.4583 H         1 UNK         0.0847 
     89 H89        19.0617  -25.7567  -41.9332 H         1 UNK         0.0847 
     90 H90        22.7555  -28.2500  -42.7030 H         1 UNK         0.3040 
     91 H91        24.0328  -26.7462  -40.4918 H         1 UNK         0.1015 
     92 H92        25.2507  -27.0510  -42.6661 H         1 UNK         0.0786 
     93 H93        25.1443  -28.8018  -42.4970 H         1 UNK         0.0786 
     94 H94        26.1029  -27.8595  -41.3617 H         1 UNK         0.0786 
     95 H95        24.9468  -27.8006  -38.6612 H         1 UNK         0.3172 
     96 H96        23.5587  -29.9905  -37.5421 H         1 UNK         0.0595 
     97 H97        24.7182  -28.2808  -36.1712 H         1 UNK         0.0839 
     98 H98        26.2874  -28.8129  -36.7782 H         1 UNK         0.0839 
     99 H99        25.3201  -29.8794  -35.7701 H         1 UNK         0.0839 
    100 H100       26.5288  -29.9166  -39.4543 H         1 UNK         0.2998 
    101 H101       27.2954  -32.6643  -39.0536 H         1 UNK         0.0822 
    102 H102       28.9104  -30.9199  -39.7904 H         1 UNK         0.0787 
    103 H103       28.8164  -32.2050  -40.9821 H         1 UNK         0.0787 
    104 H104       28.0021  -30.6764  -41.2839 H         1 UNK         0.0787 
    105 H105       24.8453  -31.1539  -41.0495 H         1 UNK         0.3055 
    106 H106       24.6354  -33.4710  -42.8908 H         1 UNK         0.1106 
    107 H107       23.0711  -30.8302  -42.8199 H         1 UNK         0.0828 
    108 H108       24.4418  -31.1811  -43.8684 H         1 UNK         0.0828 
    109 H109       22.9449  -32.0808  -44.0424 H         1 UNK         0.0828 
    110 H110       22.6657  -31.6363  -40.4839 H         1 UNK         0.2931 
    111 H111       20.5523  -33.6064  -40.5635 H         1 UNK         0.0412 
    112 H112       22.8695  -34.6850  -37.4180 H         1 UNK         0.3472 
    113 H113       23.4240  -33.4090  -38.4688 H         1 UNK         0.3472 
    114 H114       20.8209  -31.2688  -38.6308 H         1 UNK         0.0970 
    115 H115       19.3701  -32.1849  -38.9517 H         1 UNK         0.0970 
    116 H116       17.7178  -31.6774  -41.0341 H         1 UNK         0.0612 
    117 H117       18.9572  -32.5907  -41.8611 H         1 UNK         0.0612 
@<TRIPOS>BOND
     1    1    2 1    
     2    1   62 1    
     3    1   63 1    
     4    1   64 1    
     5    2    3 2    
     6    2    4 am   BACKBONE|DICT|INTERRES
     7    4    5 1    
     8    4   65 1    
     9    5    6 1    
    10    5   25 1    
    11    5   66 1    
    12    6    7 1    
    13    6   67 1    
    14    6   68 1    
    15    7    8 1    
    16    8    9 1    
    17    8   69 1    
    18    8   70 1    
    19    9   10 ar   
    20    9   14 ar   
    21   10   11 ar   
    22   10   71 1    
    23   11   12 ar   
    24   11   61 1    
    25   12   13 ar   
    26   12   72 1    
    27   13   14 ar   
    28   13   15 1    
    29   14   73 1    
    30   15   16 1    
    31   15   74 1    
    32   15   75 1    
    33   16   17 1    
    34   17   18 1    
    35   17   76 1    
    36   17   77 1    
    37   18   19 1    
    38   18   27 1    
    39   18   78 1    
    40   19   20 am   BACKBONE|DICT|INTERRES
    41   19   79 1    
    42   20   21 2    
    43   20   22 1    
    44   22   23 1    
    45   22   24 1    
    46   22   80 1    
    47   23   81 1    
    48   23   82 1    
    49   23   83 1    
    50   24   25 am   BACKBONE|DICT|INTERRES
    51   24   84 1    
    52   25   26 2    
    53   27   28 2    
    54   27   29 am   BACKBONE|DICT|INTERRES
    55   29   30 1    
    56   29   85 1    
    57   30   31 1    
    58   30   32 1    
    59   30   86 1    
    60   31   87 1    
    61   31   88 1    
    62   31   89 1    
    63   32   33 2    
    64   32   34 am   BACKBONE|DICT|INTERRES
    65   34   35 1    
    66   34   90 1    
    67   35   36 1    
    68   35   37 1    
    69   35   91 1    
    70   36   92 1    
    71   36   93 1    
    72   36   94 1    
    73   37   38 2    
    74   37   39 am   BACKBONE|DICT|INTERRES
    75   39   40 1    
    76   39   95 1    
    77   40   41 1    
    78   40   42 1    
    79   40   96 1    
    80   41   97 1    
    81   41   98 1    
    82   41   99 1    
    83   42   43 2    
    84   42   44 am   BACKBONE|DICT|INTERRES
    85   44   45 1    
    86   44  100 1    
    87   45   46 1    
    88   45   47 1    
    89   45  101 1    
    90   46  102 1    
    91   46  103 1    
    92   46  104 1    
    93   47   48 2    
    94   47   49 am   BACKBONE|DICT|INTERRES
    95   49   50 1    
    96   49  105 1    
    97   50   51 1    
    98   50   52 1    
    99   50  106 1    
   100   51  107 1    
   101   51  108 1    
   102   51  109 1    
   103   52   53 2    
   104   52   54 am   BACKBONE|DICT|INTERRES
   105   54   55 1    
   106   54  110 1    
   107   55   56 1    
   108   55   59 1    
   109   55  111 1    
   110   56   57 am   BACKBONE|DICT|INTERRES
   111   56   58 2    
   112   57  112 1    
   113   57  113 1    
   114   59   60 1    
   115   59  114 1    
   116   59  115 1    
   117   60   61 1    
   118   61  116 1    
   119   61  117 1    
@<TRIPOS>SUBSTRUCTURE
     1 UNK         1 GROUP             0       ****    0 ROOT    
