@<TRIPOS>MOLECULE
3R8
117   119    1
SMALL
USER_CHARGES


@<TRIPOS>ATOM
      1 CA         15.2721  -23.4029  -44.1397 C.3       0 UNK        -0.2013 
      2 C          16.2624  -24.5529  -44.2388 C.2       0 UNK         0.4866 
      3 O          17.1395  -24.5361  -45.1026 O.2       0 UNK        -0.5176 
      4 N          16.1483  -25.5462  -43.3484 N.am      1 UNK        -0.4884 
      5 CA         16.9637  -26.7712  -43.2996 C.3       1 UNK         0.0853 
      6 C6         16.1949  -27.9272  -42.6078 C.3       10 UNK        -0.0849 
      7 S7         14.6972  -28.3701  -43.5572 S.3       10 UNK        -0.2776 
      8 C8         14.9535  -30.1380  -43.9326 C.3       10 UNK         0.0316 
      9 C9         16.3019  -30.4549  -44.5746 C.ar      10 UNK        -0.0863 
     10 C10        17.0820  -31.4917  -44.0536 C.ar      10 UNK        -0.1009 
     11 C11        18.3099  -31.8216  -44.6329 C.ar      10 UNK        -0.0712 
     12 C12        18.7602  -31.1031  -45.7438 C.ar      10 UNK        -0.0894 
     13 C13        17.9969  -30.0570  -46.2712 C.ar      10 UNK        -0.0745 
     14 C14        16.7630  -29.7449  -45.6897 C.ar      10 UNK        -0.0972 
     15 C15        18.4933  -29.2812  -47.4839 C.3       10 UNK         0.0209 
     16 S16        19.3168  -27.7247  -47.0180 S.3       10 UNK        -0.2568 
     17 C17        20.9230  -28.3255  -46.3891 C.3       10 UNK        -0.0983 
     18 CA         21.7609  -27.2028  -45.7260 C.3       3 UNK         0.0876 
     19 N          21.0075  -26.5514  -44.6528 N.am      3 UNK        -0.4424 
     20 C          21.4155  -25.5692  -43.8384 C.2       2 UNK         0.4918 
     21 O          22.5352  -25.0580  -43.8916 O.2       2 UNK        -0.4875 
     22 CA         20.3959  -25.0607  -42.8003 C.3       2 UNK         0.0481 
     23 CB         20.4496  -23.5294  -42.6623 C.3       2 UNK        -0.1831 
     24 N          19.0273  -25.4547  -43.1447 N.am      2 UNK        -0.4498 
     25 C          18.3631  -26.5230  -42.6865 C.2       1 UNK         0.5027 
     26 O          18.8207  -27.2926  -41.8415 O.2       1 UNK        -0.4969 
     27 C          23.0956  -27.7598  -45.1937 C.2       3 UNK         0.5005 
     28 O          23.0724  -28.6015  -44.2954 O.2       3 UNK        -0.5279 
     29 N          24.2233  -27.2413  -45.7049 N.am      4 UNK        -0.4463 
     30 CA         25.5987  -27.5456  -45.2760 C.3       4 UNK         0.0283 
     31 CB         25.9875  -28.9832  -45.6836 C.3       4 UNK        -0.1875 
     32 C          25.8506  -27.2635  -43.7768 C.2       4 UNK         0.4949 
     33 O          26.5676  -28.0204  -43.1215 O.2       4 UNK        -0.5039 
     34 N          25.2309  -26.1879  -43.2641 N.am      5 UNK        -0.4663 
     35 CA         25.1869  -25.7632  -41.8564 C.3       5 UNK         0.0242 
     36 CB         26.5963  -25.4451  -41.3114 C.3       5 UNK        -0.1982 
     37 C          24.3947  -26.7310  -40.9526 C.2       5 UNK         0.5017 
     38 O          24.6383  -26.7789  -39.7454 O.2       5 UNK        -0.5012 
     39 N          23.4511  -27.4695  -41.5542 N.am      6 UNK        -0.4439 
     40 CA         22.5765  -28.4945  -40.9835 C.3       6 UNK         0.0297 
     41 CB         21.6972  -27.9601  -39.8338 C.3       6 UNK        -0.2006 
     42 C          23.3473  -29.7615  -40.5913 C.2       6 UNK         0.4892 
     43 O          23.1759  -30.7917  -41.2424 O.2       6 UNK        -0.5089 
     44 N          24.1695  -29.6684  -39.5358 N.am      7 UNK        -0.4243 
     45 CA         24.9466  -30.7517  -38.9231 C.3       7 UNK         0.0196 
     46 CB         26.1427  -31.1285  -39.8272 C.3       7 UNK        -0.2007 
     47 C          24.0397  -31.9407  -38.5476 C.2       7 UNK         0.5020 
     48 O          23.2438  -31.8178  -37.6154 O.2       7 UNK        -0.5147 
     49 N          24.1287  -33.0415  -39.3066 N.am      8 UNK        -0.4734 
     50 CA         23.2760  -34.2285  -39.1854 C.3       8 UNK         0.0238 
     51 CB         23.8077  -35.3269  -40.1203 C.3       8 UNK        -0.1912 
     52 C          21.7814  -33.9670  -39.4595 C.2       8 UNK         0.5038 
     53 O          20.9482  -34.7237  -38.9588 O.2       8 UNK        -0.5046 
     54 N          21.4631  -32.9118  -40.2230 N.am      9 UNK        -0.4200 
     55 CA         20.0889  -32.4401  -40.4594 C.3       9 UNK         0.0839 
     56 C          19.4586  -31.6989  -39.2431 C.2       9 UNK         0.5513 
     57 N          20.2041  -31.3667  -38.1938 N.am      9 UNK        -0.7519 
     58 O          18.2615  -31.4256  -39.2504 O.2       9 UNK        -0.4960 
     59 C59        19.9701  -31.5770  -41.7443 C.3       10 UNK        -0.0876 
     60 S60        20.6454  -32.3893  -43.2346 S.3       10 UNK        -0.2414 
     61 C61        19.1385  -32.9695  -44.0726 C.3       10 UNK         0.0169 
     62 H62        14.7152  -23.3075  -45.0714 H         1 UNK         0.0903 
     63 H63        14.5565  -23.5491  -43.3307 H         1 UNK         0.0903 
     64 H64        15.8006  -22.4669  -43.9609 H         1 UNK         0.0903 
     65 H65        15.4183  -25.4942  -42.6517 H         1 UNK         0.3096 
     66 H66        17.1563  -27.0858  -44.3284 H         1 UNK         0.1121 
     67 H67        15.9019  -27.6448  -41.5951 H         1 UNK         0.0849 
     68 H68        16.8279  -28.8098  -42.5001 H         1 UNK         0.0849 
     69 H69        14.8263  -30.7019  -43.0071 H         1 UNK         0.0865 
     70 H70        14.1605  -30.4722  -44.6028 H         1 UNK         0.0865 
     71 H71        16.7300  -32.0513  -43.1975 H         1 UNK         0.1346 
     72 H72        19.7102  -31.3583  -46.1933 H         1 UNK         0.1412 
     73 H73        16.1633  -28.9445  -46.1018 H         1 UNK         0.1426 
     74 H74        17.6493  -29.0479  -48.1348 H         1 UNK         0.0716 
     75 H75        19.1749  -29.8903  -48.0799 H         1 UNK         0.0716 
     76 H76        21.4710  -28.7727  -47.2207 H         1 UNK         0.0695 
     77 H77        20.7375  -29.1273  -45.6722 H         1 UNK         0.0695 
     78 H78        21.9722  -26.4407  -46.4788 H         1 UNK         0.0983 
     79 H79        20.0694  -26.8979  -44.5271 H         1 UNK         0.3095 
     80 H80        20.6740  -25.4942  -41.8388 H         1 UNK         0.0454 
     81 H81        21.4372  -23.1970  -42.3396 H         1 UNK         0.0851 
     82 H82        19.7340  -23.1733  -41.9212 H         1 UNK         0.0851 
     83 H83        20.2297  -23.0316  -43.6074 H         1 UNK         0.0851 
     84 H84        18.5641  -24.9080  -43.8672 H         1 UNK         0.2976 
     85 H85        24.1414  -26.5300  -46.4194 H         1 UNK         0.3116 
     86 H86        26.2494  -26.8620  -45.8234 H         1 UNK         0.0646 
     87 H87        25.4162  -29.7289  -45.1295 H         1 UNK         0.0847 
     88 H88        25.8206  -29.1545  -46.7468 H         1 UNK         0.0847 
     89 H89        27.0436  -29.1738  -45.4886 H         1 UNK         0.0847 
     90 H90        24.6186  -25.6615  -43.8786 H         1 UNK         0.3040 
     91 H91        24.6195  -24.8310  -41.8478 H         1 UNK         0.1015 
     92 H92        26.5364  -24.9640  -40.3344 H         1 UNK         0.0786 
     93 H93        27.1343  -24.7659  -41.9726 H         1 UNK         0.0786 
     94 H94        27.1991  -26.3453  -41.1893 H         1 UNK         0.0786 
     95 H95        23.4165  -27.4286  -42.5671 H         1 UNK         0.3172 
     96 H96        21.9022  -28.7723  -41.7947 H         1 UNK         0.0595 
     97 H97        22.2796  -27.6386  -38.9707 H         1 UNK         0.0839 
     98 H98        21.0080  -28.7314  -39.4875 H         1 UNK         0.0839 
     99 H99        21.0914  -27.1155  -40.1588 H         1 UNK         0.0839 
    100 H100       24.2672  -28.7515  -39.1133 H         1 UNK         0.2998 
    101 H101       25.3470  -30.3620  -37.9860 H         1 UNK         0.0822 
    102 H102       26.7404  -31.9243  -39.3806 H         1 UNK         0.0787 
    103 H103       26.8045  -30.2737  -39.9682 H         1 UNK         0.0787 
    104 H104       25.8291  -31.4600  -40.8178 H         1 UNK         0.0787 
    105 H105       24.7812  -33.0288  -40.0775 H         1 UNK         0.3055 
    106 H106       23.3527  -34.5854  -38.1559 H         1 UNK         0.1106 
    107 H107       24.8376  -35.5911  -39.8794 H         1 UNK         0.0828 
    108 H108       23.2131  -36.2373  -40.0310 H         1 UNK         0.0828 
    109 H109       23.7738  -35.0177  -41.1659 H         1 UNK         0.0828 
    110 H110       22.2024  -32.3254  -40.6013 H         1 UNK         0.2931 
    111 H111       19.4698  -33.3250  -40.6197 H         1 UNK         0.0412 
    112 H112       21.1889  -31.5985  -38.1534 H         1 UNK         0.3472 
    113 H113       19.7706  -30.8945  -37.4164 H         1 UNK         0.3472 
    114 H114       18.9294  -31.3039  -41.9227 H         1 UNK         0.0970 
    115 H115       20.4963  -30.6320  -41.6141 H         1 UNK         0.0970 
    116 H116       18.5533  -33.5746  -43.3782 H         1 UNK         0.0612 
    117 H117       19.4261  -33.6332  -44.8891 H         1 UNK         0.0612 
@<TRIPOS>BOND
     1    1    2 1    
     2    1   62 1    
     3    1   63 1    
     4    1   64 1    
     5    2    3 2    
     6    2    4 am   BACKBONE|DICT|INTERRES
     7    4    5 1    
     8    4   65 1    
     9    5    6 1    
    10    5   25 1    
    11    5   66 1    
    12    6    7 1    
    13    6   67 1    
    14    6   68 1    
    15    7    8 1    
    16    8    9 1    
    17    8   69 1    
    18    8   70 1    
    19    9   10 ar   
    20    9   14 ar   
    21   10   11 ar   
    22   10   71 1    
    23   11   12 ar   
    24   11   61 1    
    25   12   13 ar   
    26   12   72 1    
    27   13   14 ar   
    28   13   15 1    
    29   14   73 1    
    30   15   16 1    
    31   15   74 1    
    32   15   75 1    
    33   16   17 1    
    34   17   18 1    
    35   17   76 1    
    36   17   77 1    
    37   18   19 1    
    38   18   27 1    
    39   18   78 1    
    40   19   20 am   BACKBONE|DICT|INTERRES
    41   19   79 1    
    42   20   21 2    
    43   20   22 1    
    44   22   23 1    
    45   22   24 1    
    46   22   80 1    
    47   23   81 1    
    48   23   82 1    
    49   23   83 1    
    50   24   25 am   BACKBONE|DICT|INTERRES
    51   24   84 1    
    52   25   26 2    
    53   27   28 2    
    54   27   29 am   BACKBONE|DICT|INTERRES
    55   29   30 1    
    56   29   85 1    
    57   30   31 1    
    58   30   32 1    
    59   30   86 1    
    60   31   87 1    
    61   31   88 1    
    62   31   89 1    
    63   32   33 2    
    64   32   34 am   BACKBONE|DICT|INTERRES
    65   34   35 1    
    66   34   90 1    
    67   35   36 1    
    68   35   37 1    
    69   35   91 1    
    70   36   92 1    
    71   36   93 1    
    72   36   94 1    
    73   37   38 2    
    74   37   39 am   BACKBONE|DICT|INTERRES
    75   39   40 1    
    76   39   95 1    
    77   40   41 1    
    78   40   42 1    
    79   40   96 1    
    80   41   97 1    
    81   41   98 1    
    82   41   99 1    
    83   42   43 2    
    84   42   44 am   BACKBONE|DICT|INTERRES
    85   44   45 1    
    86   44  100 1    
    87   45   46 1    
    88   45   47 1    
    89   45  101 1    
    90   46  102 1    
    91   46  103 1    
    92   46  104 1    
    93   47   48 2    
    94   47   49 am   BACKBONE|DICT|INTERRES
    95   49   50 1    
    96   49  105 1    
    97   50   51 1    
    98   50   52 1    
    99   50  106 1    
   100   51  107 1    
   101   51  108 1    
   102   51  109 1    
   103   52   53 2    
   104   52   54 am   BACKBONE|DICT|INTERRES
   105   54   55 1    
   106   54  110 1    
   107   55   56 1    
   108   55   59 1    
   109   55  111 1    
   110   56   57 am   BACKBONE|DICT|INTERRES
   111   56   58 2    
   112   57  112 1    
   113   57  113 1    
   114   59   60 1    
   115   59  114 1    
   116   59  115 1    
   117   60   61 1    
   118   61  116 1    
   119   61  117 1    
@<TRIPOS>SUBSTRUCTURE
     1 UNK         1 GROUP             0       ****    0 ROOT    
