@<TRIPOS>MOLECULE
3R8
117   119    1
SMALL
USER_CHARGES


@<TRIPOS>ATOM
      1 CA         19.5226  -28.4708  -38.8731 C.3       0 UNK        -0.2013 
      2 C          19.3472  -27.4209  -39.9567 C.2       0 UNK         0.4866 
      3 O          19.4259  -26.2241  -39.6774 O.2       0 UNK        -0.5176 
      4 N          19.0885  -27.8658  -41.1899 N.am      1 UNK        -0.4884 
      5 CA         18.8791  -26.9991  -42.3550 C.3       1 UNK         0.0853 
      6 C6         18.1094  -27.7341  -43.4805 C.3       10 UNK        -0.0849 
      7 S7         16.4319  -28.2393  -42.9758 S.3       10 UNK        -0.2776 
      8 C8         15.8458  -29.0819  -44.4856 C.3       10 UNK         0.0316 
      9 C9         16.7505  -30.2422  -44.8796 C.ar      10 UNK        -0.0863 
     10 C10        16.8818  -31.3431  -44.0314 C.ar      10 UNK        -0.1009 
     11 C11        17.7563  -32.3937  -44.3421 C.ar      10 UNK        -0.0712 
     12 C12        18.4849  -32.3316  -45.5368 C.ar      10 UNK        -0.0894 
     13 C13        18.3603  -31.2363  -46.3986 C.ar      10 UNK        -0.0745 
     14 C14        17.4811  -30.2006  -46.0689 C.ar      10 UNK        -0.0972 
     15 C15        19.1824  -31.1591  -47.6808 C.3       10 UNK         0.0209 
     16 S16        20.8767  -30.5423  -47.3909 S.3       10 UNK        -0.2568 
     17 C17        20.5475  -28.9383  -46.5839 C.3       10 UNK        -0.0983 
     18 CA         21.6603  -27.8569  -46.6360 C.3       3 UNK         0.0876 
     19 N          21.2125  -26.7056  -45.8415 N.am      3 UNK        -0.4424 
     20 C          21.8889  -25.6106  -45.4664 C.2       2 UNK         0.4918 
     21 O          23.0259  -25.3300  -45.8453 O.2       2 UNK        -0.4875 
     22 CA         21.1977  -24.7052  -44.4260 C.3       2 UNK         0.0481 
     23 CB         20.6655  -23.4307  -45.0989 C.3       2 UNK        -0.1831 
     24 N          20.1061  -25.3518  -43.6799 N.am      2 UNK        -0.4498 
     25 C          20.2117  -26.4437  -42.9032 C.2       1 UNK         0.5027 
     26 O          21.2728  -27.0465  -42.7097 O.2       1 UNK        -0.4969 
     27 C          23.0537  -28.3907  -46.2171 C.2       3 UNK         0.5005 
     28 O          23.8382  -28.7737  -47.0874 O.2       3 UNK        -0.5279 
     29 N          23.3633  -28.3427  -44.9134 N.am      4 UNK        -0.4463 
     30 CA         24.6992  -28.5854  -44.3692 C.3       4 UNK         0.0283 
     31 CB         24.8498  -30.0575  -43.9421 C.3       4 UNK        -0.1875 
     32 C          24.9728  -27.5861  -43.2374 C.2       4 UNK         0.4949 
     33 O          25.3967  -27.9878  -42.1517 O.2       4 UNK        -0.5039 
     34 N          24.6851  -26.3020  -43.5031 N.am      5 UNK        -0.4663 
     35 CA         24.7979  -25.1231  -42.6286 C.3       5 UNK         0.0242 
     36 CB         26.2636  -24.8558  -42.2316 C.3       5 UNK        -0.1982 
     37 C          23.8775  -25.1592  -41.3943 C.2       5 UNK         0.5017 
     38 O          23.0538  -24.2604  -41.2244 O.2       5 UNK        -0.5012 
     39 N          24.0421  -26.1937  -40.5677 N.am      6 UNK        -0.4439 
     40 CA         23.2429  -26.5001  -39.3830 C.3       6 UNK         0.0297 
     41 CB         23.6973  -25.6205  -38.2016 C.3       6 UNK        -0.2006 
     42 C          23.2800  -27.9965  -39.0145 C.2       6 UNK         0.4892 
     43 O          22.6662  -28.3701  -38.0151 O.2       6 UNK        -0.5089 
     44 N          23.9953  -28.8327  -39.7841 N.am      7 UNK        -0.4243 
     45 CA         24.1827  -30.2586  -39.5003 C.3       7 UNK         0.0196 
     46 CB         25.6135  -30.6517  -39.9065 C.3       7 UNK        -0.2007 
     47 C          23.1616  -31.1622  -40.2123 C.2       7 UNK         0.5020 
     48 O          23.1385  -32.3624  -39.9371 O.2       7 UNK        -0.5147 
     49 N          22.3590  -30.6063  -41.1307 N.am      8 UNK        -0.4734 
     50 CA         21.3978  -31.3526  -41.9443 C.3       8 UNK         0.0238 
     51 CB         21.0340  -30.5363  -43.1934 C.3       8 UNK        -0.1912 
     52 C          20.1521  -31.7396  -41.1331 C.2       8 UNK         0.5038 
     53 O          19.2091  -30.9492  -41.0664 O.2       8 UNK        -0.5046 
     54 N          20.2097  -32.9395  -40.5371 N.am      9 UNK        -0.4200 
     55 CA         19.1560  -33.6608  -39.7993 C.3       9 UNK         0.0839 
     56 C          18.4426  -32.8917  -38.6449 C.2       9 UNK         0.5513 
     57 N          19.0679  -31.8824  -38.0525 N.am      9 UNK        -0.7519 
     58 O          17.3374  -33.2442  -38.2400 O.2       9 UNK        -0.4960 
     59 C59        18.2148  -34.4877  -40.7273 C.3       10 UNK        -0.0876 
     60 S60        17.1123  -33.5079  -41.8004 S.3       10 UNK        -0.2414 
     61 C61        17.9813  -33.5883  -43.4097 C.3       10 UNK         0.0169 
     62 H62        19.8442  -28.0147  -37.9370 H         1 UNK         0.0903 
     63 H63        18.5830  -28.9935  -38.6960 H         1 UNK         0.0903 
     64 H64        20.2742  -29.2025  -39.1669 H         1 UNK         0.0903 
     65 H65        19.0274  -28.8666  -41.3527 H         1 UNK         0.3096 
     66 H66        18.2784  -26.1450  -42.0331 H         1 UNK         0.1121 
     67 H67        18.6610  -28.6210  -43.7948 H         1 UNK         0.0849 
     68 H68        18.0046  -27.1042  -44.3659 H         1 UNK         0.0849 
     69 H69        14.8358  -29.4570  -44.3144 H         1 UNK         0.0865 
     70 H70        15.7691  -28.3535  -45.2944 H         1 UNK         0.0865 
     71 H71        16.3160  -31.3444  -43.1116 H         1 UNK         0.1346 
     72 H72        19.1725  -33.1281  -45.7872 H         1 UNK         0.1412 
     73 H73        17.3836  -29.3495  -46.7287 H         1 UNK         0.1426 
     74 H74        19.2408  -32.1477  -48.1384 H         1 UNK         0.0716 
     75 H75        18.6887  -30.5165  -48.4115 H         1 UNK         0.0716 
     76 H76        20.2928  -29.1562  -45.5465 H         1 UNK         0.0695 
     77 H77        19.6443  -28.5222  -47.0323 H         1 UNK         0.0695 
     78 H78        21.7552  -27.5128  -47.6677 H         1 UNK         0.0983 
     79 H79        20.2792  -26.7884  -45.4718 H         1 UNK         0.3095 
     80 H80        21.9573  -24.4117  -43.7013 H         1 UNK         0.0454 
     81 H81        19.8774  -23.6513  -45.8199 H         1 UNK         0.0851 
     82 H82        21.4607  -22.9108  -45.6355 H         1 UNK         0.0851 
     83 H83        20.2654  -22.7309  -44.3650 H         1 UNK         0.0851 
     84 H84        19.1958  -24.9254  -43.7835 H         1 UNK         0.2976 
     85 H85        22.6761  -27.9820  -44.2599 H         1 UNK         0.3116 
     86 H86        25.4503  -28.3791  -45.1346 H         1 UNK         0.0646 
     87 H87        24.6459  -30.7346  -44.7715 H         1 UNK         0.0847 
     88 H88        24.1766  -30.3137  -43.1268 H         1 UNK         0.0847 
     89 H89        25.8653  -30.2610  -43.6004 H         1 UNK         0.0847 
     90 H90        24.3077  -26.0988  -44.4238 H         1 UNK         0.3040 
     91 H91        24.4689  -24.2760  -43.2332 H         1 UNK         0.1015 
     92 H92        26.6889  -25.6689  -41.6427 H         1 UNK         0.0786 
     93 H93        26.3445  -23.9470  -41.6338 H         1 UNK         0.0786 
     94 H94        26.8913  -24.7197  -43.1123 H         1 UNK         0.0786 
     95 H95        24.7451  -26.8713  -40.8480 H         1 UNK         0.3172 
     96 H96        22.2011  -26.2667  -39.6092 H         1 UNK         0.0595 
     97 H97        24.7406  -25.8050  -37.9436 H         1 UNK         0.0839 
     98 H98        23.0994  -25.8173  -37.3108 H         1 UNK         0.0839 
     99 H99        23.5901  -24.5598  -38.4286 H         1 UNK         0.0839 
    100 H100       24.4693  -28.4939  -40.6154 H         1 UNK         0.2998 
    101 H101       24.0788  -30.4391  -38.4281 H         1 UNK         0.0822 
    102 H102       26.3543  -30.0541  -39.3749 H         1 UNK         0.0787 
    103 H103       25.8154  -31.6979  -39.6725 H         1 UNK         0.0787 
    104 H104       25.7818  -30.5185  -40.9757 H         1 UNK         0.0787 
    105 H105       22.4041  -29.6079  -41.2727 H         1 UNK         0.3055 
    106 H106       21.8727  -32.2725  -42.2941 H         1 UNK         0.1106 
    107 H107       20.6898  -29.5385  -42.9346 H         1 UNK         0.0828 
    108 H108       20.2344  -31.0173  -43.7557 H         1 UNK         0.0828 
    109 H109       21.8821  -30.4427  -43.8689 H         1 UNK         0.0828 
    110 H110       21.0960  -33.4242  -40.5797 H         1 UNK         0.2931 
    111 H111       19.7237  -34.4127  -39.2498 H         1 UNK         0.0412 
    112 H112       18.6171  -31.4008  -37.2911 H         1 UNK         0.3472 
    113 H113       19.9780  -31.5935  -38.3713 H         1 UNK         0.3472 
    114 H114       17.5870  -35.1458  -40.1241 H         1 UNK         0.0970 
    115 H115       18.8095  -35.1609  -41.3461 H         1 UNK         0.0970 
    116 H116       17.6791  -34.5033  -43.9206 H         1 UNK         0.0612 
    117 H117       19.0531  -33.6733  -43.2269 H         1 UNK         0.0612 
@<TRIPOS>BOND
     1    1    2 1    
     2    1   62 1    
     3    1   63 1    
     4    1   64 1    
     5    2    3 2    
     6    2    4 am   BACKBONE|DICT|INTERRES
     7    4    5 1    
     8    4   65 1    
     9    5    6 1    
    10    5   25 1    
    11    5   66 1    
    12    6    7 1    
    13    6   67 1    
    14    6   68 1    
    15    7    8 1    
    16    8    9 1    
    17    8   69 1    
    18    8   70 1    
    19    9   10 ar   
    20    9   14 ar   
    21   10   11 ar   
    22   10   71 1    
    23   11   12 ar   
    24   11   61 1    
    25   12   13 ar   
    26   12   72 1    
    27   13   14 ar   
    28   13   15 1    
    29   14   73 1    
    30   15   16 1    
    31   15   74 1    
    32   15   75 1    
    33   16   17 1    
    34   17   18 1    
    35   17   76 1    
    36   17   77 1    
    37   18   19 1    
    38   18   27 1    
    39   18   78 1    
    40   19   20 am   BACKBONE|DICT|INTERRES
    41   19   79 1    
    42   20   21 2    
    43   20   22 1    
    44   22   23 1    
    45   22   24 1    
    46   22   80 1    
    47   23   81 1    
    48   23   82 1    
    49   23   83 1    
    50   24   25 am   BACKBONE|DICT|INTERRES
    51   24   84 1    
    52   25   26 2    
    53   27   28 2    
    54   27   29 am   BACKBONE|DICT|INTERRES
    55   29   30 1    
    56   29   85 1    
    57   30   31 1    
    58   30   32 1    
    59   30   86 1    
    60   31   87 1    
    61   31   88 1    
    62   31   89 1    
    63   32   33 2    
    64   32   34 am   BACKBONE|DICT|INTERRES
    65   34   35 1    
    66   34   90 1    
    67   35   36 1    
    68   35   37 1    
    69   35   91 1    
    70   36   92 1    
    71   36   93 1    
    72   36   94 1    
    73   37   38 2    
    74   37   39 am   BACKBONE|DICT|INTERRES
    75   39   40 1    
    76   39   95 1    
    77   40   41 1    
    78   40   42 1    
    79   40   96 1    
    80   41   97 1    
    81   41   98 1    
    82   41   99 1    
    83   42   43 2    
    84   42   44 am   BACKBONE|DICT|INTERRES
    85   44   45 1    
    86   44  100 1    
    87   45   46 1    
    88   45   47 1    
    89   45  101 1    
    90   46  102 1    
    91   46  103 1    
    92   46  104 1    
    93   47   48 2    
    94   47   49 am   BACKBONE|DICT|INTERRES
    95   49   50 1    
    96   49  105 1    
    97   50   51 1    
    98   50   52 1    
    99   50  106 1    
   100   51  107 1    
   101   51  108 1    
   102   51  109 1    
   103   52   53 2    
   104   52   54 am   BACKBONE|DICT|INTERRES
   105   54   55 1    
   106   54  110 1    
   107   55   56 1    
   108   55   59 1    
   109   55  111 1    
   110   56   57 am   BACKBONE|DICT|INTERRES
   111   56   58 2    
   112   57  112 1    
   113   57  113 1    
   114   59   60 1    
   115   59  114 1    
   116   59  115 1    
   117   60   61 1    
   118   61  116 1    
   119   61  117 1    
@<TRIPOS>SUBSTRUCTURE
     1 UNK         1 GROUP             0       ****    0 ROOT    
