@<TRIPOS>MOLECULE
3R8
117   119    1
SMALL
USER_CHARGES


@<TRIPOS>ATOM
      1 CA         16.1105  -24.2731  -48.8144 C.3       0 UNK        -0.2013 
      2 C          15.0876  -24.1466  -47.6874 C.2       0 UNK         0.4866 
      3 O          14.1959  -23.3047  -47.7763 O.2       0 UNK        -0.5176 
      4 N          15.1547  -24.9565  -46.6207 N.am      1 UNK        -0.4884 
      5 CA         16.1979  -25.9432  -46.3178 C.3       1 UNK         0.0853 
      6 C6         15.7178  -26.9276  -45.2236 C.3       10 UNK        -0.0849 
      7 S7         16.6411  -28.5024  -45.2295 S.3       10 UNK        -0.2776 
      8 C8         15.8643  -29.3697  -43.8243 C.3       10 UNK         0.0316 
      9 C9         16.7337  -29.3064  -42.5761 C.ar      10 UNK        -0.0863 
     10 C10        17.3658  -30.4569  -42.0939 C.ar      10 UNK        -0.1009 
     11 C11        18.1850  -30.3976  -40.9614 C.ar      10 UNK        -0.0712 
     12 C12        18.3882  -29.1696  -40.3222 C.ar      10 UNK        -0.0894 
     13 C13        17.7641  -28.0119  -40.7983 C.ar      10 UNK        -0.0745 
     14 C14        16.9145  -28.0953  -41.9044 C.ar      10 UNK        -0.0972 
     15 C15        18.0335  -26.6584  -40.1553 C.3       10 UNK         0.0209 
     16 S16        18.7773  -25.4854  -41.3416 S.3       10 UNK        -0.2568 
     17 C17        20.3999  -26.2570  -41.6518 C.3       10 UNK        -0.0983 
     18 CA         20.4073  -27.2181  -42.8738 C.3       3 UNK         0.0876 
     19 N          20.0089  -26.6025  -44.1494 N.am      3 UNK        -0.4424 
     20 C          20.5853  -25.5854  -44.8032 C.2       2 UNK         0.4918 
     21 O          21.5995  -25.0091  -44.4095 O.2       2 UNK        -0.4875 
     22 CA         19.9765  -25.1784  -46.1581 C.3       2 UNK         0.0481 
     23 CB         20.9094  -25.6018  -47.3051 C.3       2 UNK        -0.1831 
     24 N          18.6432  -25.7402  -46.4020 N.am      2 UNK        -0.4498 
     25 C          17.5061  -25.2347  -45.9060 C.2       1 UNK         0.5027 
     26 O          17.4590  -24.2536  -45.1604 O.2       1 UNK        -0.4969 
     27 C          21.7351  -27.9992  -42.9209 C.2       3 UNK         0.5005 
     28 O          21.8649  -28.9655  -42.1744 O.2       3 UNK        -0.5279 
     29 N          22.7067  -27.5833  -43.7471 N.am      4 UNK        -0.4463 
     30 CA         24.0331  -28.1947  -43.9207 C.3       4 UNK         0.0283 
     31 CB         23.9002  -29.5330  -44.6734 C.3       4 UNK        -0.1875 
     32 C          24.7803  -28.3173  -42.5753 C.2       4 UNK         0.4949 
     33 O          25.1228  -29.4179  -42.1326 O.2       4 UNK        -0.5039 
     34 N          24.9077  -27.1621  -41.9045 N.am      5 UNK        -0.4663 
     35 CA         25.4343  -26.9555  -40.5464 C.3       5 UNK         0.0242 
     36 CB         26.9127  -27.3925  -40.4591 C.3       5 UNK        -0.1982 
     37 C          24.5830  -27.5889  -39.4245 C.2       5 UNK         0.5017 
     38 O          25.0305  -27.6019  -38.2772 O.2       5 UNK        -0.5012 
     39 N          23.3899  -28.1060  -39.7646 N.am      6 UNK        -0.4439 
     40 CA         22.4884  -28.9022  -38.9228 C.3       6 UNK         0.0297 
     41 CB         21.9079  -28.0616  -37.7663 C.3       6 UNK        -0.2006 
     42 C          23.1402  -30.2207  -38.4585 C.2       6 UNK         0.4892 
     43 O          22.8544  -30.6915  -37.3558 O.2       6 UNK        -0.5089 
     44 N          24.0185  -30.7771  -39.3047 N.am      7 UNK        -0.4243 
     45 CA         24.8100  -31.9717  -39.0221 C.3       7 UNK         0.0196 
     46 CB         26.2233  -31.5635  -38.5709 C.3       7 UNK        -0.2007 
     47 C          24.8614  -32.8951  -40.2412 C.2       7 UNK         0.5020 
     48 O          24.5626  -34.0822  -40.1097 O.2       7 UNK        -0.5147 
     49 N          25.2141  -32.3485  -41.4145 N.am      8 UNK        -0.4734 
     50 CA         25.3310  -33.1162  -42.6610 C.3       8 UNK         0.0238 
     51 CB         26.2925  -32.3934  -43.6176 C.3       8 UNK        -0.1912 
     52 C          23.9763  -33.4301  -43.3255 C.2       8 UNK         0.5038 
     53 O          23.9443  -34.2051  -44.2823 O.2       8 UNK        -0.5046 
     54 N          22.8875  -32.8549  -42.7991 N.am      9 UNK        -0.4200 
     55 CA         21.4969  -33.1806  -43.1445 C.3       9 UNK         0.0839 
     56 C          21.0243  -34.5968  -42.6978 C.2       9 UNK         0.5513 
     57 N          21.7420  -35.2980  -41.8265 N.am      9 UNK        -0.7519 
     58 O          19.9899  -35.0698  -43.1614 O.2       9 UNK        -0.4960 
     59 C59        20.5253  -32.0714  -42.6646 C.3       10 UNK        -0.0876 
     60 S60        20.6005  -31.7676  -40.8613 S.3       10 UNK        -0.2414 
     61 C61        18.8397  -31.6616  -40.4197 C.3       10 UNK         0.0169 
     62 H62        16.1843  -25.2990  -49.1730 H         1 UNK         0.0903 
     63 H63        15.8173  -23.6542  -49.6623 H         1 UNK         0.0903 
     64 H64        17.0945  -23.9378  -48.4886 H         1 UNK         0.0903 
     65 H65        14.4736  -24.8215  -45.8870 H         1 UNK         0.3096 
     66 H66        16.3786  -26.5195  -47.2272 H         1 UNK         0.1121 
     67 H67        14.6697  -27.1814  -45.3934 H         1 UNK         0.0849 
     68 H68        15.7542  -26.4651  -44.2367 H         1 UNK         0.0849 
     69 H69        14.8802  -28.9505  -43.6099 H         1 UNK         0.0865 
     70 H70        15.6911  -30.4073  -44.1140 H         1 UNK         0.0865 
     71 H71        17.2187  -31.4018  -42.5988 H         1 UNK         0.1346 
     72 H72        19.0429  -29.1177  -39.4630 H         1 UNK         0.1412 
     73 H73        16.4317  -27.1993  -42.2647 H         1 UNK         0.1426 
     74 H74        18.6859  -26.7571  -39.2861 H         1 UNK         0.0716 
     75 H75        17.0924  -26.2445  -39.7908 H         1 UNK         0.0716 
     76 H76        20.7005  -26.7850  -40.7444 H         1 UNK         0.0695 
     77 H77        21.1323  -25.4596  -41.7865 H         1 UNK         0.0695 
     78 H78        19.6540  -27.9853  -42.6994 H         1 UNK         0.0983 
     79 H79        19.1955  -27.0186  -44.5793 H         1 UNK         0.3095 
     80 H80        19.9058  -24.0886  -46.1679 H         1 UNK         0.0454 
     81 H81        20.5295  -25.2667  -48.2704 H         1 UNK         0.0851 
     82 H82        21.0332  -26.6846  -47.3493 H         1 UNK         0.0851 
     83 H83        21.9022  -25.1660  -47.1839 H         1 UNK         0.0851 
     84 H84        18.6005  -26.5577  -46.9951 H         1 UNK         0.2976 
     85 H85        22.5349  -26.7187  -44.2519 H         1 UNK         0.3116 
     86 H86        24.6124  -27.5158  -44.5483 H         1 UNK         0.0646 
     87 H87        23.2777  -29.4286  -45.5618 H         1 UNK         0.0847 
     88 H88        24.8746  -29.8824  -45.0106 H         1 UNK         0.0847 
     89 H89        23.4591  -30.3103  -44.0490 H         1 UNK         0.0847 
     90 H90        24.5545  -26.3284  -42.3554 H         1 UNK         0.3040 
     91 H91        25.3991  -25.8792  -40.3697 H         1 UNK         0.1015 
     92 H92        27.0229  -28.4745  -40.5368 H         1 UNK         0.0786 
     93 H93        27.3549  -27.0920  -39.5084 H         1 UNK         0.0786 
     94 H94        27.5094  -26.9364  -41.2490 H         1 UNK         0.0786 
     95 H95        23.1377  -28.0993  -40.7466 H         1 UNK         0.3172 
     96 H96        21.6523  -29.1909  -39.5598 H         1 UNK         0.0595 
     97 H97        22.6715  -27.7920  -37.0363 H         1 UNK         0.0839 
     98 H98        21.1331  -28.6150  -37.2344 H         1 UNK         0.0839 
     99 H99        21.4528  -27.1420  -38.1337 H         1 UNK         0.0839 
    100 H100       24.1737  -30.3241  -40.1968 H         1 UNK         0.2998 
    101 H101       24.3449  -32.5417  -38.2146 H         1 UNK         0.0822 
    102 H102       26.8406  -32.4412  -38.3745 H         1 UNK         0.0787 
    103 H103       26.7335  -30.9643  -39.3262 H         1 UNK         0.0787 
    104 H104       26.1884  -30.9783  -37.6517 H         1 UNK         0.0787 
    105 H105       25.4133  -31.3548  -41.4799 H         1 UNK         0.3055 
    106 H106       25.7784  -34.0853  -42.4275 H         1 UNK         0.1106 
    107 H107       26.3448  -32.8944  -44.5852 H         1 UNK         0.0828 
    108 H108       25.9892  -31.3648  -43.7943 H         1 UNK         0.0828 
    109 H109       27.3040  -32.3715  -43.2119 H         1 UNK         0.0828 
    110 H110       23.0055  -32.2328  -42.0133 H         1 UNK         0.2931 
    111 H111       21.4454  -33.1888  -44.2350 H         1 UNK         0.0412 
    112 H112       21.4255  -36.2140  -41.5503 H         1 UNK         0.3472 
    113 H113       22.5833  -34.9117  -41.4238 H         1 UNK         0.3472 
    114 H114       20.7587  -31.1356  -43.1731 H         1 UNK         0.0970 
    115 H115       19.5037  -32.3127  -42.9614 H         1 UNK         0.0970 
    116 H116       18.3217  -32.5535  -40.7757 H         1 UNK         0.0612 
    117 H117       18.7530  -31.6735  -39.3324 H         1 UNK         0.0612 
@<TRIPOS>BOND
     1    1    2 1    
     2    1   62 1    
     3    1   63 1    
     4    1   64 1    
     5    2    3 2    
     6    2    4 am   BACKBONE|DICT|INTERRES
     7    4    5 1    
     8    4   65 1    
     9    5    6 1    
    10    5   25 1    
    11    5   66 1    
    12    6    7 1    
    13    6   67 1    
    14    6   68 1    
    15    7    8 1    
    16    8    9 1    
    17    8   69 1    
    18    8   70 1    
    19    9   10 ar   
    20    9   14 ar   
    21   10   11 ar   
    22   10   71 1    
    23   11   12 ar   
    24   11   61 1    
    25   12   13 ar   
    26   12   72 1    
    27   13   14 ar   
    28   13   15 1    
    29   14   73 1    
    30   15   16 1    
    31   15   74 1    
    32   15   75 1    
    33   16   17 1    
    34   17   18 1    
    35   17   76 1    
    36   17   77 1    
    37   18   19 1    
    38   18   27 1    
    39   18   78 1    
    40   19   20 am   BACKBONE|DICT|INTERRES
    41   19   79 1    
    42   20   21 2    
    43   20   22 1    
    44   22   23 1    
    45   22   24 1    
    46   22   80 1    
    47   23   81 1    
    48   23   82 1    
    49   23   83 1    
    50   24   25 am   BACKBONE|DICT|INTERRES
    51   24   84 1    
    52   25   26 2    
    53   27   28 2    
    54   27   29 am   BACKBONE|DICT|INTERRES
    55   29   30 1    
    56   29   85 1    
    57   30   31 1    
    58   30   32 1    
    59   30   86 1    
    60   31   87 1    
    61   31   88 1    
    62   31   89 1    
    63   32   33 2    
    64   32   34 am   BACKBONE|DICT|INTERRES
    65   34   35 1    
    66   34   90 1    
    67   35   36 1    
    68   35   37 1    
    69   35   91 1    
    70   36   92 1    
    71   36   93 1    
    72   36   94 1    
    73   37   38 2    
    74   37   39 am   BACKBONE|DICT|INTERRES
    75   39   40 1    
    76   39   95 1    
    77   40   41 1    
    78   40   42 1    
    79   40   96 1    
    80   41   97 1    
    81   41   98 1    
    82   41   99 1    
    83   42   43 2    
    84   42   44 am   BACKBONE|DICT|INTERRES
    85   44   45 1    
    86   44  100 1    
    87   45   46 1    
    88   45   47 1    
    89   45  101 1    
    90   46  102 1    
    91   46  103 1    
    92   46  104 1    
    93   47   48 2    
    94   47   49 am   BACKBONE|DICT|INTERRES
    95   49   50 1    
    96   49  105 1    
    97   50   51 1    
    98   50   52 1    
    99   50  106 1    
   100   51  107 1    
   101   51  108 1    
   102   51  109 1    
   103   52   53 2    
   104   52   54 am   BACKBONE|DICT|INTERRES
   105   54   55 1    
   106   54  110 1    
   107   55   56 1    
   108   55   59 1    
   109   55  111 1    
   110   56   57 am   BACKBONE|DICT|INTERRES
   111   56   58 2    
   112   57  112 1    
   113   57  113 1    
   114   59   60 1    
   115   59  114 1    
   116   59  115 1    
   117   60   61 1    
   118   61  116 1    
   119   61  117 1    
@<TRIPOS>SUBSTRUCTURE
     1 UNK         1 GROUP             0       ****    0 ROOT    
