@<TRIPOS>MOLECULE
3R8
117   119    1
SMALL
USER_CHARGES


@<TRIPOS>ATOM
      1 CA         12.5056  -23.5963  -43.8923 C.3       0 UNK        -0.2013 
      2 C          13.9187  -23.7767  -44.4271 C.2       0 UNK         0.4866 
      3 O          14.6590  -22.7988  -44.5369 O.2       0 UNK        -0.5176 
      4 N          14.2874  -25.0167  -44.7701 N.am      1 UNK        -0.4884 
      5 CA         15.6178  -25.4130  -45.2373 C.3       1 UNK         0.0853 
      6 C6         15.5375  -26.5419  -46.3036 C.3       10 UNK        -0.0849 
      7 S7         14.5419  -28.0007  -45.8141 S.3       10 UNK        -0.2776 
      8 C8         15.3143  -29.3264  -46.7920 C.3       10 UNK         0.0316 
      9 C9         16.6743  -29.7416  -46.2457 C.ar      10 UNK        -0.0863 
     10 C10        16.7614  -30.6502  -45.1863 C.ar      10 UNK        -0.1009 
     11 C11        18.0068  -31.1005  -44.7353 C.ar      10 UNK        -0.0712 
     12 C12        19.1725  -30.6232  -45.3440 C.ar      10 UNK        -0.0894 
     13 C13        19.0982  -29.6972  -46.3899 C.ar      10 UNK        -0.0745 
     14 C14        17.8472  -29.2649  -46.8379 C.ar      10 UNK        -0.0972 
     15 C15        20.3596  -29.1929  -47.0762 C.3       10 UNK         0.0209 
     16 S16        20.9300  -27.6107  -46.3775 S.3       10 UNK        -0.2568 
     17 C17        21.7692  -28.1688  -44.8574 C.3       10 UNK        -0.0983 
     18 CA         21.1913  -27.5354  -43.5646 C.3       3 UNK         0.0876 
     19 N          19.7491  -27.7714  -43.4344 N.am      3 UNK        -0.4424 
     20 C          18.9303  -27.1502  -42.5773 C.2       2 UNK         0.4918 
     21 O          19.2938  -26.2637  -41.8013 O.2       2 UNK        -0.4875 
     22 CA         17.4600  -27.5993  -42.6091 C.3       2 UNK         0.0481 
     23 CB         16.7346  -27.3315  -41.2751 C.3       2 UNK        -0.1831 
     24 N          16.7155  -27.0205  -43.7304 N.am      2 UNK        -0.4498 
     25 C          16.5163  -25.7257  -44.0199 C.2       1 UNK         0.5027 
     26 O          16.9834  -24.7920  -43.3664 O.2       1 UNK        -0.4969 
     27 C          21.9615  -28.0269  -42.3166 C.2       3 UNK         0.5005 
     28 O          22.5874  -29.0840  -42.3606 O.2       3 UNK        -0.5279 
     29 N          21.8934  -27.2724  -41.2119 N.am      4 UNK        -0.4463 
     30 CA         22.5641  -27.5840  -39.9428 C.3       4 UNK         0.0283 
     31 CB         22.0416  -26.6378  -38.8501 C.3       4 UNK        -0.1875 
     32 C          24.1034  -27.5295  -40.0145 C.2       4 UNK         0.4949 
     33 O          24.7673  -28.1365  -39.1723 O.2       4 UNK        -0.5039 
     34 N          24.6446  -26.8136  -41.0120 N.am      5 UNK        -0.4663 
     35 CA         26.0738  -26.7185  -41.3184 C.3       5 UNK         0.0242 
     36 CB         26.2722  -25.7901  -42.5273 C.3       5 UNK        -0.1982 
     37 C          26.6899  -28.1015  -41.5912 C.2       5 UNK         0.5017 
     38 O          26.1414  -28.8648  -42.3888 O.2       5 UNK        -0.5012 
     39 N          27.7926  -28.4036  -40.8911 N.am      6 UNK        -0.4439 
     40 CA         28.5148  -29.6848  -40.8873 C.3       6 UNK         0.0297 
     41 CB         29.1618  -29.9525  -42.2635 C.3       6 UNK        -0.2006 
     42 C          27.6770  -30.8855  -40.3909 C.2       6 UNK         0.4892 
     43 O          28.0501  -32.0282  -40.6607 O.2       6 UNK        -0.5089 
     44 N          26.5747  -30.6110  -39.6725 N.am      7 UNK        -0.4243 
     45 CA         25.5959  -31.5666  -39.1413 C.3       7 UNK         0.0196 
     46 CB         26.2223  -32.4366  -38.0305 C.3       7 UNK        -0.2007 
     47 C          24.8934  -32.3985  -40.2341 C.2       7 UNK         0.5020 
     48 O          24.5470  -33.5562  -39.9941 O.2       7 UNK        -0.5147 
     49 N          24.6707  -31.7968  -41.4127 N.am      8 UNK        -0.4734 
     50 CA         23.9595  -32.4194  -42.5374 C.3       8 UNK         0.0238 
     51 CB         24.3247  -31.6818  -43.8373 C.3       8 UNK        -0.1912 
     52 C          22.4303  -32.4913  -42.3402 C.2       8 UNK         0.5038 
     53 O          21.7538  -33.1574  -43.1251 O.2       8 UNK        -0.5046 
     54 N          21.9183  -31.8241  -41.3020 N.am      9 UNK        -0.4200 
     55 CA         20.5218  -31.8013  -40.8687 C.3       9 UNK         0.0839 
     56 C          20.4371  -31.5144  -39.3462 C.2       9 UNK         0.5513 
     57 N          19.2593  -31.6604  -38.7546 N.am      9 UNK        -0.7519 
     58 O          21.4196  -31.1508  -38.6990 O.2       9 UNK        -0.4960 
     59 C59        19.6699  -30.8160  -41.7162 C.3       10 UNK        -0.0876 
     60 S60        17.9657  -31.4104  -41.9705 S.3       10 UNK        -0.2414 
     61 C61        18.0826  -32.1462  -43.6305 C.3       10 UNK         0.0169 
     62 H62        12.5364  -23.1955  -42.8792 H         1 UNK         0.0903 
     63 H63        11.9536  -22.8964  -44.5194 H         1 UNK         0.0903 
     64 H64        11.9543  -24.5367  -43.8683 H         1 UNK         0.0903 
     65 H65        13.6362  -25.7814  -44.6527 H         1 UNK         0.3096 
     66 H66        16.0838  -24.5564  -45.7308 H         1 UNK         0.1121 
     67 H67        15.0889  -26.1379  -47.2127 H         1 UNK         0.0849 
     68 H68        16.5431  -26.8458  -46.5945 H         1 UNK         0.0849 
     69 H69        14.6483  -30.1909  -46.7944 H         1 UNK         0.0865 
     70 H70        15.3957  -29.0103  -47.8335 H         1 UNK         0.0865 
     71 H71        15.8572  -31.0298  -44.7293 H         1 UNK         0.1346 
     72 H72        20.1360  -30.9910  -45.0178 H         1 UNK         0.1412 
     73 H73        17.7899  -28.5717  -47.6664 H         1 UNK         0.1426 
     74 H74        20.1630  -29.0506  -48.1401 H         1 UNK         0.0716 
     75 H75        21.1565  -29.9362  -47.0181 H         1 UNK         0.0716 
     76 H76        22.8265  -27.9148  -44.9574 H         1 UNK         0.0695 
     77 H77        21.7328  -29.2577  -44.8020 H         1 UNK         0.0695 
     78 H78        21.3442  -26.4560  -43.6339 H         1 UNK         0.0983 
     79 H79        19.3607  -28.4585  -44.0654 H         1 UNK         0.3095 
     80 H80        17.4546  -28.6764  -42.7714 H         1 UNK         0.0454 
     81 H81        17.2579  -27.8109  -40.4468 H         1 UNK         0.0851 
     82 H82        15.7198  -27.7285  -41.2903 H         1 UNK         0.0851 
     83 H83        16.6745  -26.2665  -41.0485 H         1 UNK         0.0851 
     84 H84        16.2719  -27.6916  -44.3470 H         1 UNK         0.2976 
     85 H85        21.2637  -26.4763  -41.2225 H         1 UNK         0.3116 
     86 H86        22.2917  -28.6052  -39.6660 H         1 UNK         0.0646 
     87 H87        22.2662  -25.5946  -39.0777 H         1 UNK         0.0847 
     88 H88        20.9622  -26.7315  -38.7270 H         1 UNK         0.0847 
     89 H89        22.4966  -26.8665  -37.8849 H         1 UNK         0.0847 
     90 H90        24.0135  -26.3701  -41.6618 H         1 UNK         0.3040 
     91 H91        26.5653  -26.2703  -40.4522 H         1 UNK         0.1015 
     92 H92        27.3312  -25.6835  -42.7678 H         1 UNK         0.0786 
     93 H93        25.8838  -24.7907  -42.3301 H         1 UNK         0.0786 
     94 H94        25.7737  -26.1761  -43.4178 H         1 UNK         0.0786 
     95 H95        28.1527  -27.7080  -40.2511 H         1 UNK         0.3172 
     96 H96        29.3229  -29.5695  -40.1638 H         1 UNK         0.0595 
     97 H97        28.4138  -30.1591  -43.0295 H         1 UNK         0.0839 
     98 H98        29.8284  -30.8148  -42.2228 H         1 UNK         0.0839 
     99 H99        29.7572  -29.1022  -42.5957 H         1 UNK         0.0839 
    100 H100       26.3359  -29.6365  -39.5254 H         1 UNK         0.2998 
    101 H101       24.8110  -30.9651  -38.6797 H         1 UNK         0.0822 
    102 H102       25.4636  -33.0426  -37.5337 H         1 UNK         0.0787 
    103 H103       26.6952  -31.8221  -37.2646 H         1 UNK         0.0787 
    104 H104       26.9748  -33.1194  -38.4260 H         1 UNK         0.0787 
    105 H105       24.9850  -30.8429  -41.5490 H         1 UNK         0.3055 
    106 H106       24.3073  -33.4506  -42.6317 H         1 UNK         0.1106 
    107 H107       25.3968  -31.7300  -44.0301 H         1 UNK         0.0828 
    108 H108       23.8205  -32.1262  -44.6964 H         1 UNK         0.0828 
    109 H109       24.0428  -30.6297  -43.8027 H         1 UNK         0.0828 
    110 H110       22.5485  -31.3024  -40.7081 H         1 UNK         0.2931 
    111 H111       20.1471  -32.8177  -41.0059 H         1 UNK         0.0412 
    112 H112       18.4468  -31.9369  -39.2866 H         1 UNK         0.3472 
    113 H113       19.1772  -31.4771  -37.7668 H         1 UNK         0.3472 
    114 H114       19.6350  -29.8287  -41.2527 H         1 UNK         0.0970 
    115 H115       20.1294  -30.6552  -42.6906 H         1 UNK         0.0970 
    116 H116       19.0027  -32.7276  -43.7096 H         1 UNK         0.0612 
    117 H117       17.2653  -32.8589  -43.7513 H         1 UNK         0.0612 
@<TRIPOS>BOND
     1    1    2 1    
     2    1   62 1    
     3    1   63 1    
     4    1   64 1    
     5    2    3 2    
     6    2    4 am   BACKBONE|DICT|INTERRES
     7    4    5 1    
     8    4   65 1    
     9    5    6 1    
    10    5   25 1    
    11    5   66 1    
    12    6    7 1    
    13    6   67 1    
    14    6   68 1    
    15    7    8 1    
    16    8    9 1    
    17    8   69 1    
    18    8   70 1    
    19    9   10 ar   
    20    9   14 ar   
    21   10   11 ar   
    22   10   71 1    
    23   11   12 ar   
    24   11   61 1    
    25   12   13 ar   
    26   12   72 1    
    27   13   14 ar   
    28   13   15 1    
    29   14   73 1    
    30   15   16 1    
    31   15   74 1    
    32   15   75 1    
    33   16   17 1    
    34   17   18 1    
    35   17   76 1    
    36   17   77 1    
    37   18   19 1    
    38   18   27 1    
    39   18   78 1    
    40   19   20 am   BACKBONE|DICT|INTERRES
    41   19   79 1    
    42   20   21 2    
    43   20   22 1    
    44   22   23 1    
    45   22   24 1    
    46   22   80 1    
    47   23   81 1    
    48   23   82 1    
    49   23   83 1    
    50   24   25 am   BACKBONE|DICT|INTERRES
    51   24   84 1    
    52   25   26 2    
    53   27   28 2    
    54   27   29 am   BACKBONE|DICT|INTERRES
    55   29   30 1    
    56   29   85 1    
    57   30   31 1    
    58   30   32 1    
    59   30   86 1    
    60   31   87 1    
    61   31   88 1    
    62   31   89 1    
    63   32   33 2    
    64   32   34 am   BACKBONE|DICT|INTERRES
    65   34   35 1    
    66   34   90 1    
    67   35   36 1    
    68   35   37 1    
    69   35   91 1    
    70   36   92 1    
    71   36   93 1    
    72   36   94 1    
    73   37   38 2    
    74   37   39 am   BACKBONE|DICT|INTERRES
    75   39   40 1    
    76   39   95 1    
    77   40   41 1    
    78   40   42 1    
    79   40   96 1    
    80   41   97 1    
    81   41   98 1    
    82   41   99 1    
    83   42   43 2    
    84   42   44 am   BACKBONE|DICT|INTERRES
    85   44   45 1    
    86   44  100 1    
    87   45   46 1    
    88   45   47 1    
    89   45  101 1    
    90   46  102 1    
    91   46  103 1    
    92   46  104 1    
    93   47   48 2    
    94   47   49 am   BACKBONE|DICT|INTERRES
    95   49   50 1    
    96   49  105 1    
    97   50   51 1    
    98   50   52 1    
    99   50  106 1    
   100   51  107 1    
   101   51  108 1    
   102   51  109 1    
   103   52   53 2    
   104   52   54 am   BACKBONE|DICT|INTERRES
   105   54   55 1    
   106   54  110 1    
   107   55   56 1    
   108   55   59 1    
   109   55  111 1    
   110   56   57 am   BACKBONE|DICT|INTERRES
   111   56   58 2    
   112   57  112 1    
   113   57  113 1    
   114   59   60 1    
   115   59  114 1    
   116   59  115 1    
   117   60   61 1    
   118   61  116 1    
   119   61  117 1    
@<TRIPOS>SUBSTRUCTURE
     1 UNK         1 GROUP             0       ****    0 ROOT    
