@<TRIPOS>MOLECULE
3R8
117   119    1
SMALL
USER_CHARGES


@<TRIPOS>ATOM
      1 CA         16.6533  -26.8216  -38.1028 C.3       0 UNK        -0.2013 
      2 C          16.9115  -26.0805  -39.4057 C.2       0 UNK         0.4866 
      3 O          17.4480  -24.9725  -39.3837 O.2       0 UNK        -0.5176 
      4 N          16.5243  -26.6780  -40.5397 N.am      1 UNK        -0.4884 
      5 CA         16.7627  -26.1603  -41.8901 C.3       1 UNK         0.0853 
      6 C6         15.9097  -26.8956  -42.9595 C.3       10 UNK        -0.0849 
      7 S7         15.9034  -28.7252  -42.8305 S.3       10 UNK        -0.2776 
      8 C8         16.5513  -29.2649  -44.4473 C.3       10 UNK         0.0316 
      9 C9         17.8701  -30.0064  -44.2945 C.ar      10 UNK        -0.0863 
     10 C10        17.8862  -31.3950  -44.1225 C.ar      10 UNK        -0.1009 
     11 C11        19.0937  -32.0882  -43.9803 C.ar      10 UNK        -0.0712 
     12 C12        20.2937  -31.3646  -44.0202 C.ar      10 UNK        -0.0894 
     13 C13        20.2896  -29.9776  -44.1799 C.ar      10 UNK        -0.0745 
     14 C14        19.0764  -29.3042  -44.3274 C.ar      10 UNK        -0.0972 
     15 C15        21.6010  -29.2137  -44.1572 C.3       10 UNK         0.0209 
     16 S16        22.3782  -29.1383  -45.7958 S.3       10 UNK        -0.2568 
     17 C17        21.6262  -27.6465  -46.5327 C.3       10 UNK        -0.0983 
     18 CA         22.2048  -26.2670  -46.0789 C.3       3 UNK         0.0876 
     19 N          21.6808  -25.8019  -44.7977 N.am      3 UNK        -0.4424 
     20 C          20.4258  -25.4301  -44.5380 C.2       2 UNK         0.4918 
     21 O          19.5054  -25.4743  -45.3575 O.2       2 UNK        -0.4875 
     22 CA         20.1756  -24.8688  -43.1295 C.3       2 UNK         0.0481 
     23 CB         20.5327  -23.3744  -43.0778 C.3       2 UNK        -0.1831 
     24 N          18.7787  -25.0362  -42.7280 N.am      2 UNK        -0.4498 
     25 C          18.2670  -26.1685  -42.2303 C.2       1 UNK         0.5027 
     26 O          18.9306  -27.1859  -42.0275 O.2       1 UNK        -0.4969 
     27 C          23.7452  -26.1589  -46.0033 C.2       3 UNK         0.5005 
     28 O          24.2584  -25.4425  -45.1375 O.2       3 UNK        -0.5279 
     29 N          24.4633  -26.8612  -46.8909 N.am      4 UNK        -0.4463 
     30 CA         25.9274  -26.9699  -46.8697 C.3       4 UNK         0.0283 
     31 CB         26.4112  -27.5207  -48.2211 C.3       4 UNK        -0.1875 
     32 C          26.4669  -27.8394  -45.7140 C.2       4 UNK         0.4949 
     33 O          27.6181  -27.6586  -45.3155 O.2       4 UNK        -0.5039 
     34 N          25.6429  -28.7673  -45.2113 N.am      5 UNK        -0.4663 
     35 CA         25.9324  -29.6436  -44.0740 C.3       5 UNK         0.0242 
     36 CB         25.3859  -31.0488  -44.3953 C.3       5 UNK        -0.1982 
     37 C          25.3122  -29.0821  -42.7801 C.2       5 UNK         0.5017 
     38 O          24.7356  -27.9914  -42.7899 O.2       5 UNK        -0.5012 
     39 N          25.4382  -29.8448  -41.6833 N.am      6 UNK        -0.4439 
     40 CA         24.8308  -29.5575  -40.3787 C.3       6 UNK         0.0297 
     41 CB         25.2572  -30.6356  -39.3692 C.3       6 UNK        -0.2006 
     42 C          23.2966  -29.4879  -40.4678 C.2       6 UNK         0.4892 
     43 O          22.6936  -30.3493  -41.1120 O.2       6 UNK        -0.5089 
     44 N          22.7121  -28.4626  -39.8315 N.am      7 UNK        -0.4243 
     45 CA         21.2929  -28.1072  -39.9175 C.3       7 UNK         0.0196 
     46 CB         21.0102  -26.8828  -39.0330 C.3       7 UNK        -0.2007 
     47 C          20.3495  -29.2681  -39.5630 C.2       7 UNK         0.5020 
     48 O          20.5510  -29.9299  -38.5420 O.2       7 UNK        -0.5147 
     49 N          19.3643  -29.5043  -40.4388 N.am      8 UNK        -0.4734 
     50 CA         18.3927  -30.6058  -40.4194 C.3       8 UNK         0.0238 
     51 CB         17.3527  -30.3799  -39.3035 C.3       8 UNK        -0.1912 
     52 C          19.0225  -32.0152  -40.3605 C.2       8 UNK         0.5038 
     53 O          18.3771  -32.9414  -39.8660 O.2       8 UNK        -0.5046 
     54 N          20.2652  -32.1518  -40.8480 N.am      9 UNK        -0.4200 
     55 CA         21.1085  -33.3539  -40.7610 C.3       9 UNK         0.0839 
     56 C          21.5605  -33.6940  -39.3058 C.2       9 UNK         0.5513 
     57 N          21.4975  -32.7691  -38.3536 N.am      9 UNK        -0.7519 
     58 O          22.0101  -34.8048  -39.0345 O.2       9 UNK        -0.4960 
     59 C59        20.5200  -34.5742  -41.5346 C.3       10 UNK        -0.0876 
     60 S60        20.6291  -34.4092  -43.3502 S.3       10 UNK        -0.2414 
     61 C61        19.0469  -33.6096  -43.8038 C.3       10 UNK         0.0169 
     62 H62        16.3693  -26.1205  -37.3182 H         1 UNK         0.0903 
     63 H63        15.8489  -27.5495  -38.2056 H         1 UNK         0.0903 
     64 H64        17.5550  -27.3441  -37.7836 H         1 UNK         0.0903 
     65 H65        16.1126  -27.6001  -40.5124 H         1 UNK         0.3096 
     66 H66        16.4377  -25.1172  -41.8852 H         1 UNK         0.1121 
     67 H67        14.8719  -26.5755  -42.8545 H         1 UNK         0.0849 
     68 H68        16.1991  -26.5782  -43.9626 H         1 UNK         0.0849 
     69 H69        15.8134  -29.9160  -44.9183 H         1 UNK         0.0865 
     70 H70        16.6763  -28.4214  -45.1269 H         1 UNK         0.0865 
     71 H71        16.9517  -31.9392  -44.0962 H         1 UNK         0.1346 
     72 H72        21.2450  -31.8654  -43.9156 H         1 UNK         0.1412 
     73 H73        19.0701  -28.2302  -44.4516 H         1 UNK         0.1426 
     74 H74        22.3000  -29.7175  -43.4932 H         1 UNK         0.0716 
     75 H75        21.4620  -28.2188  -43.7373 H         1 UNK         0.0716 
     76 H76        21.7503  -27.7393  -47.6125 H         1 UNK         0.0695 
     77 H77        20.5480  -27.6880  -46.3784 H         1 UNK         0.0695 
     78 H78        21.9000  -25.5263  -46.8215 H         1 UNK         0.0983 
     79 H79        22.4064  -25.6647  -44.1036 H         1 UNK         0.3095 
     80 H80        20.8148  -25.4007  -42.4208 H         1 UNK         0.0454 
     81 H81        21.5800  -23.2114  -43.3359 H         1 UNK         0.0851 
     82 H82        19.9316  -22.7899  -43.7755 H         1 UNK         0.0851 
     83 H83        20.3810  -22.9649  -42.0789 H         1 UNK         0.0851 
     84 H84        18.1668  -24.2521  -42.9012 H         1 UNK         0.2976 
     85 H85        23.9742  -27.4324  -47.5658 H         1 UNK         0.3116 
     86 H86        26.3424  -25.9673  -46.7452 H         1 UNK         0.0646 
     87 H87        27.5000  -27.5840  -48.2487 H         1 UNK         0.0847 
     88 H88        26.1058  -26.8769  -49.0461 H         1 UNK         0.0847 
     89 H89        26.0229  -28.5219  -48.4124 H         1 UNK         0.0847 
     90 H90        24.6911  -28.7930  -45.5532 H         1 UNK         0.3040 
     91 H91        27.0122  -29.7136  -43.9247 H         1 UNK         0.1015 
     92 H92        25.7528  -31.4051  -45.3581 H         1 UNK         0.0786 
     93 H93        24.2960  -31.0631  -44.4291 H         1 UNK         0.0786 
     94 H94        25.6968  -31.7802  -43.6489 H         1 UNK         0.0786 
     95 H95        25.9049  -30.7354  -41.7699 H         1 UNK         0.3172 
     96 H96        25.2137  -28.5921  -40.0411 H         1 UNK         0.0595 
     97 H97        26.3410  -30.6748  -39.2592 H         1 UNK         0.0839 
     98 H98        24.9109  -31.6264  -39.6675 H         1 UNK         0.0839 
     99 H99        24.8394  -30.4318  -38.3822 H         1 UNK         0.0839 
    100 H100       23.2960  -27.8334  -39.3006 H         1 UNK         0.2998 
    101 H101       21.1234  -27.8237  -40.9570 H         1 UNK         0.0822 
    102 H102       21.6221  -26.0293  -39.3251 H         1 UNK         0.0787 
    103 H103       19.9677  -26.5746  -39.1217 H         1 UNK         0.0787 
    104 H104       21.2012  -27.0940  -37.9800 H         1 UNK         0.0787 
    105 H105       19.2612  -28.8489  -41.2132 H         1 UNK         0.3055 
    106 H106       17.8669  -30.5606  -41.3732 H         1 UNK         0.1106 
    107 H107       17.8068  -30.4194  -38.3130 H         1 UNK         0.0828 
    108 H108       16.8652  -29.4141  -39.4151 H         1 UNK         0.0828 
    109 H109       16.5673  -31.1359  -39.3347 H         1 UNK         0.0828 
    110 H110       20.7435  -31.3250  -41.1857 H         1 UNK         0.2931 
    111 H111       22.0386  -33.0798  -41.2599 H         1 UNK         0.0412 
    112 H112       21.8031  -33.0011  -37.4223 H         1 UNK         0.3472 
    113 H113       21.1461  -31.8371  -38.5510 H         1 UNK         0.3472 
    114 H114       19.4945  -34.7899  -41.2352 H         1 UNK         0.0970 
    115 H115       21.0794  -35.4802  -41.2967 H         1 UNK         0.0970 
    116 H116       18.2878  -33.8684  -43.0643 H         1 UNK         0.0612 
    117 H117       18.7150  -34.0448  -44.7471 H         1 UNK         0.0612 
@<TRIPOS>BOND
     1    1    2 1    
     2    1   62 1    
     3    1   63 1    
     4    1   64 1    
     5    2    3 2    
     6    2    4 am   BACKBONE|DICT|INTERRES
     7    4    5 1    
     8    4   65 1    
     9    5    6 1    
    10    5   25 1    
    11    5   66 1    
    12    6    7 1    
    13    6   67 1    
    14    6   68 1    
    15    7    8 1    
    16    8    9 1    
    17    8   69 1    
    18    8   70 1    
    19    9   10 ar   
    20    9   14 ar   
    21   10   11 ar   
    22   10   71 1    
    23   11   12 ar   
    24   11   61 1    
    25   12   13 ar   
    26   12   72 1    
    27   13   14 ar   
    28   13   15 1    
    29   14   73 1    
    30   15   16 1    
    31   15   74 1    
    32   15   75 1    
    33   16   17 1    
    34   17   18 1    
    35   17   76 1    
    36   17   77 1    
    37   18   19 1    
    38   18   27 1    
    39   18   78 1    
    40   19   20 am   BACKBONE|DICT|INTERRES
    41   19   79 1    
    42   20   21 2    
    43   20   22 1    
    44   22   23 1    
    45   22   24 1    
    46   22   80 1    
    47   23   81 1    
    48   23   82 1    
    49   23   83 1    
    50   24   25 am   BACKBONE|DICT|INTERRES
    51   24   84 1    
    52   25   26 2    
    53   27   28 2    
    54   27   29 am   BACKBONE|DICT|INTERRES
    55   29   30 1    
    56   29   85 1    
    57   30   31 1    
    58   30   32 1    
    59   30   86 1    
    60   31   87 1    
    61   31   88 1    
    62   31   89 1    
    63   32   33 2    
    64   32   34 am   BACKBONE|DICT|INTERRES
    65   34   35 1    
    66   34   90 1    
    67   35   36 1    
    68   35   37 1    
    69   35   91 1    
    70   36   92 1    
    71   36   93 1    
    72   36   94 1    
    73   37   38 2    
    74   37   39 am   BACKBONE|DICT|INTERRES
    75   39   40 1    
    76   39   95 1    
    77   40   41 1    
    78   40   42 1    
    79   40   96 1    
    80   41   97 1    
    81   41   98 1    
    82   41   99 1    
    83   42   43 2    
    84   42   44 am   BACKBONE|DICT|INTERRES
    85   44   45 1    
    86   44  100 1    
    87   45   46 1    
    88   45   47 1    
    89   45  101 1    
    90   46  102 1    
    91   46  103 1    
    92   46  104 1    
    93   47   48 2    
    94   47   49 am   BACKBONE|DICT|INTERRES
    95   49   50 1    
    96   49  105 1    
    97   50   51 1    
    98   50   52 1    
    99   50  106 1    
   100   51  107 1    
   101   51  108 1    
   102   51  109 1    
   103   52   53 2    
   104   52   54 am   BACKBONE|DICT|INTERRES
   105   54   55 1    
   106   54  110 1    
   107   55   56 1    
   108   55   59 1    
   109   55  111 1    
   110   56   57 am   BACKBONE|DICT|INTERRES
   111   56   58 2    
   112   57  112 1    
   113   57  113 1    
   114   59   60 1    
   115   59  114 1    
   116   59  115 1    
   117   60   61 1    
   118   61  116 1    
   119   61  117 1    
@<TRIPOS>SUBSTRUCTURE
     1 UNK         1 GROUP             0       ****    0 ROOT    
