@<TRIPOS>MOLECULE
3R8
117   119    1
SMALL
USER_CHARGES


@<TRIPOS>ATOM
      1 CA         13.8107  -22.1568  -46.4009 C.3       0 UNK        -0.2013 
      2 C          14.3236  -23.5760  -46.5935 C.2       0 UNK         0.4866 
      3 O          14.3635  -24.0645  -47.7228 O.2       0 UNK        -0.5176 
      4 N          14.7202  -24.2419  -45.4999 N.am      1 UNK        -0.4884 
      5 CA         15.2415  -25.6173  -45.5022 C.3       1 UNK         0.0853 
      6 C6         15.0767  -26.2816  -44.1072 C.3       10 UNK        -0.0849 
      7 S7         14.7139  -28.0647  -44.2298 S.3       10 UNK        -0.2776 
      8 C8         14.9699  -28.6116  -42.5120 C.3       10 UNK         0.0316 
      9 C9         16.4400  -28.8576  -42.2011 C.ar      10 UNK        -0.0863 
     10 C10        17.0614  -30.0262  -42.6528 C.ar      10 UNK        -0.1009 
     11 C11        18.4013  -30.2826  -42.3487 C.ar      10 UNK        -0.0712 
     12 C12        19.1135  -29.3678  -41.5686 C.ar      10 UNK        -0.0894 
     13 C13        18.5131  -28.1812  -41.1300 C.ar      10 UNK        -0.0745 
     14 C14        17.1729  -27.9355  -41.4469 C.ar      10 UNK        -0.0972 
     15 C15        19.3020  -27.1624  -40.3134 C.3       10 UNK         0.0209 
     16 S16        20.9597  -26.8216  -40.9962 S.3       10 UNK        -0.2568 
     17 C17        20.5902  -25.8932  -42.5267 C.3       10 UNK        -0.0983 
     18 CA         20.2928  -26.7692  -43.7828 C.3       3 UNK         0.0876 
     19 N          19.5118  -26.0539  -44.7913 N.am      3 UNK        -0.4424 
     20 C          19.8518  -24.9366  -45.4425 C.2       2 UNK         0.4918 
     21 O          20.9133  -24.3361  -45.2713 O.2       2 UNK        -0.4875 
     22 CA         18.8186  -24.3549  -46.4292 C.3       2 UNK         0.0481 
     23 CB         19.0972  -24.8327  -47.8675 C.3       2 UNK        -0.1831 
     24 N          17.4103  -24.5647  -46.0482 N.am      2 UNK        -0.4498 
     25 C          16.7028  -25.7062  -46.0015 C.2       1 UNK         0.5027 
     26 O          17.1746  -26.8049  -46.2953 O.2       1 UNK        -0.4969 
     27 C          21.5091  -27.4989  -44.4010 C.2       3 UNK         0.5005 
     28 O          21.5419  -27.7360  -45.6121 O.2       3 UNK        -0.5279 
     29 N          22.4565  -27.9032  -43.5525 N.am      4 UNK        -0.4463 
     30 CA         23.6258  -28.7145  -43.8679 C.3       4 UNK         0.0283 
     31 CB         23.2179  -30.1991  -43.9108 C.3       4 UNK        -0.1875 
     32 C          24.6921  -28.4686  -42.7948 C.2       4 UNK         0.4949 
     33 O          24.3844  -27.8883  -41.7493 O.2       4 UNK        -0.5039 
     34 N          25.9200  -28.9345  -43.0615 N.am      5 UNK        -0.4663 
     35 CA         27.0806  -28.8431  -42.1685 C.3       5 UNK         0.0242 
     36 CB         28.2824  -29.5438  -42.8233 C.3       5 UNK        -0.1982 
     37 C          26.7903  -29.4412  -40.7812 C.2       5 UNK         0.5017 
     38 O          26.4728  -30.6292  -40.6891 O.2       5 UNK        -0.5012 
     39 N          26.8353  -28.5853  -39.7490 N.am      6 UNK        -0.4439 
     40 CA         26.5132  -28.8666  -38.3414 C.3       6 UNK         0.0297 
     41 CB         27.5793  -29.7996  -37.7276 C.3       6 UNK        -0.2006 
     42 C          25.0788  -29.3931  -38.1037 C.2       6 UNK         0.4892 
     43 O          24.8279  -29.9940  -37.0578 O.2       6 UNK        -0.5089 
     44 N          24.1759  -29.1820  -39.0771 N.am      7 UNK        -0.4243 
     45 CA         22.8216  -29.7403  -39.1705 C.3       7 UNK         0.0196 
     46 CB         21.8954  -29.1227  -38.1019 C.3       7 UNK        -0.2007 
     47 C          22.7950  -31.2846  -39.1709 C.2       7 UNK         0.5020 
     48 O          21.8281  -31.8775  -38.6916 O.2       7 UNK        -0.5147 
     49 N          23.8550  -31.9173  -39.7004 N.am      8 UNK        -0.4734 
     50 CA         23.9969  -33.3772  -39.7586 C.3       8 UNK         0.0238 
     51 CB         25.4712  -33.7317  -40.0099 C.3       8 UNK        -0.1912 
     52 C          23.0971  -34.0386  -40.8171 C.2       8 UNK         0.5038 
     53 O          22.7598  -35.2137  -40.6684 O.2       8 UNK        -0.5046 
     54 N          22.7383  -33.2749  -41.8581 N.am      9 UNK        -0.4200 
     55 CA         21.8676  -33.6682  -42.9811 C.3       9 UNK         0.0839 
     56 C          22.4634  -34.7620  -43.9194 C.2       9 UNK         0.5513 
     57 N          23.7675  -35.0106  -43.8986 N.am      9 UNK        -0.7519 
     58 O          21.7422  -35.3732  -44.7039 O.2       9 UNK        -0.4960 
     59 C59        20.4041  -33.9801  -42.5477 C.3       10 UNK        -0.0876 
     60 S60        19.6323  -32.6446  -41.5703 S.3       10 UNK        -0.2414 
     61 C61        19.0925  -31.5233  -42.8958 C.3       10 UNK         0.0169 
     62 H62        13.8308  -21.8530  -45.3544 H         1 UNK         0.0903 
     63 H63        14.4222  -21.4564  -46.9692 H         1 UNK         0.0903 
     64 H64        12.7836  -22.0782  -46.7564 H         1 UNK         0.0903 
     65 H65        14.6600  -23.7918  -44.5965 H         1 UNK         0.3096 
     66 H66        14.6419  -26.1794  -46.2226 H         1 UNK         0.1121 
     67 H67        15.9520  -26.1182  -43.4751 H         1 UNK         0.0849 
     68 H68        14.2375  -25.8360  -43.5702 H         1 UNK         0.0849 
     69 H69        14.4131  -29.5365  -42.3539 H         1 UNK         0.0865 
     70 H70        14.5402  -27.8823  -41.8234 H         1 UNK         0.0865 
     71 H71        16.4995  -30.7316  -43.2500 H         1 UNK         0.1346 
     72 H72        20.1474  -29.5708  -41.3262 H         1 UNK         0.1412 
     73 H73        16.6966  -27.0282  -41.1007 H         1 UNK         0.1426 
     74 H74        19.4152  -27.5467  -39.2993 H         1 UNK         0.0716 
     75 H75        18.7561  -26.2217  -40.2270 H         1 UNK         0.0716 
     76 H76        21.4229  -25.2161  -42.7246 H         1 UNK         0.0695 
     77 H77        19.7352  -25.2491  -42.3150 H         1 UNK         0.0695 
     78 H78        19.6249  -27.5720  -43.4816 H         1 UNK         0.0983 
     79 H79        18.6586  -26.5120  -45.0956 H         1 UNK         0.3095 
     80 H80        18.9590  -23.2729  -46.4166 H         1 UNK         0.0454 
     81 H81        19.0243  -25.9165  -47.9611 H         1 UNK         0.0851 
     82 H82        20.1037  -24.5516  -48.1800 H         1 UNK         0.0851 
     83 H83        18.4008  -24.3858  -48.5768 H         1 UNK         0.0851 
     84 H84        16.9227  -23.7291  -45.7560 H         1 UNK         0.2976 
     85 H85        22.3997  -27.6151  -42.5796 H         1 UNK         0.3116 
     86 H86        24.0323  -28.4089  -44.8343 H         1 UNK         0.0646 
     87 H87        22.7704  -30.5115  -42.9672 H         1 UNK         0.0847 
     88 H88        24.0748  -30.8460  -44.1024 H         1 UNK         0.0847 
     89 H89        22.4916  -30.3874  -44.7016 H         1 UNK         0.0847 
     90 H90        26.0704  -29.4167  -43.9360 H         1 UNK         0.3040 
     91 H91        27.3244  -27.7845  -42.0560 H         1 UNK         0.1015 
     92 H92        28.0845  -30.6016  -43.0026 H         1 UNK         0.0786 
     93 H93        29.1650  -29.4820  -42.1850 H         1 UNK         0.0786 
     94 H94        28.5414  -29.0834  -43.7770 H         1 UNK         0.0786 
     95 H95        27.0615  -27.6201  -39.9493 H         1 UNK         0.3172 
     96 H96        26.5706  -27.9099  -37.8203 H         1 UNK         0.0595 
     97 H97        27.4415  -29.9006  -36.6504 H         1 UNK         0.0839 
     98 H98        28.5858  -29.4130  -37.8869 H         1 UNK         0.0839 
     99 H99        27.5328  -30.8017  -38.1556 H         1 UNK         0.0839 
    100 H100       24.4758  -28.6613  -39.8968 H         1 UNK         0.2998 
    101 H101       22.4418  -29.4378  -40.1472 H         1 UNK         0.0822 
    102 H102       20.8601  -29.4272  -38.2601 H         1 UNK         0.0787 
    103 H103       22.1756  -29.4321  -37.0947 H         1 UNK         0.0787 
    104 H104       21.9199  -28.0336  -38.1390 H         1 UNK         0.0787 
    105 H105       24.6418  -31.3696  -40.0368 H         1 UNK         0.3055 
    106 H106       23.7084  -33.7871  -38.7878 H         1 UNK         0.1106 
    107 H107       25.6184  -34.8126  -40.0176 H         1 UNK         0.0828 
    108 H108       25.8226  -33.3466  -40.9679 H         1 UNK         0.0828 
    109 H109       26.1152  -33.3226  -39.2309 H         1 UNK         0.0828 
    110 H110       23.0843  -32.3289  -41.8765 H         1 UNK         0.2931 
    111 H111       21.8201  -32.7845  -43.6167 H         1 UNK         0.0412 
    112 H112       24.1459  -35.7116  -44.5164 H         1 UNK         0.3472 
    113 H113       24.3742  -34.5131  -43.2674 H         1 UNK         0.3472 
    114 H114       19.7755  -34.1735  -43.4189 H         1 UNK         0.0970 
    115 H115       20.3745  -34.8947  -41.9535 H         1 UNK         0.0970 
    116 H116       19.9577  -31.2136  -43.4834 H         1 UNK         0.0612 
    117 H117       18.4319  -32.0653  -43.5744 H         1 UNK         0.0612 
@<TRIPOS>BOND
     1    1    2 1    
     2    1   62 1    
     3    1   63 1    
     4    1   64 1    
     5    2    3 2    
     6    2    4 am   BACKBONE|DICT|INTERRES
     7    4    5 1    
     8    4   65 1    
     9    5    6 1    
    10    5   25 1    
    11    5   66 1    
    12    6    7 1    
    13    6   67 1    
    14    6   68 1    
    15    7    8 1    
    16    8    9 1    
    17    8   69 1    
    18    8   70 1    
    19    9   10 ar   
    20    9   14 ar   
    21   10   11 ar   
    22   10   71 1    
    23   11   12 ar   
    24   11   61 1    
    25   12   13 ar   
    26   12   72 1    
    27   13   14 ar   
    28   13   15 1    
    29   14   73 1    
    30   15   16 1    
    31   15   74 1    
    32   15   75 1    
    33   16   17 1    
    34   17   18 1    
    35   17   76 1    
    36   17   77 1    
    37   18   19 1    
    38   18   27 1    
    39   18   78 1    
    40   19   20 am   BACKBONE|DICT|INTERRES
    41   19   79 1    
    42   20   21 2    
    43   20   22 1    
    44   22   23 1    
    45   22   24 1    
    46   22   80 1    
    47   23   81 1    
    48   23   82 1    
    49   23   83 1    
    50   24   25 am   BACKBONE|DICT|INTERRES
    51   24   84 1    
    52   25   26 2    
    53   27   28 2    
    54   27   29 am   BACKBONE|DICT|INTERRES
    55   29   30 1    
    56   29   85 1    
    57   30   31 1    
    58   30   32 1    
    59   30   86 1    
    60   31   87 1    
    61   31   88 1    
    62   31   89 1    
    63   32   33 2    
    64   32   34 am   BACKBONE|DICT|INTERRES
    65   34   35 1    
    66   34   90 1    
    67   35   36 1    
    68   35   37 1    
    69   35   91 1    
    70   36   92 1    
    71   36   93 1    
    72   36   94 1    
    73   37   38 2    
    74   37   39 am   BACKBONE|DICT|INTERRES
    75   39   40 1    
    76   39   95 1    
    77   40   41 1    
    78   40   42 1    
    79   40   96 1    
    80   41   97 1    
    81   41   98 1    
    82   41   99 1    
    83   42   43 2    
    84   42   44 am   BACKBONE|DICT|INTERRES
    85   44   45 1    
    86   44  100 1    
    87   45   46 1    
    88   45   47 1    
    89   45  101 1    
    90   46  102 1    
    91   46  103 1    
    92   46  104 1    
    93   47   48 2    
    94   47   49 am   BACKBONE|DICT|INTERRES
    95   49   50 1    
    96   49  105 1    
    97   50   51 1    
    98   50   52 1    
    99   50  106 1    
   100   51  107 1    
   101   51  108 1    
   102   51  109 1    
   103   52   53 2    
   104   52   54 am   BACKBONE|DICT|INTERRES
   105   54   55 1    
   106   54  110 1    
   107   55   56 1    
   108   55   59 1    
   109   55  111 1    
   110   56   57 am   BACKBONE|DICT|INTERRES
   111   56   58 2    
   112   57  112 1    
   113   57  113 1    
   114   59   60 1    
   115   59  114 1    
   116   59  115 1    
   117   60   61 1    
   118   61  116 1    
   119   61  117 1    
@<TRIPOS>SUBSTRUCTURE
     1 UNK         1 GROUP             0       ****    0 ROOT    
