@<TRIPOS>MOLECULE
3R8
117   119    1
SMALL
USER_CHARGES


@<TRIPOS>ATOM
      1 CA         17.0634  -22.3314  -44.9919 C.3       0 UNK        -0.2013 
      2 C          17.5130  -23.7676  -45.2211 C.2       0 UNK         0.4866 
      3 O          18.1708  -24.0509  -46.2233 O.2       0 UNK        -0.5176 
      4 N          17.1551  -24.6778  -44.3061 N.am      1 UNK        -0.4884 
      5 CA         17.5453  -26.0907  -44.3367 C.3       1 UNK         0.0853 
      6 C6         16.7498  -26.9262  -43.3065 C.3       10 UNK        -0.0849 
      7 S7         14.9967  -27.1588  -43.7490 S.3       10 UNK        -0.2776 
      8 C8         15.0516  -28.5883  -44.8958 C.3       10 UNK         0.0316 
      9 C9         15.8126  -29.8198  -44.3955 C.ar      10 UNK        -0.0863 
     10 C10        16.4711  -30.6332  -45.3262 C.ar      10 UNK        -0.1009 
     11 C11        17.1861  -31.7612  -44.9116 C.ar      10 UNK        -0.0712 
     12 C12        17.2442  -32.0742  -43.5533 C.ar      10 UNK        -0.0894 
     13 C13        16.6149  -31.2618  -42.6093 C.ar      10 UNK        -0.0745 
     14 C14        15.8712  -30.1580  -43.0360 C.ar      10 UNK        -0.0972 
     15 C15        16.7653  -31.5776  -41.1301 C.3       10 UNK         0.0209 
     16 S16        18.5022  -31.4308  -40.5934 S.3       10 UNK        -0.2568 
     17 C17        18.7274  -29.6252  -40.4942 C.3       10 UNK        -0.0983 
     18 CA         20.1332  -29.1849  -40.9925 C.3       3 UNK         0.0876 
     19 N          20.1381  -28.7738  -42.4036 N.am      3 UNK        -0.4424 
     20 C          21.2335  -28.4034  -43.0880 C.2       2 UNK         0.4918 
     21 O          22.3754  -28.5464  -42.6539 O.2       2 UNK        -0.4875 
     22 CA         21.0389  -27.7043  -44.4498 C.3       2 UNK         0.0481 
     23 CB         21.5229  -28.5813  -45.6137 C.3       2 UNK        -0.1831 
     24 N          19.6619  -27.2663  -44.7040 N.am      2 UNK        -0.4498 
     25 C          19.0484  -26.2689  -44.0505 C.2       1 UNK         0.5027 
     26 O          19.5912  -25.5917  -43.1744 O.2       1 UNK        -0.4969 
     27 C          20.7197  -28.0908  -40.0726 C.2       3 UNK         0.5005 
     28 O          21.5104  -28.4109  -39.1823 O.2       3 UNK        -0.5279 
     29 N          20.3597  -26.8226  -40.3321 N.am      4 UNK        -0.4463 
     30 CA         20.8364  -25.6537  -39.5864 C.3       4 UNK         0.0283 
     31 CB         19.9849  -24.4270  -39.9503 C.3       4 UNK        -0.1875 
     32 C          22.3290  -25.3581  -39.8101 C.2       4 UNK         0.4949 
     33 O          22.9675  -24.7841  -38.9288 O.2       4 UNK        -0.5039 
     34 N          22.8798  -25.7972  -40.9500 N.am      5 UNK        -0.4663 
     35 CA         24.2994  -25.7073  -41.3014 C.3       5 UNK         0.0242 
     36 CB         24.4280  -25.6469  -42.8355 C.3       5 UNK        -0.1982 
     37 C          25.1213  -26.8559  -40.6781 C.2       5 UNK         0.5017 
     38 O          25.9650  -27.4422  -41.3564 O.2       5 UNK        -0.5012 
     39 N          24.8554  -27.1546  -39.3970 N.am      6 UNK        -0.4439 
     40 CA         25.4722  -28.1965  -38.5681 C.3       6 UNK         0.0297 
     41 CB         26.9460  -27.8471  -38.2650 C.3       6 UNK        -0.2006 
     42 C          25.2942  -29.6144  -39.1479 C.2       6 UNK         0.4892 
     43 O          26.2718  -30.3560  -39.2665 O.2       6 UNK        -0.5089 
     44 N          24.0413  -29.9618  -39.4842 N.am      7 UNK        -0.4243 
     45 CA         23.6032  -31.2662  -40.0028 C.3       7 UNK         0.0196 
     46 CB         23.7747  -32.3686  -38.9352 C.3       7 UNK        -0.2007 
     47 C          24.2313  -31.6448  -41.3603 C.2       7 UNK         0.5020 
     48 O          24.4698  -32.8261  -41.6188 O.2       7 UNK        -0.5147 
     49 N          24.4587  -30.6483  -42.2282 N.am      8 UNK        -0.4734 
     50 CA         25.0611  -30.8185  -43.5572 C.3       8 UNK         0.0238 
     51 CB         25.4394  -29.4438  -44.1321 C.3       8 UNK        -0.1912 
     52 C          24.1887  -31.6043  -44.5536 C.2       8 UNK         0.5038 
     53 O          24.7220  -32.1057  -45.5445 O.2       8 UNK        -0.5046 
     54 N          22.8825  -31.7142  -44.2728 N.am      9 UNK        -0.4200 
     55 CA         21.9405  -32.5714  -45.0102 C.3       9 UNK         0.0839 
     56 C          22.1321  -34.0989  -44.7611 C.2       9 UNK         0.5513 
     57 N          22.9128  -34.5242  -43.7727 N.am      9 UNK        -0.7519 
     58 O          21.5622  -34.9141  -45.4813 O.2       9 UNK        -0.4960 
     59 C59        20.4643  -32.1300  -44.7841 C.3       10 UNK        -0.0876 
     60 S60        19.5421  -31.9639  -46.3536 S.3       10 UNK        -0.2414 
     61 C61        17.9079  -32.6389  -45.9234 C.3       10 UNK         0.0169 
     62 H62        17.9300  -21.6741  -44.9184 H         1 UNK         0.0903 
     63 H63        16.4485  -21.9929  -45.8263 H         1 UNK         0.0903 
     64 H64        16.4809  -22.2273  -44.0764 H         1 UNK         0.0903 
     65 H65        16.6201  -24.3893  -43.4992 H         1 UNK         0.3096 
     66 H66        17.3420  -26.4735  -45.3402 H         1 UNK         0.1121 
     67 H67        17.2054  -27.9046  -43.1652 H         1 UNK         0.0849 
     68 H68        16.7881  -26.4517  -42.3231 H         1 UNK         0.0849 
     69 H69        14.0273  -28.8868  -45.1236 H         1 UNK         0.0865 
     70 H70        15.4829  -28.2440  -45.8375 H         1 UNK         0.0865 
     71 H71        16.4337  -30.3884  -46.3793 H         1 UNK         0.1346 
     72 H72        17.8021  -32.9387  -43.2207 H         1 UNK         0.1412 
     73 H73        15.3667  -29.5426  -42.3039 H         1 UNK         0.1426 
     74 H74        16.4245  -32.5979  -40.9485 H         1 UNK         0.0716 
     75 H75        16.1371  -30.9284  -40.5178 H         1 UNK         0.0716 
     76 H76        17.9369  -29.1124  -41.0438 H         1 UNK         0.0695 
     77 H77        18.5654  -29.3662  -39.4454 H         1 UNK         0.0695 
     78 H78        20.8116  -30.0331  -40.9171 H         1 UNK         0.0983 
     79 H79        19.2398  -28.6850  -42.8507 H         1 UNK         0.3095 
     80 H80        21.6718  -26.8145  -44.4281 H         1 UNK         0.0454 
     81 H81        22.5194  -28.9816  -45.4259 H         1 UNK         0.0851 
     82 H82        21.5800  -28.0070  -46.5384 H         1 UNK         0.0851 
     83 H83        20.8587  -29.4241  -45.7919 H         1 UNK         0.0851 
     84 H84        19.1483  -27.7858  -45.4026 H         1 UNK         0.2976 
     85 H85        19.7595  -26.6325  -41.1244 H         1 UNK         0.3116 
     86 H86        20.6987  -25.8582  -38.5223 H         1 UNK         0.0646 
     87 H87        20.1021  -24.1481  -40.9981 H         1 UNK         0.0847 
     88 H88        18.9257  -24.6061  -39.7656 H         1 UNK         0.0847 
     89 H89        20.2750  -23.5621  -39.3521 H         1 UNK         0.0847 
     90 H90        22.2965  -26.3183  -41.5893 H         1 UNK         0.3040 
     91 H91        24.7060  -24.7765  -40.8995 H         1 UNK         0.1015 
     92 H92        25.4667  -25.5043  -43.1369 H         1 UNK         0.0786 
     93 H93        23.8560  -24.8163  -43.2497 H         1 UNK         0.0786 
     94 H94        24.0758  -26.5642  -43.3067 H         1 UNK         0.0786 
     95 H95        24.1443  -26.5929  -38.9421 H         1 UNK         0.3172 
     96 H96        24.9333  -28.1886  -37.6189 H         1 UNK         0.0595 
     97 H97        27.5607  -27.8638  -39.1663 H         1 UNK         0.0839 
     98 H98        27.3801  -28.5606  -37.5630 H         1 UNK         0.0839 
     99 H99        27.0362  -26.8579  -37.8160 H         1 UNK         0.0839 
    100 H100       23.3011  -29.2773  -39.3502 H         1 UNK         0.2998 
    101 H101       22.5351  -31.1770  -40.1871 H         1 UNK         0.0822 
    102 H102       23.3140  -33.3028  -39.2593 H         1 UNK         0.0787 
    103 H103       23.3019  -32.0867  -37.9942 H         1 UNK         0.0787 
    104 H104       24.8254  -32.5791  -38.7339 H         1 UNK         0.0787 
    105 H105       24.1845  -29.7064  -41.9745 H         1 UNK         0.3055 
    106 H106       25.9807  -31.3942  -43.4300 H         1 UNK         0.1106 
    107 H107       26.1904  -28.9521  -43.5143 H         1 UNK         0.0828 
    108 H108       25.8627  -29.5374  -45.1333 H         1 UNK         0.0828 
    109 H109       24.5779  -28.7813  -44.2025 H         1 UNK         0.0828 
    110 H110       22.5444  -31.2766  -43.4294 H         1 UNK         0.2931 
    111 H111       22.1798  -32.4232  -46.0655 H         1 UNK         0.0412 
    112 H112       23.0256  -35.5157  -43.6306 H         1 UNK         0.3472 
    113 H113       23.3969  -33.8737  -43.1660 H         1 UNK         0.3472 
    114 H114       19.9458  -32.8215  -44.1186 H         1 UNK         0.0970 
    115 H115       20.4091  -31.1665  -44.2779 H         1 UNK         0.0970 
    116 H116       17.3094  -32.7176  -46.8321 H         1 UNK         0.0612 
    117 H117       18.0226  -33.6557  -45.5441 H         1 UNK         0.0612 
@<TRIPOS>BOND
     1    1    2 1    
     2    1   62 1    
     3    1   63 1    
     4    1   64 1    
     5    2    3 2    
     6    2    4 am   BACKBONE|DICT|INTERRES
     7    4    5 1    
     8    4   65 1    
     9    5    6 1    
    10    5   25 1    
    11    5   66 1    
    12    6    7 1    
    13    6   67 1    
    14    6   68 1    
    15    7    8 1    
    16    8    9 1    
    17    8   69 1    
    18    8   70 1    
    19    9   10 ar   
    20    9   14 ar   
    21   10   11 ar   
    22   10   71 1    
    23   11   12 ar   
    24   11   61 1    
    25   12   13 ar   
    26   12   72 1    
    27   13   14 ar   
    28   13   15 1    
    29   14   73 1    
    30   15   16 1    
    31   15   74 1    
    32   15   75 1    
    33   16   17 1    
    34   17   18 1    
    35   17   76 1    
    36   17   77 1    
    37   18   19 1    
    38   18   27 1    
    39   18   78 1    
    40   19   20 am   BACKBONE|DICT|INTERRES
    41   19   79 1    
    42   20   21 2    
    43   20   22 1    
    44   22   23 1    
    45   22   24 1    
    46   22   80 1    
    47   23   81 1    
    48   23   82 1    
    49   23   83 1    
    50   24   25 am   BACKBONE|DICT|INTERRES
    51   24   84 1    
    52   25   26 2    
    53   27   28 2    
    54   27   29 am   BACKBONE|DICT|INTERRES
    55   29   30 1    
    56   29   85 1    
    57   30   31 1    
    58   30   32 1    
    59   30   86 1    
    60   31   87 1    
    61   31   88 1    
    62   31   89 1    
    63   32   33 2    
    64   32   34 am   BACKBONE|DICT|INTERRES
    65   34   35 1    
    66   34   90 1    
    67   35   36 1    
    68   35   37 1    
    69   35   91 1    
    70   36   92 1    
    71   36   93 1    
    72   36   94 1    
    73   37   38 2    
    74   37   39 am   BACKBONE|DICT|INTERRES
    75   39   40 1    
    76   39   95 1    
    77   40   41 1    
    78   40   42 1    
    79   40   96 1    
    80   41   97 1    
    81   41   98 1    
    82   41   99 1    
    83   42   43 2    
    84   42   44 am   BACKBONE|DICT|INTERRES
    85   44   45 1    
    86   44  100 1    
    87   45   46 1    
    88   45   47 1    
    89   45  101 1    
    90   46  102 1    
    91   46  103 1    
    92   46  104 1    
    93   47   48 2    
    94   47   49 am   BACKBONE|DICT|INTERRES
    95   49   50 1    
    96   49  105 1    
    97   50   51 1    
    98   50   52 1    
    99   50  106 1    
   100   51  107 1    
   101   51  108 1    
   102   51  109 1    
   103   52   53 2    
   104   52   54 am   BACKBONE|DICT|INTERRES
   105   54   55 1    
   106   54  110 1    
   107   55   56 1    
   108   55   59 1    
   109   55  111 1    
   110   56   57 am   BACKBONE|DICT|INTERRES
   111   56   58 2    
   112   57  112 1    
   113   57  113 1    
   114   59   60 1    
   115   59  114 1    
   116   59  115 1    
   117   60   61 1    
   118   61  116 1    
   119   61  117 1    
@<TRIPOS>SUBSTRUCTURE
     1 UNK         1 GROUP             0       ****    0 ROOT    
