@<TRIPOS>MOLECULE
3R8
117   119    1
SMALL
USER_CHARGES


@<TRIPOS>ATOM
      1 CA         15.7995  -25.8958  -40.1563 C.3       0 UNK        -0.2013 
      2 C          15.9714  -25.7444  -41.6601 C.2       0 UNK         0.4866 
      3 O          15.7401  -24.6603  -42.1970 O.2       0 UNK        -0.5176 
      4 N          16.3647  -26.8261  -42.3446 N.am      1 UNK        -0.4884 
      5 CA         16.6577  -26.8393  -43.7818 C.3       1 UNK         0.0853 
      6 C6         16.6059  -28.2806  -44.3435 C.3       10 UNK        -0.0849 
      7 S7         16.2591  -28.3126  -46.1360 S.3       10 UNK        -0.2776 
      8 C8         16.1267  -30.1018  -46.4464 C.3       10 UNK         0.0316 
      9 C9         17.4052  -30.8318  -46.0647 C.ar      10 UNK        -0.0863 
     10 C10        17.4418  -31.6359  -44.9218 C.ar      10 UNK        -0.1009 
     11 C11        18.6213  -32.2864  -44.5505 C.ar      10 UNK        -0.0712 
     12 C12        19.7696  -32.1270  -45.3331 C.ar      10 UNK        -0.0894 
     13 C13        19.7480  -31.3160  -46.4714 C.ar      10 UNK        -0.0745 
     14 C14        18.5576  -30.6836  -46.8414 C.ar      10 UNK        -0.0972 
     15 C15        21.0129  -31.1155  -47.2945 C.3       10 UNK         0.0209 
     16 S16        21.5645  -29.3785  -47.3046 S.3       10 UNK        -0.2568 
     17 C17        21.9676  -29.1013  -45.5466 C.3       10 UNK        -0.0983 
     18 CA         22.0630  -27.5980  -45.2002 C.3       3 UNK         0.0876 
     19 N          20.8217  -26.8744  -45.5071 N.am      3 UNK        -0.4424 
     20 C          20.7280  -25.5411  -45.6052 C.2       2 UNK         0.4918 
     21 O          21.6917  -24.7807  -45.5078 O.2       2 UNK        -0.4875 
     22 CA         19.3291  -24.9393  -45.8392 C.3       2 UNK         0.0481 
     23 CB         19.1196  -24.6594  -47.3360 C.3       2 UNK        -0.1831 
     24 N          18.1970  -25.7296  -45.3384 N.am      2 UNK        -0.4498 
     25 C          18.0099  -26.1514  -44.0792 C.2       1 UNK         0.5027 
     26 O          18.8550  -26.0398  -43.1878 O.2       1 UNK        -0.4969 
     27 C          22.5219  -27.3936  -43.7377 C.2       3 UNK         0.5005 
     28 O          23.7181  -27.5126  -43.4659 O.2       3 UNK        -0.5279 
     29 N          21.5780  -27.0563  -42.8428 N.am      4 UNK        -0.4463 
     30 CA         21.7639  -26.6004  -41.4627 C.3       4 UNK         0.0283 
     31 CB         22.1620  -25.1070  -41.4776 C.3       4 UNK        -0.1875 
     32 C          22.7001  -27.4928  -40.6219 C.2       4 UNK         0.4949 
     33 O          22.6100  -28.7200  -40.6985 O.2       4 UNK        -0.5039 
     34 N          23.5817  -26.8640  -39.8331 N.am      5 UNK        -0.4663 
     35 CA         24.5229  -27.5032  -38.9109 C.3       5 UNK         0.0242 
     36 CB         25.1676  -26.4207  -38.0299 C.3       5 UNK        -0.1982 
     37 C          25.6086  -28.3596  -39.5861 C.2       5 UNK         0.5017 
     38 O          26.1890  -29.2087  -38.9102 O.2       5 UNK        -0.5012 
     39 N          25.8618  -28.1467  -40.8870 N.am      6 UNK        -0.4439 
     40 CA         26.8108  -28.9400  -41.6748 C.3       6 UNK         0.0297 
     41 CB         27.1222  -28.2305  -43.0021 C.3       6 UNK        -0.2006 
     42 C          26.3083  -30.3729  -41.9200 C.2       6 UNK         0.4892 
     43 O          27.1073  -31.3082  -41.8638 O.2       6 UNK        -0.5089 
     44 N          24.9964  -30.5183  -42.1532 N.am      7 UNK        -0.4243 
     45 CA         24.3144  -31.8129  -42.2453 C.3       7 UNK         0.0196 
     46 CB         23.2074  -31.7177  -43.3055 C.3       7 UNK        -0.2007 
     47 C          23.7331  -32.2710  -40.8943 C.2       7 UNK         0.5020 
     48 O          23.3777  -33.4425  -40.7673 O.2       7 UNK        -0.5147 
     49 N          23.6406  -31.3460  -39.9263 N.am      8 UNK        -0.4734 
     50 CA         22.9744  -31.4610  -38.6223 C.3       8 UNK         0.0238 
     51 CB         23.6171  -32.5577  -37.7460 C.3       8 UNK        -0.1912 
     52 C          21.4481  -31.6061  -38.7766 C.2       8 UNK         0.5038 
     53 O          20.8302  -32.4217  -38.0888 O.2       8 UNK        -0.5046 
     54 N          20.8823  -30.8097  -39.6904 N.am      9 UNK        -0.4200 
     55 CA         19.4618  -30.7902  -40.0603 C.3       9 UNK         0.0839 
     56 C          18.7834  -29.4774  -39.5925 C.2       9 UNK         0.5513 
     57 N          17.4666  -29.4891  -39.4362 N.am      9 UNK        -0.7519 
     58 O          19.4229  -28.4487  -39.3848 O.2       9 UNK        -0.4960 
     59 C59        19.2851  -31.0003  -41.5867 C.3       10 UNK        -0.0876 
     60 S60        19.9060  -32.6363  -42.1086 S.3       10 UNK        -0.2414 
     61 C61        18.6489  -33.1695  -43.3105 C.3       10 UNK         0.0169 
     62 H62        14.8626  -25.4404  -39.8360 H         1 UNK         0.0903 
     63 H63        15.7835  -26.9420  -39.8537 H         1 UNK         0.0903 
     64 H64        16.6169  -25.3992  -39.6340 H         1 UNK         0.0903 
     65 H65        16.5793  -27.6763  -41.8437 H         1 UNK         0.3096 
     66 H66        15.8763  -26.2509  -44.2694 H         1 UNK         0.1121 
     67 H67        17.5309  -28.8200  -44.1291 H         1 UNK         0.0849 
     68 H68        15.8083  -28.8444  -43.8562 H         1 UNK         0.0849 
     69 H69        15.2708  -30.5005  -45.8994 H         1 UNK         0.0865 
     70 H70        15.9165  -30.2662  -47.5042 H         1 UNK         0.0865 
     71 H71        16.5522  -31.7506  -44.3175 H         1 UNK         0.1346 
     72 H72        20.6843  -32.6253  -45.0428 H         1 UNK         0.1412 
     73 H73        18.5363  -30.0516  -47.7190 H         1 UNK         0.1426 
     74 H74        20.8225  -31.4316  -48.3210 H         1 UNK         0.0716 
     75 H75        21.8254  -31.7428  -46.9242 H         1 UNK         0.0716 
     76 H76        21.2236  -29.5896  -44.9151 H         1 UNK         0.0695 
     77 H77        22.9210  -29.5922  -45.3497 H         1 UNK         0.0695 
     78 H78        22.8499  -27.1692  -45.8253 H         1 UNK         0.0983 
     79 H79        19.9919  -27.4334  -45.6388 H         1 UNK         0.3095 
     80 H80        19.3035  -23.9843  -45.3108 H         1 UNK         0.0454 
     81 H81        19.0893  -25.5815  -47.9180 H         1 UNK         0.0851 
     82 H82        18.1909  -24.1173  -47.5145 H         1 UNK         0.0851 
     83 H83        19.9291  -24.0479  -47.7375 H         1 UNK         0.0851 
     84 H84        17.4663  -25.9264  -46.0090 H         1 UNK         0.2976 
     85 H85        20.6237  -26.9653  -43.1764 H         1 UNK         0.3116 
     86 H86        20.7828  -26.6731  -40.9920 H         1 UNK         0.0646 
     87 H87        22.1470  -24.6740  -40.4767 H         1 UNK         0.0847 
     88 H88        21.4607  -24.5257  -42.0771 H         1 UNK         0.0847 
     89 H89        23.1559  -24.9549  -41.9010 H         1 UNK         0.0847 
     90 H90        23.5887  -25.8542  -39.8477 H         1 UNK         0.3040 
     91 H91        23.9480  -28.1690  -38.2642 H         1 UNK         0.1015 
     92 H92        24.4165  -25.8666  -37.4664 H         1 UNK         0.0786 
     93 H93        25.7404  -25.7060  -38.6222 H         1 UNK         0.0786 
     94 H94        25.8511  -26.8629  -37.3033 H         1 UNK         0.0786 
     95 H95        25.3165  -27.4526  -41.3811 H         1 UNK         0.3172 
     96 H96        27.7421  -29.0078  -41.1081 H         1 UNK         0.0595 
     97 H97        27.5096  -27.2254  -42.8353 H         1 UNK         0.0839 
     98 H98        26.2418  -28.1503  -43.6394 H         1 UNK         0.0839 
     99 H99        27.8785  -28.7789  -43.5652 H         1 UNK         0.0839 
    100 H100       24.4168  -29.6890  -42.1979 H         1 UNK         0.2998 
    101 H101       25.0201  -32.5813  -42.5686 H         1 UNK         0.0822 
    102 H102       23.6254  -31.5045  -44.2884 H         1 UNK         0.0787 
    103 H103       22.6663  -32.6609  -43.3886 H         1 UNK         0.0787 
    104 H104       22.4796  -30.9421  -43.0626 H         1 UNK         0.0787 
    105 H105       23.9086  -30.4045  -40.1813 H         1 UNK         0.3055 
    106 H106       23.1319  -30.5089  -38.1141 H         1 UNK         0.1106 
    107 H107       23.4335  -33.5571  -38.1409 H         1 UNK         0.0828 
    108 H108       24.6953  -32.4196  -37.6665 H         1 UNK         0.0828 
    109 H109       23.2116  -32.5326  -36.7339 H         1 UNK         0.0828 
    110 H110       21.4624  -30.1130  -40.1511 H         1 UNK         0.2931 
    111 H111       18.9462  -31.6067  -39.5506 H         1 UNK         0.0412 
    112 H112       16.9302  -30.3300  -39.5850 H         1 UNK         0.3472 
    113 H113       17.0108  -28.6569  -39.0998 H         1 UNK         0.3472 
    114 H114       18.2334  -30.9163  -41.8662 H         1 UNK         0.0970 
    115 H115       19.8148  -30.2297  -42.1505 H         1 UNK         0.0970 
    116 H116       18.8676  -34.1941  -43.6136 H         1 UNK         0.0612 
    117 H117       17.6748  -33.1939  -42.8195 H         1 UNK         0.0612 
@<TRIPOS>BOND
     1    1    2 1    
     2    1   62 1    
     3    1   63 1    
     4    1   64 1    
     5    2    3 2    
     6    2    4 am   BACKBONE|DICT|INTERRES
     7    4    5 1    
     8    4   65 1    
     9    5    6 1    
    10    5   25 1    
    11    5   66 1    
    12    6    7 1    
    13    6   67 1    
    14    6   68 1    
    15    7    8 1    
    16    8    9 1    
    17    8   69 1    
    18    8   70 1    
    19    9   10 ar   
    20    9   14 ar   
    21   10   11 ar   
    22   10   71 1    
    23   11   12 ar   
    24   11   61 1    
    25   12   13 ar   
    26   12   72 1    
    27   13   14 ar   
    28   13   15 1    
    29   14   73 1    
    30   15   16 1    
    31   15   74 1    
    32   15   75 1    
    33   16   17 1    
    34   17   18 1    
    35   17   76 1    
    36   17   77 1    
    37   18   19 1    
    38   18   27 1    
    39   18   78 1    
    40   19   20 am   BACKBONE|DICT|INTERRES
    41   19   79 1    
    42   20   21 2    
    43   20   22 1    
    44   22   23 1    
    45   22   24 1    
    46   22   80 1    
    47   23   81 1    
    48   23   82 1    
    49   23   83 1    
    50   24   25 am   BACKBONE|DICT|INTERRES
    51   24   84 1    
    52   25   26 2    
    53   27   28 2    
    54   27   29 am   BACKBONE|DICT|INTERRES
    55   29   30 1    
    56   29   85 1    
    57   30   31 1    
    58   30   32 1    
    59   30   86 1    
    60   31   87 1    
    61   31   88 1    
    62   31   89 1    
    63   32   33 2    
    64   32   34 am   BACKBONE|DICT|INTERRES
    65   34   35 1    
    66   34   90 1    
    67   35   36 1    
    68   35   37 1    
    69   35   91 1    
    70   36   92 1    
    71   36   93 1    
    72   36   94 1    
    73   37   38 2    
    74   37   39 am   BACKBONE|DICT|INTERRES
    75   39   40 1    
    76   39   95 1    
    77   40   41 1    
    78   40   42 1    
    79   40   96 1    
    80   41   97 1    
    81   41   98 1    
    82   41   99 1    
    83   42   43 2    
    84   42   44 am   BACKBONE|DICT|INTERRES
    85   44   45 1    
    86   44  100 1    
    87   45   46 1    
    88   45   47 1    
    89   45  101 1    
    90   46  102 1    
    91   46  103 1    
    92   46  104 1    
    93   47   48 2    
    94   47   49 am   BACKBONE|DICT|INTERRES
    95   49   50 1    
    96   49  105 1    
    97   50   51 1    
    98   50   52 1    
    99   50  106 1    
   100   51  107 1    
   101   51  108 1    
   102   51  109 1    
   103   52   53 2    
   104   52   54 am   BACKBONE|DICT|INTERRES
   105   54   55 1    
   106   54  110 1    
   107   55   56 1    
   108   55   59 1    
   109   55  111 1    
   110   56   57 am   BACKBONE|DICT|INTERRES
   111   56   58 2    
   112   57  112 1    
   113   57  113 1    
   114   59   60 1    
   115   59  114 1    
   116   59  115 1    
   117   60   61 1    
   118   61  116 1    
   119   61  117 1    
@<TRIPOS>SUBSTRUCTURE
     1 UNK         1 GROUP             0       ****    0 ROOT    
