@<TRIPOS>MOLECULE
3R8
117   119    1
SMALL
USER_CHARGES


@<TRIPOS>ATOM
      1 CA         14.1904  -24.9972  -39.7261 C.3       0 UNK        -0.2013 
      2 C          15.3773  -24.8889  -40.6718 C.2       0 UNK         0.4866 
      3 O          16.4304  -24.3856  -40.2786 O.2       0 UNK        -0.5176 
      4 N          15.2131  -25.3473  -41.9181 N.am      1 UNK        -0.4884 
      5 CA         16.2665  -25.4030  -42.9361 C.3       1 UNK         0.0853 
      6 C6         15.6750  -25.4985  -44.3681 C.3       10 UNK        -0.0849 
      7 S7         14.5273  -26.9011  -44.6226 S.3       10 UNK        -0.2776 
      8 C8         15.1580  -27.6481  -46.1678 C.3       10 UNK         0.0316 
      9 C9         16.3142  -28.6420  -46.0185 C.ar      10 UNK        -0.0863 
     10 C10        16.5379  -29.3731  -44.8423 C.ar      10 UNK        -0.1009 
     11 C11        17.5440  -30.3448  -44.7832 C.ar      10 UNK        -0.0712 
     12 C12        18.3120  -30.6027  -45.9200 C.ar      10 UNK        -0.0894 
     13 C13        18.1190  -29.8715  -47.0931 C.ar      10 UNK        -0.0745 
     14 C14        17.1232  -28.8914  -47.1335 C.ar      10 UNK        -0.0972 
     15 C15        18.9529  -30.1826  -48.3280 C.3       10 UNK         0.0209 
     16 S16        20.7427  -30.0909  -48.0009 S.3       10 UNK        -0.2568 
     17 C17        21.0256  -28.2888  -47.9173 C.3       10 UNK        -0.0983 
     18 CA         21.4847  -27.7468  -46.5400 C.3       3 UNK         0.0876 
     19 N          20.4565  -27.8526  -45.4962 N.am      3 UNK        -0.4424 
     20 C          20.4684  -27.0977  -44.3882 C.2       2 UNK         0.4918 
     21 O          21.2250  -26.1412  -44.2174 O.2       2 UNK        -0.4875 
     22 CA         19.4801  -27.4567  -43.2811 C.3       2 UNK         0.0481 
     23 CB         20.1915  -27.6385  -41.9250 C.3       2 UNK        -0.1831 
     24 N          18.4699  -26.4109  -43.2197 N.am      2 UNK        -0.4498 
     25 C          17.2625  -26.5478  -42.6621 C.2       1 UNK         0.5027 
     26 O          16.9123  -27.5339  -42.0068 O.2       1 UNK        -0.4969 
     27 C          22.8219  -28.3510  -46.0555 C.2       3 UNK         0.5005 
     28 O          23.8846  -27.7936  -46.3352 O.2       3 UNK        -0.5279 
     29 N          22.7394  -29.4260  -45.2561 N.am      4 UNK        -0.4463 
     30 CA         23.8382  -30.0061  -44.4841 C.3       4 UNK         0.0283 
     31 CB         23.5583  -31.5042  -44.2648 C.3       4 UNK        -0.1875 
     32 C          23.9994  -29.2388  -43.1598 C.2       4 UNK         0.4949 
     33 O          23.8468  -29.8185  -42.0831 O.2       4 UNK        -0.5039 
     34 N          24.2635  -27.9297  -43.2683 N.am      5 UNK        -0.4663 
     35 CA         24.2854  -26.9603  -42.1676 C.3       5 UNK         0.0242 
     36 CB         24.4955  -25.5502  -42.7410 C.3       5 UNK        -0.1982 
     37 C          25.3287  -27.2538  -41.0785 C.2       5 UNK         0.5017 
     38 O          25.0793  -26.9477  -39.9132 O.2       5 UNK        -0.5012 
     39 N          26.4560  -27.8662  -41.4673 N.am      6 UNK        -0.4439 
     40 CA         27.5279  -28.2954  -40.5635 C.3       6 UNK         0.0297 
     41 CB         28.7538  -28.7153  -41.3903 C.3       6 UNK        -0.2006 
     42 C          27.1063  -29.4309  -39.6124 C.2       6 UNK         0.4892 
     43 O          27.6145  -29.4962  -38.4926 O.2       6 UNK        -0.5089 
     44 N          26.1874  -30.2916  -40.0704 N.am      7 UNK        -0.4243 
     45 CA         25.6062  -31.3875  -39.2923 C.3       7 UNK         0.0196 
     46 CB         25.4691  -32.6147  -40.2105 C.3       7 UNK        -0.2007 
     47 C          24.2325  -31.0223  -38.7049 C.2       7 UNK         0.5020 
     48 O          23.7189  -31.7786  -37.8809 O.2       7 UNK        -0.5147 
     49 N          23.6293  -29.9233  -39.1854 N.am      8 UNK        -0.4734 
     50 CA         22.2384  -29.4977  -38.9717 C.3       8 UNK         0.0238 
     51 CB         22.0229  -29.0420  -37.5136 C.3       8 UNK        -0.1912 
     52 C          21.2231  -30.5680  -39.4275 C.2       8 UNK         0.5038 
     53 O          20.1797  -30.7354  -38.7939 O.2       8 UNK        -0.5046 
     54 N          21.5819  -31.2984  -40.4943 N.am      9 UNK        -0.4200 
     55 CA         20.9079  -32.5097  -40.9960 C.3       9 UNK         0.0839 
     56 C          20.9293  -33.7264  -40.0174 C.2       9 UNK         0.5513 
     57 N          21.7341  -33.7310  -38.9608 N.am      9 UNK        -0.7519 
     58 O          20.2283  -34.7108  -40.2384 O.2       9 UNK        -0.4960 
     59 C59        19.4892  -32.2300  -41.5694 C.3       10 UNK        -0.0876 
     60 S60        19.5347  -31.0885  -42.9857 S.3       10 UNK        -0.2414 
     61 C61        17.7871  -31.1404  -43.5062 C.3       10 UNK         0.0169 
     62 H62        14.4532  -25.6092  -38.8637 H         1 UNK         0.0903 
     63 H63        13.9036  -24.0087  -39.3684 H         1 UNK         0.0903 
     64 H64        13.3236  -25.4475  -40.2097 H         1 UNK         0.0903 
     65 H65        14.3434  -25.7893  -42.1823 H         1 UNK         0.3096 
     66 H66        16.8291  -24.4681  -42.8743 H         1 UNK         0.1121 
     67 H67        15.1250  -24.5825  -44.5897 H         1 UNK         0.0849 
     68 H68        16.4755  -25.5377  -45.1093 H         1 UNK         0.0849 
     69 H69        14.3302  -28.1788  -46.6398 H         1 UNK         0.0865 
     70 H70        15.4324  -26.8493  -46.8589 H         1 UNK         0.0865 
     71 H71        15.9202  -29.2025  -43.9718 H         1 UNK         0.1346 
     72 H72        19.0693  -31.3748  -45.8898 H         1 UNK         0.1412 
     73 H73        16.9515  -28.3450  -48.0514 H         1 UNK         0.1426 
     74 H74        18.7009  -29.5185  -49.1563 H         1 UNK         0.0716 
     75 H75        18.7124  -31.1927  -48.6623 H         1 UNK         0.0716 
     76 H76        21.7727  -28.0408  -48.6734 H         1 UNK         0.0695 
     77 H77        20.1201  -27.7647  -48.2268 H         1 UNK         0.0695 
     78 H78        21.6785  -26.6818  -46.6902 H         1 UNK         0.0983 
     79 H79        19.7710  -28.5890  -45.6019 H         1 UNK         0.3095 
     80 H80        18.9884  -28.3886  -43.5488 H         1 UNK         0.0454 
     81 H81        20.9964  -28.3703  -42.0063 H         1 UNK         0.0851 
     82 H82        20.6291  -26.7053  -41.5693 H         1 UNK         0.0851 
     83 H83        19.5049  -28.0019  -41.1605 H         1 UNK         0.0851 
     84 H84        18.6936  -25.5702  -43.7362 H         1 UNK         0.2976 
     85 H85        21.8207  -29.8010  -45.0695 H         1 UNK         0.3116 
     86 H86        24.7718  -29.9123  -45.0425 H         1 UNK         0.0646 
     87 H87        24.3629  -31.9740  -43.6977 H         1 UNK         0.0847 
     88 H88        23.4790  -32.0350  -45.2135 H         1 UNK         0.0847 
     89 H89        22.6317  -31.6663  -43.7132 H         1 UNK         0.0847 
     90 H90        24.3526  -27.5533  -44.2054 H         1 UNK         0.3040 
     91 H91        23.3042  -26.9905  -41.6894 H         1 UNK         0.1015 
     92 H92        25.4497  -25.4635  -43.2623 H         1 UNK         0.0786 
     93 H93        24.4862  -24.8001  -41.9487 H         1 UNK         0.0786 
     94 H94        23.7048  -25.2849  -43.4429 H         1 UNK         0.0786 
     95 H95        26.5699  -28.0687  -42.4502 H         1 UNK         0.3172 
     96 H96        27.8096  -27.4382  -39.9481 H         1 UNK         0.0595 
     97 H97        29.5773  -29.0154  -40.7405 H         1 UNK         0.0839 
     98 H98        28.5325  -29.5594  -42.0447 H         1 UNK         0.0839 
     99 H99        29.1164  -27.8946  -42.0095 H         1 UNK         0.0839 
    100 H100       25.8058  -30.1482  -40.9968 H         1 UNK         0.2998 
    101 H101       26.2617  -31.6517  -38.4596 H         1 UNK         0.0822 
    102 H102       25.0601  -33.4679  -39.6672 H         1 UNK         0.0787 
    103 H103       24.8054  -32.4171  -41.0535 H         1 UNK         0.0787 
    104 H104       26.4364  -32.9205  -40.6097 H         1 UNK         0.0787 
    105 H105       24.1267  -29.4059  -39.8981 H         1 UNK         0.3055 
    106 H106       22.0773  -28.6329  -39.6172 H         1 UNK         0.1106 
    107 H107       22.1086  -29.8726  -36.8124 H         1 UNK         0.0828 
    108 H108       22.7494  -28.2824  -37.2252 H         1 UNK         0.0828 
    109 H109       21.0313  -28.6072  -37.3822 H         1 UNK         0.0828 
    110 H110       22.4459  -31.0508  -40.9616 H         1 UNK         0.2931 
    111 H111       21.5260  -32.8422  -41.8305 H         1 UNK         0.0412 
    112 H112       22.3238  -32.9378  -38.7351 H         1 UNK         0.3472 
    113 H113       21.7352  -34.5363  -38.3553 H         1 UNK         0.3472 
    114 H114       18.8282  -31.8265  -40.8011 H         1 UNK         0.0970 
    115 H115       19.0249  -33.1553  -41.9152 H         1 UNK         0.0970 
    116 H116       17.1691  -30.7595  -42.6914 H         1 UNK         0.0612 
    117 H117       17.4884  -32.1758  -43.6746 H         1 UNK         0.0612 
@<TRIPOS>BOND
     1    1    2 1    
     2    1   62 1    
     3    1   63 1    
     4    1   64 1    
     5    2    3 2    
     6    2    4 am   BACKBONE|DICT|INTERRES
     7    4    5 1    
     8    4   65 1    
     9    5    6 1    
    10    5   25 1    
    11    5   66 1    
    12    6    7 1    
    13    6   67 1    
    14    6   68 1    
    15    7    8 1    
    16    8    9 1    
    17    8   69 1    
    18    8   70 1    
    19    9   10 ar   
    20    9   14 ar   
    21   10   11 ar   
    22   10   71 1    
    23   11   12 ar   
    24   11   61 1    
    25   12   13 ar   
    26   12   72 1    
    27   13   14 ar   
    28   13   15 1    
    29   14   73 1    
    30   15   16 1    
    31   15   74 1    
    32   15   75 1    
    33   16   17 1    
    34   17   18 1    
    35   17   76 1    
    36   17   77 1    
    37   18   19 1    
    38   18   27 1    
    39   18   78 1    
    40   19   20 am   BACKBONE|DICT|INTERRES
    41   19   79 1    
    42   20   21 2    
    43   20   22 1    
    44   22   23 1    
    45   22   24 1    
    46   22   80 1    
    47   23   81 1    
    48   23   82 1    
    49   23   83 1    
    50   24   25 am   BACKBONE|DICT|INTERRES
    51   24   84 1    
    52   25   26 2    
    53   27   28 2    
    54   27   29 am   BACKBONE|DICT|INTERRES
    55   29   30 1    
    56   29   85 1    
    57   30   31 1    
    58   30   32 1    
    59   30   86 1    
    60   31   87 1    
    61   31   88 1    
    62   31   89 1    
    63   32   33 2    
    64   32   34 am   BACKBONE|DICT|INTERRES
    65   34   35 1    
    66   34   90 1    
    67   35   36 1    
    68   35   37 1    
    69   35   91 1    
    70   36   92 1    
    71   36   93 1    
    72   36   94 1    
    73   37   38 2    
    74   37   39 am   BACKBONE|DICT|INTERRES
    75   39   40 1    
    76   39   95 1    
    77   40   41 1    
    78   40   42 1    
    79   40   96 1    
    80   41   97 1    
    81   41   98 1    
    82   41   99 1    
    83   42   43 2    
    84   42   44 am   BACKBONE|DICT|INTERRES
    85   44   45 1    
    86   44  100 1    
    87   45   46 1    
    88   45   47 1    
    89   45  101 1    
    90   46  102 1    
    91   46  103 1    
    92   46  104 1    
    93   47   48 2    
    94   47   49 am   BACKBONE|DICT|INTERRES
    95   49   50 1    
    96   49  105 1    
    97   50   51 1    
    98   50   52 1    
    99   50  106 1    
   100   51  107 1    
   101   51  108 1    
   102   51  109 1    
   103   52   53 2    
   104   52   54 am   BACKBONE|DICT|INTERRES
   105   54   55 1    
   106   54  110 1    
   107   55   56 1    
   108   55   59 1    
   109   55  111 1    
   110   56   57 am   BACKBONE|DICT|INTERRES
   111   56   58 2    
   112   57  112 1    
   113   57  113 1    
   114   59   60 1    
   115   59  114 1    
   116   59  115 1    
   117   60   61 1    
   118   61  116 1    
   119   61  117 1    
@<TRIPOS>SUBSTRUCTURE
     1 UNK         1 GROUP             0       ****    0 ROOT    
