@<TRIPOS>MOLECULE
3R8
117   119    1
SMALL
USER_CHARGES


@<TRIPOS>ATOM
      1 CA         13.7721  -25.2799  -41.7235 C.3       0 UNK        -0.2013 
      2 C          14.7973  -25.7711  -42.7350 C.2       0 UNK         0.4866 
      3 O          15.7753  -26.4102  -42.3480 O.2       0 UNK        -0.5176 
      4 N          14.5741  -25.4792  -44.0237 N.am      1 UNK        -0.4884 
      5 CA         15.4497  -25.8100  -45.1545 C.3       1 UNK         0.0853 
      6 C6         15.5796  -27.3444  -45.3910 C.3       10 UNK        -0.0849 
      7 S7         16.0358  -27.7362  -47.1147 S.3       10 UNK        -0.2776 
      8 C8         16.2638  -29.5380  -47.0335 C.3       10 UNK         0.0316 
      9 C9         17.5537  -29.9382  -46.3286 C.ar      10 UNK        -0.0863 
     10 C10        17.5111  -30.4904  -45.0432 C.ar      10 UNK        -0.1009 
     11 C11        18.6792  -30.9554  -44.4309 C.ar      10 UNK        -0.0712 
     12 C12        19.8914  -30.8592  -45.1163 C.ar      10 UNK        -0.0894 
     13 C13        19.9602  -30.2713  -46.3816 C.ar      10 UNK        -0.0745 
     14 C14        18.7840  -29.8156  -46.9864 C.ar      10 UNK        -0.0972 
     15 C15        21.2995  -30.1799  -47.1056 C.3       10 UNK         0.0209 
     16 S16        22.0966  -28.5465  -46.9433 S.3       10 UNK        -0.2568 
     17 C17        22.4997  -28.4781  -45.1614 C.3       10 UNK        -0.0983 
     18 CA         22.6102  -27.0314  -44.6026 C.3       3 UNK         0.0876 
     19 N          21.5103  -26.1300  -44.9806 N.am      3 UNK        -0.4424 
     20 C          20.1959  -26.3221  -44.8099 C.2       2 UNK         0.4918 
     21 O          19.7144  -27.3056  -44.2423 O.2       2 UNK        -0.4875 
     22 CA         19.2691  -25.2207  -45.3485 C.3       2 UNK         0.0481 
     23 CB         19.6395  -24.7778  -46.7783 C.3       2 UNK        -0.1831 
     24 N          17.9028  -25.7265  -45.3487 N.am      2 UNK        -0.4498 
     25 C          16.7913  -25.0413  -45.0698 C.2       1 UNK         0.5027 
     26 O          16.7836  -23.8410  -44.7836 O.2       1 UNK        -0.4969 
     27 C          22.8436  -27.0403  -43.0788 C.2       3 UNK         0.5005 
     28 O          23.9462  -26.7177  -42.6315 O.2       3 UNK        -0.5279 
     29 N          21.7943  -27.3837  -42.3171 N.am      4 UNK        -0.4463 
     30 CA         21.7084  -27.4157  -40.8563 C.3       4 UNK         0.0283 
     31 CB         21.5792  -25.9788  -40.3045 C.3       4 UNK        -0.1875 
     32 C          22.8570  -28.2283  -40.2352 C.2       4 UNK         0.4949 
     33 O          22.9033  -29.4438  -40.4264 O.2       4 UNK        -0.5039 
     34 N          23.7770  -27.5538  -39.5334 N.am      5 UNK        -0.4663 
     35 CA         24.9551  -28.1367  -38.8867 C.3       5 UNK         0.0242 
     36 CB         25.6904  -27.0406  -38.0995 C.3       5 UNK        -0.1982 
     37 C          25.9245  -28.8495  -39.8470 C.2       5 UNK         0.5017 
     38 O          26.6170  -29.7674  -39.4084 O.2       5 UNK        -0.5012 
     39 N          25.9378  -28.4594  -41.1319 N.am      6 UNK        -0.4439 
     40 CA         26.7417  -29.1073  -42.1751 C.3       6 UNK         0.0297 
     41 CB         26.7908  -28.2127  -43.4241 C.3       6 UNK        -0.2006 
     42 C          26.2385  -30.5154  -42.5454 C.2       6 UNK         0.4892 
     43 O          27.0314  -31.3238  -43.0289 O.2       6 UNK        -0.5089 
     44 N          24.9466  -30.7818  -42.3113 N.am      7 UNK        -0.4243 
     45 CA         24.2912  -32.0699  -42.5508 C.3       7 UNK         0.0196 
     46 CB         23.0671  -31.8198  -43.4418 C.3       7 UNK        -0.2007 
     47 C          23.8742  -32.7663  -41.2424 C.2       7 UNK         0.5020 
     48 O          23.3007  -33.8541  -41.3026 O.2       7 UNK        -0.5147 
     49 N          24.1513  -32.1307  -40.0938 N.am      8 UNK        -0.4734 
     50 CA         23.7543  -32.5168  -38.7351 C.3       8 UNK         0.0238 
     51 CB         24.4627  -33.8192  -38.3036 C.3       8 UNK        -0.1912 
     52 C          22.2236  -32.5638  -38.5374 C.2       8 UNK         0.5038 
     53 O          21.7323  -33.4313  -37.8121 O.2       8 UNK        -0.5046 
     54 N          21.5038  -31.6260  -39.1691 N.am      9 UNK        -0.4200 
     55 CA         20.0439  -31.4594  -39.0646 C.3       9 UNK         0.0839 
     56 C          19.6084  -30.0871  -38.4753 C.2       9 UNK         0.5513 
     57 N          20.5151  -29.2824  -37.9331 N.am      9 UNK        -0.7519 
     58 O          18.4245  -29.7600  -38.4726 O.2       9 UNK        -0.4960 
     59 C59        19.3126  -31.8421  -40.3804 C.3       10 UNK        -0.0876 
     60 S60        19.6420  -30.7582  -41.8131 S.3       10 UNK        -0.2414 
     61 C61        18.6289  -31.6200  -43.0606 C.3       10 UNK         0.0169 
     62 H62        12.9537  -24.7399  -42.1994 H         1 UNK         0.0903 
     63 H63        13.3494  -26.1234  -41.1783 H         1 UNK         0.0903 
     64 H64        14.2456  -24.6122  -41.0042 H         1 UNK         0.0903 
     65 H65        13.7648  -24.9223  -44.2631 H         1 UNK         0.3096 
     66 H66        14.9428  -25.3897  -46.0250 H         1 UNK         0.1121 
     67 H67        14.6206  -27.8278  -45.1975 H         1 UNK         0.0849 
     68 H68        16.2850  -27.8007  -44.6937 H         1 UNK         0.0849 
     69 H69        15.3974  -29.9922  -46.5498 H         1 UNK         0.0865 
     70 H70        16.2787  -29.9328  -48.0505 H         1 UNK         0.0865 
     71 H71        16.5631  -30.5874  -44.5318 H         1 UNK         0.1346 
     72 H72        20.7873  -31.2420  -44.6559 H         1 UNK         0.1412 
     73 H73        18.8230  -29.3839  -47.9773 H         1 UNK         0.1426 
     74 H74        21.1508  -30.3899  -48.1657 H         1 UNK         0.0716 
     75 H75        21.9840  -30.9474  -46.7406 H         1 UNK         0.0716 
     76 H76        23.4395  -29.0111  -45.0079 H         1 UNK         0.0695 
     77 H77        21.7465  -29.0331  -44.6052 H         1 UNK         0.0695 
     78 H78        23.5044  -26.5892  -45.0454 H         1 UNK         0.0983 
     79 H79        21.8048  -25.2743  -45.4281 H         1 UNK         0.3095 
     80 H80        19.3473  -24.3680  -44.6714 H         1 UNK         0.0454 
     81 H81        19.6754  -25.6262  -47.4634 H         1 UNK         0.0851 
     82 H82        20.6121  -24.2867  -46.8097 H         1 UNK         0.0851 
     83 H83        18.9147  -24.0648  -47.1715 H         1 UNK         0.0851 
     84 H84        17.8250  -26.7229  -45.5149 H         1 UNK         0.2976 
     85 H85        20.9390  -27.6228  -42.8150 H         1 UNK         0.3116 
     86 H86        20.7893  -27.9502  -40.6121 H         1 UNK         0.0646 
     87 H87        22.4336  -25.3544  -40.5684 H         1 UNK         0.0847 
     88 H88        21.4834  -25.9788  -39.2177 H         1 UNK         0.0847 
     89 H89        20.6872  -25.4922  -40.6994 H         1 UNK         0.0847 
     90 H90        23.6722  -26.5522  -39.4593 H         1 UNK         0.3040 
     91 H91        24.5998  -28.8871  -38.1773 H         1 UNK         0.1015 
     92 H92        26.0452  -26.2430  -38.7536 H         1 UNK         0.0786 
     93 H93        26.5599  -27.4479  -37.5811 H         1 UNK         0.0786 
     94 H94        25.0456  -26.5939  -37.3424 H         1 UNK         0.0786 
     95 H95        25.3103  -27.7171  -41.4296 H         1 UNK         0.3172 
     96 H96        27.7608  -29.2110  -41.7961 H         1 UNK         0.0595 
     97 H97        25.8138  -28.1257  -43.8997 H         1 UNK         0.0839 
     98 H98        27.4749  -28.6236  -44.1679 H         1 UNK         0.0839 
     99 H99        27.1393  -27.2082  -43.1837 H         1 UNK         0.0839 
    100 H100       24.3683  -30.0638  -41.8896 H         1 UNK         0.2998 
    101 H101       24.9622  -32.7548  -43.0732 H         1 UNK         0.0822 
    102 H102       23.3612  -31.4222  -44.4129 H         1 UNK         0.0787 
    103 H103       22.5121  -32.7411  -43.6244 H         1 UNK         0.0787 
    104 H104       22.3841  -31.1084  -42.9765 H         1 UNK         0.0787 
    105 H105       24.6227  -31.2401  -40.1671 H         1 UNK         0.3055 
    106 H106       24.1108  -31.7211  -38.0790 H         1 UNK         0.1106 
    107 H107       24.2841  -34.0310  -37.2487 H         1 UNK         0.0828 
    108 H108       24.1094  -34.6808  -38.8708 H         1 UNK         0.0828 
    109 H109       25.5417  -33.7473  -38.4391 H         1 UNK         0.0828 
    110 H110       21.9848  -30.9347  -39.7402 H         1 UNK         0.2931 
    111 H111       19.6760  -32.1638  -38.3170 H         1 UNK         0.0412 
    112 H112       21.4821  -29.5582  -37.8890 H         1 UNK         0.3472 
    113 H113       20.2165  -28.4090  -37.5289 H         1 UNK         0.3472 
    114 H114       19.5864  -32.8619  -40.6554 H         1 UNK         0.0970 
    115 H115       18.2346  -31.8652  -40.2102 H         1 UNK         0.0970 
    116 H116       18.9801  -32.6485  -43.1563 H         1 UNK         0.0612 
    117 H117       17.6004  -31.6747  -42.7005 H         1 UNK         0.0612 
@<TRIPOS>BOND
     1    1    2 1    
     2    1   62 1    
     3    1   63 1    
     4    1   64 1    
     5    2    3 2    
     6    2    4 am   BACKBONE|DICT|INTERRES
     7    4    5 1    
     8    4   65 1    
     9    5    6 1    
    10    5   25 1    
    11    5   66 1    
    12    6    7 1    
    13    6   67 1    
    14    6   68 1    
    15    7    8 1    
    16    8    9 1    
    17    8   69 1    
    18    8   70 1    
    19    9   10 ar   
    20    9   14 ar   
    21   10   11 ar   
    22   10   71 1    
    23   11   12 ar   
    24   11   61 1    
    25   12   13 ar   
    26   12   72 1    
    27   13   14 ar   
    28   13   15 1    
    29   14   73 1    
    30   15   16 1    
    31   15   74 1    
    32   15   75 1    
    33   16   17 1    
    34   17   18 1    
    35   17   76 1    
    36   17   77 1    
    37   18   19 1    
    38   18   27 1    
    39   18   78 1    
    40   19   20 am   BACKBONE|DICT|INTERRES
    41   19   79 1    
    42   20   21 2    
    43   20   22 1    
    44   22   23 1    
    45   22   24 1    
    46   22   80 1    
    47   23   81 1    
    48   23   82 1    
    49   23   83 1    
    50   24   25 am   BACKBONE|DICT|INTERRES
    51   24   84 1    
    52   25   26 2    
    53   27   28 2    
    54   27   29 am   BACKBONE|DICT|INTERRES
    55   29   30 1    
    56   29   85 1    
    57   30   31 1    
    58   30   32 1    
    59   30   86 1    
    60   31   87 1    
    61   31   88 1    
    62   31   89 1    
    63   32   33 2    
    64   32   34 am   BACKBONE|DICT|INTERRES
    65   34   35 1    
    66   34   90 1    
    67   35   36 1    
    68   35   37 1    
    69   35   91 1    
    70   36   92 1    
    71   36   93 1    
    72   36   94 1    
    73   37   38 2    
    74   37   39 am   BACKBONE|DICT|INTERRES
    75   39   40 1    
    76   39   95 1    
    77   40   41 1    
    78   40   42 1    
    79   40   96 1    
    80   41   97 1    
    81   41   98 1    
    82   41   99 1    
    83   42   43 2    
    84   42   44 am   BACKBONE|DICT|INTERRES
    85   44   45 1    
    86   44  100 1    
    87   45   46 1    
    88   45   47 1    
    89   45  101 1    
    90   46  102 1    
    91   46  103 1    
    92   46  104 1    
    93   47   48 2    
    94   47   49 am   BACKBONE|DICT|INTERRES
    95   49   50 1    
    96   49  105 1    
    97   50   51 1    
    98   50   52 1    
    99   50  106 1    
   100   51  107 1    
   101   51  108 1    
   102   51  109 1    
   103   52   53 2    
   104   52   54 am   BACKBONE|DICT|INTERRES
   105   54   55 1    
   106   54  110 1    
   107   55   56 1    
   108   55   59 1    
   109   55  111 1    
   110   56   57 am   BACKBONE|DICT|INTERRES
   111   56   58 2    
   112   57  112 1    
   113   57  113 1    
   114   59   60 1    
   115   59  114 1    
   116   59  115 1    
   117   60   61 1    
   118   61  116 1    
   119   61  117 1    
@<TRIPOS>SUBSTRUCTURE
     1 UNK         1 GROUP             0       ****    0 ROOT    
