@<TRIPOS>MOLECULE
3R8
117   119    1
SMALL
USER_CHARGES


@<TRIPOS>ATOM
      1 CA         17.2117  -24.6455  -41.0168 C.3       0 UNK        -0.2013 
      2 C          16.3475  -24.4111  -42.2540 C.2       0 UNK         0.4866 
      3 O          15.6218  -23.4190  -42.2885 O.2       0 UNK        -0.5176 
      4 N          16.3606  -25.2670  -43.2870 N.am      1 UNK        -0.4884 
      5 CA         17.1766  -26.4699  -43.5051 C.3       1 UNK         0.0853 
      6 C6         16.9626  -27.6089  -42.4675 C.3       10 UNK        -0.0849 
      7 S7         15.2259  -28.1346  -42.2583 S.3       10 UNK        -0.2776 
      8 C8         14.7726  -28.8163  -43.8943 C.3       10 UNK         0.0316 
      9 C9         15.8265  -29.7421  -44.4937 C.ar      10 UNK        -0.0863 
     10 C10        16.2942  -30.8513  -43.7804 C.ar      10 UNK        -0.1009 
     11 C11        17.2925  -31.6711  -44.3172 C.ar      10 UNK        -0.0712 
     12 C12        17.7809  -31.4095  -45.5992 C.ar      10 UNK        -0.0894 
     13 C13        17.3304  -30.2998  -46.3175 C.ar      10 UNK        -0.0745 
     14 C14        16.3480  -29.4745  -45.7638 C.ar      10 UNK        -0.0972 
     15 C15        17.9257  -29.9742  -47.6786 C.3       10 UNK         0.0209 
     16 S16        19.2252  -28.7031  -47.5542 S.3       10 UNK        -0.2568 
     17 C17        20.6057  -29.6494  -46.8266 C.3       10 UNK        -0.0983 
     18 CA         21.6438  -28.7367  -46.1349 C.3       3 UNK         0.0876 
     19 N          21.0706  -27.9865  -45.0150 N.am      3 UNK        -0.4424 
     20 C          21.6849  -26.9770  -44.3828 C.2       2 UNK         0.4918 
     21 O          22.7354  -26.4668  -44.7763 O.2       2 UNK        -0.4875 
     22 CA         21.0435  -26.4885  -43.0710 C.3       2 UNK         0.0481 
     23 CB         21.4392  -25.0449  -42.6965 C.3       2 UNK        -0.1831 
     24 N          19.5912  -26.6854  -42.9999 N.am      2 UNK        -0.4498 
     25 C          18.6536  -26.0958  -43.7598 C.2       1 UNK         0.5027 
     26 O          18.9091  -25.2809  -44.6480 O.2       1 UNK        -0.4969 
     27 C          22.8368  -29.5620  -45.6155 C.2       3 UNK         0.5005 
     28 O          22.7075  -30.2215  -44.5815 O.2       3 UNK        -0.5279 
     29 N          23.9809  -29.4718  -46.3076 N.am      4 UNK        -0.4463 
     30 CA         25.3112  -29.9641  -45.9184 C.3       4 UNK         0.0283 
     31 CB         25.3348  -31.4869  -45.6719 C.3       4 UNK        -0.1875 
     32 C          25.9111  -29.1835  -44.7336 C.2       4 UNK         0.4949 
     33 O          27.0029  -28.6318  -44.8735 O.2       4 UNK        -0.5039 
     34 N          25.1849  -29.1177  -43.6127 N.am      5 UNK        -0.4663 
     35 CA         25.5143  -28.3415  -42.4215 C.3       5 UNK         0.0242 
     36 CB         26.6454  -29.0288  -41.6302 C.3       5 UNK        -0.1982 
     37 C          24.2635  -28.2103  -41.5477 C.2       5 UNK         0.5017 
     38 O          23.4127  -29.1028  -41.5603 O.2       5 UNK        -0.5012 
     39 N          24.2128  -27.1511  -40.7291 N.am      6 UNK        -0.4439 
     40 CA         23.1874  -26.9516  -39.6946 C.3       6 UNK         0.0297 
     41 CB         23.3055  -25.5290  -39.1256 C.3       6 UNK        -0.2006 
     42 C          23.2466  -27.9980  -38.5640 C.2       6 UNK         0.4892 
     43 O          22.2331  -28.2388  -37.9100 O.2       6 UNK        -0.5089 
     44 N          24.4221  -28.6119  -38.3678 N.am      7 UNK        -0.4243 
     45 CA         24.6281  -29.7508  -37.4726 C.3       7 UNK         0.0196 
     46 CB         26.1225  -29.8490  -37.1245 C.3       7 UNK        -0.2007 
     47 C          24.1310  -31.0799  -38.0721 C.2       7 UNK         0.5020 
     48 O          23.8287  -31.9986  -37.3104 O.2       7 UNK        -0.5147 
     49 N          24.0701  -31.1746  -39.4089 N.am      8 UNK        -0.4734 
     50 CA         23.5934  -32.3565  -40.1301 C.3       8 UNK         0.0238 
     51 CB         24.2826  -32.4495  -41.5037 C.3       8 UNK        -0.1912 
     52 C          22.0666  -32.3300  -40.2801 C.2       8 UNK         0.5038 
     53 O          21.4138  -33.3260  -39.9655 O.2       8 UNK        -0.5046 
     54 N          21.5366  -31.1895  -40.7349 N.am      9 UNK        -0.4200 
     55 CA         20.1080  -30.9346  -40.9292 C.3       9 UNK         0.0839 
     56 C          19.7356  -29.6221  -40.2009 C.2       9 UNK         0.5513 
     57 N          19.4191  -29.6942  -38.9165 N.am      9 UNK        -0.7519 
     58 O          19.7095  -28.5467  -40.7945 O.2       9 UNK        -0.4960 
     59 C59        19.7376  -30.8976  -42.4331 C.3       10 UNK        -0.0876 
     60 S60        19.6864  -32.5551  -43.1998 S.3       10 UNK        -0.2414 
     61 C61        17.8966  -32.7961  -43.4860 C.3       10 UNK         0.0169 
     62 H62        16.7426  -25.3792  -40.3622 H         1 UNK         0.0903 
     63 H63        18.2176  -24.9786  -41.2598 H         1 UNK         0.0903 
     64 H64        17.3122  -23.7198  -40.4504 H         1 UNK         0.0903 
     65 H65        15.7734  -25.0322  -44.0751 H         1 UNK         0.3096 
     66 H66        16.8424  -26.8614  -44.4665 H         1 UNK         0.1121 
     67 H67        17.3367  -27.3283  -41.4836 H         1 UNK         0.0849 
     68 H68        17.5384  -28.4879  -42.7541 H         1 UNK         0.0849 
     69 H69        13.8361  -29.3670  -43.7963 H         1 UNK         0.0865 
     70 H70        14.5619  -27.9838  -44.5673 H         1 UNK         0.0865 
     71 H71        15.9100  -31.0472  -42.7885 H         1 UNK         0.1346 
     72 H72        18.5517  -32.0445  -46.0141 H         1 UNK         0.1412 
     73 H73        16.0030  -28.6143  -46.3217 H         1 UNK         0.1426 
     74 H74        18.3336  -30.8703  -48.1493 H         1 UNK         0.0716 
     75 H75        17.1400  -29.6116  -48.3430 H         1 UNK         0.0716 
     76 H76        21.0730  -30.2247  -47.6283 H         1 UNK         0.0695 
     77 H77        20.2211  -30.3761  -46.1114 H         1 UNK         0.0695 
     78 H78        22.0082  -28.0138  -46.8684 H         1 UNK         0.0983 
     79 H79        20.2188  -28.3562  -44.6241 H         1 UNK         0.3095 
     80 H80        21.4559  -27.1424  -42.3047 H         1 UNK         0.0454 
     81 H81        21.0026  -24.7494  -41.7428 H         1 UNK         0.0851 
     82 H82        21.1199  -24.3268  -43.4519 H         1 UNK         0.0851 
     83 H83        22.5211  -24.9507  -42.5963 H         1 UNK         0.0851 
     84 H84        19.3081  -27.3368  -42.2718 H         1 UNK         0.2976 
     85 H85        23.9795  -28.8883  -47.1336 H         1 UNK         0.3116 
     86 H86        25.9542  -29.7711  -46.7788 H         1 UNK         0.0646 
     87 H87        24.9345  -32.0330  -46.5258 H         1 UNK         0.0847 
     88 H88        26.3563  -31.8349  -45.5142 H         1 UNK         0.0847 
     89 H89        24.7612  -31.7756  -44.7911 H         1 UNK         0.0847 
     90 H90        24.2682  -29.5643  -43.6018 H         1 UNK         0.3040 
     91 H91        25.8310  -27.3435  -42.7327 H         1 UNK         0.1015 
     92 H92        26.3689  -30.0395  -41.3276 H         1 UNK         0.0786 
     93 H93        26.8936  -28.4708  -40.7267 H         1 UNK         0.0786 
     94 H94        27.5601  -29.0990  -42.2187 H         1 UNK         0.0786 
     95 H95        24.9519  -26.4630  -40.7716 H         1 UNK         0.3172 
     96 H96        22.2062  -27.0473  -40.1621 H         1 UNK         0.0595 
     97 H97        24.2717  -25.3618  -38.6480 H         1 UNK         0.0839 
     98 H98        22.5355  -25.3456  -38.3748 H         1 UNK         0.0839 
     99 H99        23.1791  -24.7770  -39.9046 H         1 UNK         0.0839 
    100 H100       25.2129  -28.3179  -38.9207 H         1 UNK         0.2998 
    101 H101       24.0719  -29.5760  -36.5488 H         1 UNK         0.0822 
    102 H102       26.4788  -28.9383  -36.6425 H         1 UNK         0.0787 
    103 H103       26.3083  -30.6728  -36.4337 H         1 UNK         0.0787 
    104 H104       26.7346  -30.0231  -38.0106 H         1 UNK         0.0787 
    105 H105       24.2599  -30.3536  -39.9669 H         1 UNK         0.3055 
    106 H106       23.8576  -33.2532  -39.5643 H         1 UNK         0.1106 
    107 H107       25.3666  -32.4998  -41.4018 H         1 UNK         0.0828 
    108 H108       23.9657  -33.3481  -42.0345 H         1 UNK         0.0828 
    109 H109       24.0452  -31.5998  -42.1443 H         1 UNK         0.0828 
    110 H110       22.1546  -30.4164  -40.9683 H         1 UNK         0.2931 
    111 H111       19.5156  -31.7249  -40.4632 H         1 UNK         0.0412 
    112 H112       19.4510  -30.5716  -38.4217 H         1 UNK         0.3472 
    113 H113       19.1935  -28.8459  -38.4221 H         1 UNK         0.3472 
    114 H114       18.7707  -30.4168  -42.5637 H         1 UNK         0.0970 
    115 H115       20.4498  -30.2824  -42.9859 H         1 UNK         0.0970 
    116 H116       17.7431  -33.7456  -44.0003 H         1 UNK         0.0612 
    117 H117       17.3953  -32.8798  -42.5205 H         1 UNK         0.0612 
@<TRIPOS>BOND
     1    1    2 1    
     2    1   62 1    
     3    1   63 1    
     4    1   64 1    
     5    2    3 2    
     6    2    4 am   BACKBONE|DICT|INTERRES
     7    4    5 1    
     8    4   65 1    
     9    5    6 1    
    10    5   25 1    
    11    5   66 1    
    12    6    7 1    
    13    6   67 1    
    14    6   68 1    
    15    7    8 1    
    16    8    9 1    
    17    8   69 1    
    18    8   70 1    
    19    9   10 ar   
    20    9   14 ar   
    21   10   11 ar   
    22   10   71 1    
    23   11   12 ar   
    24   11   61 1    
    25   12   13 ar   
    26   12   72 1    
    27   13   14 ar   
    28   13   15 1    
    29   14   73 1    
    30   15   16 1    
    31   15   74 1    
    32   15   75 1    
    33   16   17 1    
    34   17   18 1    
    35   17   76 1    
    36   17   77 1    
    37   18   19 1    
    38   18   27 1    
    39   18   78 1    
    40   19   20 am   BACKBONE|DICT|INTERRES
    41   19   79 1    
    42   20   21 2    
    43   20   22 1    
    44   22   23 1    
    45   22   24 1    
    46   22   80 1    
    47   23   81 1    
    48   23   82 1    
    49   23   83 1    
    50   24   25 am   BACKBONE|DICT|INTERRES
    51   24   84 1    
    52   25   26 2    
    53   27   28 2    
    54   27   29 am   BACKBONE|DICT|INTERRES
    55   29   30 1    
    56   29   85 1    
    57   30   31 1    
    58   30   32 1    
    59   30   86 1    
    60   31   87 1    
    61   31   88 1    
    62   31   89 1    
    63   32   33 2    
    64   32   34 am   BACKBONE|DICT|INTERRES
    65   34   35 1    
    66   34   90 1    
    67   35   36 1    
    68   35   37 1    
    69   35   91 1    
    70   36   92 1    
    71   36   93 1    
    72   36   94 1    
    73   37   38 2    
    74   37   39 am   BACKBONE|DICT|INTERRES
    75   39   40 1    
    76   39   95 1    
    77   40   41 1    
    78   40   42 1    
    79   40   96 1    
    80   41   97 1    
    81   41   98 1    
    82   41   99 1    
    83   42   43 2    
    84   42   44 am   BACKBONE|DICT|INTERRES
    85   44   45 1    
    86   44  100 1    
    87   45   46 1    
    88   45   47 1    
    89   45  101 1    
    90   46  102 1    
    91   46  103 1    
    92   46  104 1    
    93   47   48 2    
    94   47   49 am   BACKBONE|DICT|INTERRES
    95   49   50 1    
    96   49  105 1    
    97   50   51 1    
    98   50   52 1    
    99   50  106 1    
   100   51  107 1    
   101   51  108 1    
   102   51  109 1    
   103   52   53 2    
   104   52   54 am   BACKBONE|DICT|INTERRES
   105   54   55 1    
   106   54  110 1    
   107   55   56 1    
   108   55   59 1    
   109   55  111 1    
   110   56   57 am   BACKBONE|DICT|INTERRES
   111   56   58 2    
   112   57  112 1    
   113   57  113 1    
   114   59   60 1    
   115   59  114 1    
   116   59  115 1    
   117   60   61 1    
   118   61  116 1    
   119   61  117 1    
@<TRIPOS>SUBSTRUCTURE
     1 UNK         1 GROUP             0       ****    0 ROOT    
