@<TRIPOS>MOLECULE
3R8
117   119    1
SMALL
USER_CHARGES


@<TRIPOS>ATOM
      1 CA         18.5963  -27.9748  -41.7421 C.3       0 UNK        -0.2013 
      2 C          18.3268  -26.9118  -42.7957 C.2       0 UNK         0.4866 
      3 O          18.9386  -25.8445  -42.7472 O.2       0 UNK        -0.5176 
      4 N          17.4146  -27.1899  -43.7377 N.am      1 UNK        -0.4884 
      5 CA         16.9354  -26.2948  -44.8008 C.3       1 UNK         0.0853 
      6 C6         15.7887  -26.9116  -45.6602 C.3       10 UNK        -0.0849 
      7 S7         14.6114  -27.9779  -44.7520 S.3       10 UNK        -0.2776 
      8 C8         15.0282  -29.6292  -45.4164 C.3       10 UNK         0.0316 
      9 C9         16.3394  -30.1554  -44.8469 C.ar      10 UNK        -0.0863 
     10 C10        16.3336  -30.9643  -43.7062 C.ar      10 UNK        -0.1009 
     11 C11        17.5355  -31.4191  -43.1574 C.ar      10 UNK        -0.0712 
     12 C12        18.7459  -31.0519  -43.7484 C.ar      10 UNK        -0.0894 
     13 C13        18.7699  -30.2197  -44.8722 C.ar      10 UNK        -0.0745 
     14 C14        17.5599  -29.8136  -45.4410 C.ar      10 UNK        -0.0972 
     15 C15        20.0901  -29.7111  -45.4449 C.3       10 UNK         0.0209 
     16 S16        21.1967  -29.1083  -44.1277 S.3       10 UNK        -0.2568 
     17 C17        22.3031  -27.9336  -44.9861 C.3       10 UNK        -0.0983 
     18 CA         22.3473  -26.5082  -44.3578 C.3       3 UNK         0.0876 
     19 N          21.1821  -25.6901  -44.7156 N.am      3 UNK        -0.4424 
     20 C          21.1396  -24.8571  -45.7660 C.2       2 UNK         0.4918 
     21 O          22.0829  -24.7015  -46.5435 O.2       2 UNK        -0.4875 
     22 CA         19.8482  -24.0337  -45.9776 C.3       2 UNK         0.0481 
     23 CB         19.6092  -23.6735  -47.4597 C.3       2 UNK        -0.1831 
     24 N          18.6501  -24.6373  -45.3824 N.am      2 UNK        -0.4498 
     25 C          18.1006  -25.8196  -45.6972 C.2       1 UNK         0.5027 
     26 O          18.5065  -26.5456  -46.6067 O.2       1 UNK        -0.4969 
     27 C          22.6107  -26.5168  -42.8365 C.2       3 UNK         0.5005 
     28 O          23.4486  -27.2996  -42.3890 O.2       3 UNK        -0.5279 
     29 N          21.9073  -25.6769  -42.0591 N.am      4 UNK        -0.4463 
     30 CA         21.8537  -25.6846  -40.5883 C.3       4 UNK         0.0283 
     31 CB         20.9258  -24.5544  -40.1138 C.3       4 UNK        -0.1875 
     32 C          23.2039  -25.6044  -39.8498 C.2       4 UNK         0.4949 
     33 O          23.2854  -26.0540  -38.7070 O.2       4 UNK        -0.5039 
     34 N          24.2378  -25.0608  -40.5067 N.am      5 UNK        -0.4663 
     35 CA         25.6203  -25.0549  -40.0180 C.3       5 UNK         0.0242 
     36 CB         26.4590  -24.1064  -40.8897 C.3       5 UNK        -0.1982 
     37 C          26.2597  -26.4577  -39.9789 C.2       5 UNK         0.5017 
     38 O          27.1448  -26.6875  -39.1540 O.2       5 UNK        -0.5012 
     39 N          25.8050  -27.3584  -40.8604 N.am      6 UNK        -0.4439 
     40 CA         26.2066  -28.7634  -40.9222 C.3       6 UNK         0.0297 
     41 CB         26.4575  -29.1581  -42.3877 C.3       6 UNK        -0.2006 
     42 C          25.1339  -29.6719  -40.3015 C.2       6 UNK         0.4892 
     43 O          25.4945  -30.6064  -39.5859 O.2       6 UNK        -0.5089 
     44 N          23.8533  -29.3748  -40.5845 N.am      7 UNK        -0.4243 
     45 CA         22.6434  -30.1014  -40.1792 C.3       7 UNK         0.0196 
     46 CB         22.4239  -29.9969  -38.6560 C.3       7 UNK        -0.2007 
     47 C          22.6686  -31.5535  -40.6885 C.2       7 UNK         0.5020 
     48 O          22.8375  -32.4884  -39.9037 O.2       7 UNK        -0.5147 
     49 N          22.5354  -31.7030  -42.0144 N.am      8 UNK        -0.4734 
     50 CA         22.7571  -32.9415  -42.7759 C.3       8 UNK         0.0238 
     51 CB         22.5327  -32.6567  -44.2705 C.3       8 UNK        -0.1912 
     52 C          21.9486  -34.1808  -42.3408 C.2       8 UNK         0.5038 
     53 O          22.3789  -35.2966  -42.6376 O.2       8 UNK        -0.5046 
     54 N          20.8170  -33.9823  -41.6519 N.am      9 UNK        -0.4200 
     55 CA         20.0165  -35.0632  -41.0495 C.3       9 UNK         0.0839 
     56 C          20.6446  -35.6796  -39.7646 C.2       9 UNK         0.5513 
     57 N          21.6618  -35.0783  -39.1577 N.am      9 UNK        -0.7519 
     58 O          20.1995  -36.7313  -39.3122 O.2       9 UNK        -0.4960 
     59 C59        18.5439  -34.6449  -40.7934 C.3       10 UNK        -0.0876 
     60 S60        17.7158  -34.0303  -42.2990 S.3       10 UNK        -0.2414 
     61 C61        17.5456  -32.2662  -41.8979 C.3       10 UNK         0.0169 
     62 H62        17.9832  -28.8619  -41.8937 H         1 UNK         0.0903 
     63 H63        19.6434  -28.2727  -41.7647 H         1 UNK         0.0903 
     64 H64        18.3795  -27.5787  -40.7506 H         1 UNK         0.0903 
     65 H65        16.9826  -28.1051  -43.7467 H         1 UNK         0.3096 
     66 H66        16.5195  -25.4209  -44.2949 H         1 UNK         0.1121 
     67 H67        15.2128  -26.1026  -46.1129 H         1 UNK         0.0849 
     68 H68        16.1699  -27.4786  -46.5092 H         1 UNK         0.0849 
     69 H69        14.2172  -30.3175  -45.1729 H         1 UNK         0.0865 
     70 H70        15.0719  -29.5958  -46.5062 H         1 UNK         0.0865 
     71 H71        15.3954  -31.2305  -43.2382 H         1 UNK         0.1346 
     72 H72        19.6735  -31.3841  -43.3052 H         1 UNK         0.1412 
     73 H73        17.5761  -29.1841  -46.3192 H         1 UNK         0.1426 
     74 H74        20.5832  -30.5092  -46.0007 H         1 UNK         0.0716 
     75 H75        19.9050  -28.8992  -46.1498 H         1 UNK         0.0716 
     76 H76        23.3041  -28.3681  -44.9694 H         1 UNK         0.0695 
     77 H77        22.0331  -27.8697  -46.0410 H         1 UNK         0.0695 
     78 H78        23.2369  -26.0202  -44.7619 H         1 UNK         0.0983 
     79 H79        20.3572  -25.7910  -44.1306 H         1 UNK         0.3095 
     80 H80        20.0047  -23.0984  -45.4385 H         1 UNK         0.0454 
     81 H81        19.5253  -24.5624  -48.0855 H         1 UNK         0.0851 
     82 H82        18.6991  -23.0873  -47.5849 H         1 UNK         0.0851 
     83 H83        20.4319  -23.0770  -47.8558 H         1 UNK         0.0851 
     84 H84        18.2846  -24.1548  -44.5718 H         1 UNK         0.2976 
     85 H85        21.2376  -25.0705  -42.5107 H         1 UNK         0.3116 
     86 H86        21.3994  -26.6348  -40.3001 H         1 UNK         0.0646 
     87 H87        20.8460  -24.5426  -39.0258 H         1 UNK         0.0847 
     88 H88        19.9158  -24.6759  -40.5052 H         1 UNK         0.0847 
     89 H89        21.2923  -23.5753  -40.4241 H         1 UNK         0.0847 
     90 H90        24.0766  -24.7062  -41.4382 H         1 UNK         0.3040 
     91 H91        25.6171  -24.6702  -38.9955 H         1 UNK         0.1015 
     92 H92        26.0635  -23.0907  -40.8658 H         1 UNK         0.0786 
     93 H93        26.4883  -24.4328  -41.9301 H         1 UNK         0.0786 
     94 H94        27.4894  -24.0592  -40.5341 H         1 UNK         0.0786 
     95 H95        25.0320  -27.0921  -41.4662 H         1 UNK         0.3172 
     96 H96        27.1366  -28.9134  -40.3698 H         1 UNK         0.0595 
     97 H97        26.7616  -30.2031  -42.4630 H         1 UNK         0.0839 
     98 H98        27.2530  -28.5568  -42.8278 H         1 UNK         0.0839 
     99 H99        25.5651  -29.0333  -43.0027 H         1 UNK         0.0839 
    100 H100       23.6907  -28.6011  -41.2282 H         1 UNK         0.2998 
    101 H101       21.8030  -29.6036  -40.6663 H         1 UNK         0.0822 
    102 H102       22.3680  -28.9559  -38.3368 H         1 UNK         0.0787 
    103 H103       21.4902  -30.4789  -38.3642 H         1 UNK         0.0787 
    104 H104       23.2258  -30.4761  -38.0935 H         1 UNK         0.0787 
    105 H105       22.3952  -30.8684  -42.5687 H         1 UNK         0.3055 
    106 H106       23.8086  -33.2027  -42.6384 H         1 UNK         0.1106 
    107 H107       22.7718  -33.5326  -44.8753 H         1 UNK         0.0828 
    108 H108       21.4963  -32.3934  -44.4805 H         1 UNK         0.0828 
    109 H109       23.1652  -31.8415  -44.6229 H         1 UNK         0.0828 
    110 H110       20.5476  -33.0378  -41.4277 H         1 UNK         0.2931 
    111 H111       19.9842  -35.8771  -41.7769 H         1 UNK         0.0412 
    112 H112       22.0560  -35.4955  -38.3297 H         1 UNK         0.3472 
    113 H113       22.0405  -34.2022  -39.5074 H         1 UNK         0.3472 
    114 H114       18.4875  -33.8994  -39.9983 H         1 UNK         0.0970 
    115 H115       17.9680  -35.5007  -40.4356 H         1 UNK         0.0970 
    116 H116       18.3708  -31.9422  -41.2619 H         1 UNK         0.0612 
    117 H117       16.6328  -32.1146  -41.3198 H         1 UNK         0.0612 
@<TRIPOS>BOND
     1    1    2 1    
     2    1   62 1    
     3    1   63 1    
     4    1   64 1    
     5    2    3 2    
     6    2    4 am   BACKBONE|DICT|INTERRES
     7    4    5 1    
     8    4   65 1    
     9    5    6 1    
    10    5   25 1    
    11    5   66 1    
    12    6    7 1    
    13    6   67 1    
    14    6   68 1    
    15    7    8 1    
    16    8    9 1    
    17    8   69 1    
    18    8   70 1    
    19    9   10 ar   
    20    9   14 ar   
    21   10   11 ar   
    22   10   71 1    
    23   11   12 ar   
    24   11   61 1    
    25   12   13 ar   
    26   12   72 1    
    27   13   14 ar   
    28   13   15 1    
    29   14   73 1    
    30   15   16 1    
    31   15   74 1    
    32   15   75 1    
    33   16   17 1    
    34   17   18 1    
    35   17   76 1    
    36   17   77 1    
    37   18   19 1    
    38   18   27 1    
    39   18   78 1    
    40   19   20 am   BACKBONE|DICT|INTERRES
    41   19   79 1    
    42   20   21 2    
    43   20   22 1    
    44   22   23 1    
    45   22   24 1    
    46   22   80 1    
    47   23   81 1    
    48   23   82 1    
    49   23   83 1    
    50   24   25 am   BACKBONE|DICT|INTERRES
    51   24   84 1    
    52   25   26 2    
    53   27   28 2    
    54   27   29 am   BACKBONE|DICT|INTERRES
    55   29   30 1    
    56   29   85 1    
    57   30   31 1    
    58   30   32 1    
    59   30   86 1    
    60   31   87 1    
    61   31   88 1    
    62   31   89 1    
    63   32   33 2    
    64   32   34 am   BACKBONE|DICT|INTERRES
    65   34   35 1    
    66   34   90 1    
    67   35   36 1    
    68   35   37 1    
    69   35   91 1    
    70   36   92 1    
    71   36   93 1    
    72   36   94 1    
    73   37   38 2    
    74   37   39 am   BACKBONE|DICT|INTERRES
    75   39   40 1    
    76   39   95 1    
    77   40   41 1    
    78   40   42 1    
    79   40   96 1    
    80   41   97 1    
    81   41   98 1    
    82   41   99 1    
    83   42   43 2    
    84   42   44 am   BACKBONE|DICT|INTERRES
    85   44   45 1    
    86   44  100 1    
    87   45   46 1    
    88   45   47 1    
    89   45  101 1    
    90   46  102 1    
    91   46  103 1    
    92   46  104 1    
    93   47   48 2    
    94   47   49 am   BACKBONE|DICT|INTERRES
    95   49   50 1    
    96   49  105 1    
    97   50   51 1    
    98   50   52 1    
    99   50  106 1    
   100   51  107 1    
   101   51  108 1    
   102   51  109 1    
   103   52   53 2    
   104   52   54 am   BACKBONE|DICT|INTERRES
   105   54   55 1    
   106   54  110 1    
   107   55   56 1    
   108   55   59 1    
   109   55  111 1    
   110   56   57 am   BACKBONE|DICT|INTERRES
   111   56   58 2    
   112   57  112 1    
   113   57  113 1    
   114   59   60 1    
   115   59  114 1    
   116   59  115 1    
   117   60   61 1    
   118   61  116 1    
   119   61  117 1    
@<TRIPOS>SUBSTRUCTURE
     1 UNK         1 GROUP             0       ****    0 ROOT    
