@<TRIPOS>MOLECULE
3R8
117   119    1
SMALL
USER_CHARGES


@<TRIPOS>ATOM
      1 CA         17.1086  -27.0128  -41.0596 C.3       0 UNK        -0.2013 
      2 C          17.5746  -26.7417  -42.4812 C.2       0 UNK         0.4866 
      3 O          18.6333  -27.2294  -42.8811 O.2       0 UNK        -0.5176 
      4 N          16.7999  -25.9429  -43.2327 N.am      1 UNK        -0.4884 
      5 CA         16.9306  -25.6620  -44.6769 C.3       1 UNK         0.0853 
      6 C6         16.6855  -26.9247  -45.5472 C.3       10 UNK        -0.0849 
      7 S7         15.1009  -27.7699  -45.2035 S.3       10 UNK        -0.2776 
      8 C8         15.2011  -29.2096  -46.3219 C.3       10 UNK         0.0316 
      9 C9         16.4308  -30.0605  -46.0378 C.ar      10 UNK        -0.0863 
     10 C10        16.4248  -30.9947  -44.9979 C.ar      10 UNK        -0.1009 
     11 C11        17.5808  -31.7204  -44.6918 C.ar      10 UNK        -0.0712 
     12 C12        18.7497  -31.4995  -45.4272 C.ar      10 UNK        -0.0894 
     13 C13        18.7639  -30.5681  -46.4702 C.ar      10 UNK        -0.0745 
     14 C14        17.5942  -29.8759  -46.7898 C.ar      10 UNK        -0.0972 
     15 C15        20.0493  -30.2684  -47.2270 C.3       10 UNK         0.0209 
     16 S16        20.6940  -28.6128  -46.8155 S.3       10 UNK        -0.2568 
     17 C17        21.0829  -28.8255  -45.0487 C.3       10 UNK        -0.0983 
     18 CA         21.8152  -27.6003  -44.4541 C.3       3 UNK         0.0876 
     19 N          20.9757  -26.4002  -44.4233 N.am      3 UNK        -0.4424 
     20 C          21.4318  -25.1416  -44.3506 C.2       2 UNK         0.4918 
     21 O          22.6292  -24.8579  -44.3899 O.2       2 UNK        -0.4875 
     22 CA         20.4041  -24.0053  -44.1408 C.3       2 UNK         0.0481 
     23 CB         20.5997  -22.8558  -45.1507 C.3       2 UNK        -0.1831 
     24 N          19.0058  -24.4581  -44.0858 N.am      2 UNK        -0.4498 
     25 C          18.2612  -24.9743  -45.0765 C.2       1 UNK         0.5027 
     26 O          18.6064  -24.9654  -46.2586 O.2       1 UNK        -0.4969 
     27 C          22.3208  -27.9224  -43.0389 C.2       3 UNK         0.5005 
     28 O          23.4878  -28.2851  -42.8860 O.2       3 UNK        -0.5279 
     29 N          21.4566  -27.7294  -42.0275 N.am      4 UNK        -0.4463 
     30 CA         21.7294  -27.9737  -40.6049 C.3       4 UNK         0.0283 
     31 CB         20.4700  -27.6635  -39.7838 C.3       4 UNK        -0.1875 
     32 C          22.9447  -27.2208  -40.0326 C.2       4 UNK         0.4949 
     33 O          23.5310  -27.6816  -39.0537 O.2       4 UNK        -0.5039 
     34 N          23.3160  -26.0978  -40.6624 N.am      5 UNK        -0.4663 
     35 CA         24.5302  -25.3355  -40.3677 C.3       5 UNK         0.0242 
     36 CB         24.4422  -23.9697  -41.0681 C.3       5 UNK        -0.1982 
     37 C          25.8251  -26.0662  -40.7742 C.2       5 UNK         0.5017 
     38 O          26.8688  -25.7970  -40.1784 O.2       5 UNK        -0.5012 
     39 N          25.7434  -26.9612  -41.7693 N.am      6 UNK        -0.4439 
     40 CA         26.8503  -27.7932  -42.2388 C.3       6 UNK         0.0297 
     41 CB         26.7985  -27.9140  -43.7714 C.3       6 UNK        -0.2006 
     42 C          26.8083  -29.1773  -41.5763 C.2       6 UNK         0.4892 
     43 O          27.8335  -29.6230  -41.0590 O.2       6 UNK        -0.5089 
     44 N          25.6356  -29.8255  -41.5853 N.am      7 UNK        -0.4243 
     45 CA         25.4021  -31.1304  -40.9694 C.3       7 UNK         0.0196 
     46 CB         25.9263  -32.2592  -41.8772 C.3       7 UNK        -0.2007 
     47 C          23.9038  -31.2934  -40.7021 C.2       7 UNK         0.5020 
     48 O          23.1012  -31.0758  -41.6104 O.2       7 UNK        -0.5147 
     49 N          23.5531  -31.6774  -39.4688 N.am      8 UNK        -0.4734 
     50 CA         22.1733  -31.8815  -39.0178 C.3       8 UNK         0.0238 
     51 CB         22.1715  -32.0835  -37.4934 C.3       8 UNK        -0.1912 
     52 C          21.4822  -33.0647  -39.7188 C.2       8 UNK         0.5038 
     53 O          22.1470  -34.0364  -40.0877 O.2       8 UNK        -0.5046 
     54 N          20.1539  -32.9672  -39.8490 N.am      9 UNK        -0.4200 
     55 CA         19.2868  -33.9792  -40.4756 C.3       9 UNK         0.0839 
     56 C          19.1147  -35.2942  -39.6588 C.2       9 UNK         0.5513 
     57 N          19.5078  -35.3521  -38.3919 N.am      9 UNK        -0.7519 
     58 O          18.6144  -36.2823  -40.1897 O.2       9 UNK        -0.4960 
     59 C59        17.9028  -33.3867  -40.8522 C.3       10 UNK        -0.0876 
     60 S60        18.0219  -31.9533  -41.9771 S.3       10 UNK        -0.2414 
     61 C61        17.5707  -32.7315  -43.5570 C.3       10 UNK         0.0169 
     62 H62        17.1945  -28.0758  -40.8354 H         1 UNK         0.0903 
     63 H63        17.7203  -26.4595  -40.3485 H         1 UNK         0.0903 
     64 H64        16.0684  -26.7233  -40.9123 H         1 UNK         0.0903 
     65 H65        15.9651  -25.5575  -42.8120 H         1 UNK         0.3096 
     66 H66        16.1494  -24.9393  -44.9181 H         1 UNK         0.1121 
     67 H67        17.5027  -27.6272  -45.3805 H         1 UNK         0.0849 
     68 H68        16.7018  -26.6771  -46.6104 H         1 UNK         0.0849 
     69 H69        14.2999  -29.8138  -46.2071 H         1 UNK         0.0865 
     70 H70        15.2050  -28.8635  -47.3568 H         1 UNK         0.0865 
     71 H71        15.5280  -31.1389  -44.4107 H         1 UNK         0.1346 
     72 H72        19.6523  -32.0378  -45.1721 H         1 UNK         0.1412 
     73 H73        17.6107  -29.1443  -47.5865 H         1 UNK         0.1426 
     74 H74        19.8575  -30.3186  -48.2997 H         1 UNK         0.0716 
     75 H75        20.8130  -31.0182  -47.0148 H         1 UNK         0.0716 
     76 H76        21.6959  -29.7240  -44.9494 H         1 UNK         0.0695 
     77 H77        20.1568  -29.0206  -44.5037 H         1 UNK         0.0695 
     78 H78        22.6931  -27.3954  -45.0714 H         1 UNK         0.0983 
     79 H79        19.9820  -26.5631  -44.3123 H         1 UNK         0.3095 
     80 H80        20.6132  -23.6010  -43.1494 H         1 UNK         0.0454 
     81 H81        21.5906  -22.4121  -45.0463 H         1 UNK         0.0851 
     82 H82        19.8721  -22.0598  -44.9943 H         1 UNK         0.0851 
     83 H83        20.5107  -23.1967  -46.1822 H         1 UNK         0.0851 
     84 H84        18.6143  -24.5284  -43.1563 H         1 UNK         0.2976 
     85 H85        20.5043  -27.4658  -42.2672 H         1 UNK         0.3116 
     86 H86        21.9401  -29.0363  -40.5023 H         1 UNK         0.0646 
     87 H87        20.1711  -26.6199  -39.8859 H         1 UNK         0.0847 
     88 H88        19.6341  -28.2901  -40.0940 H         1 UNK         0.0847 
     89 H89        20.6369  -27.8534  -38.7225 H         1 UNK         0.0847 
     90 H90        22.7722  -25.7986  -41.4586 H         1 UNK         0.3040 
     91 H91        24.5745  -25.1688  -39.2889 H         1 UNK         0.1015 
     92 H92        25.3219  -23.3622  -40.8508 H         1 UNK         0.0786 
     93 H93        23.5709  -23.4065  -40.7333 H         1 UNK         0.0786 
     94 H94        24.3784  -24.0751  -42.1522 H         1 UNK         0.0786 
     95 H95        24.8302  -27.1761  -42.1623 H         1 UNK         0.3172 
     96 H96        27.8019  -27.3245  -41.9790 H         1 UNK         0.0595 
     97 H97        25.8775  -28.3850  -44.1164 H         1 UNK         0.0839 
     98 H98        27.6293  -28.5163  -44.1414 H         1 UNK         0.0839 
     99 H99        26.8707  -26.9359  -44.2470 H         1 UNK         0.0839 
    100 H100       24.8220  -29.3963  -42.0242 H         1 UNK         0.2998 
    101 H101       25.9337  -31.1676  -40.0158 H         1 UNK         0.0822 
    102 H102       25.7216  -33.2374  -41.4401 H         1 UNK         0.0787 
    103 H103       25.4531  -32.2343  -42.8597 H         1 UNK         0.0787 
    104 H104       27.0043  -32.1885  -42.0224 H         1 UNK         0.0787 
    105 H105       24.2792  -31.8733  -38.7948 H         1 UNK         0.3055 
    106 H106       21.6113  -30.9742  -39.2468 H         1 UNK         0.1106 
    107 H107       22.6142  -31.2301  -36.9791 H         1 UNK         0.0828 
    108 H108       21.1557  -32.1946  -37.1118 H         1 UNK         0.0828 
    109 H109       22.7275  -32.9764  -37.2040 H         1 UNK         0.0828 
    110 H110       19.6837  -32.1408  -39.5111 H         1 UNK         0.2931 
    111 H111       19.7735  -34.2752  -41.4072 H         1 UNK         0.0412 
    112 H112       19.3919  -36.2116  -37.8778 H         1 UNK         0.3472 
    113 H113       19.9225  -34.5498  -37.9467 H         1 UNK         0.3472 
    114 H114       17.3716  -33.0686  -39.9532 H         1 UNK         0.0970 
    115 H115       17.2705  -34.1477  -41.3141 H         1 UNK         0.0970 
    116 H116       16.5810  -33.1829  -43.4709 H         1 UNK         0.0612 
    117 H117       18.2664  -33.5445  -43.7710 H         1 UNK         0.0612 
@<TRIPOS>BOND
     1    1    2 1    
     2    1   62 1    
     3    1   63 1    
     4    1   64 1    
     5    2    3 2    
     6    2    4 am   BACKBONE|DICT|INTERRES
     7    4    5 1    
     8    4   65 1    
     9    5    6 1    
    10    5   25 1    
    11    5   66 1    
    12    6    7 1    
    13    6   67 1    
    14    6   68 1    
    15    7    8 1    
    16    8    9 1    
    17    8   69 1    
    18    8   70 1    
    19    9   10 ar   
    20    9   14 ar   
    21   10   11 ar   
    22   10   71 1    
    23   11   12 ar   
    24   11   61 1    
    25   12   13 ar   
    26   12   72 1    
    27   13   14 ar   
    28   13   15 1    
    29   14   73 1    
    30   15   16 1    
    31   15   74 1    
    32   15   75 1    
    33   16   17 1    
    34   17   18 1    
    35   17   76 1    
    36   17   77 1    
    37   18   19 1    
    38   18   27 1    
    39   18   78 1    
    40   19   20 am   BACKBONE|DICT|INTERRES
    41   19   79 1    
    42   20   21 2    
    43   20   22 1    
    44   22   23 1    
    45   22   24 1    
    46   22   80 1    
    47   23   81 1    
    48   23   82 1    
    49   23   83 1    
    50   24   25 am   BACKBONE|DICT|INTERRES
    51   24   84 1    
    52   25   26 2    
    53   27   28 2    
    54   27   29 am   BACKBONE|DICT|INTERRES
    55   29   30 1    
    56   29   85 1    
    57   30   31 1    
    58   30   32 1    
    59   30   86 1    
    60   31   87 1    
    61   31   88 1    
    62   31   89 1    
    63   32   33 2    
    64   32   34 am   BACKBONE|DICT|INTERRES
    65   34   35 1    
    66   34   90 1    
    67   35   36 1    
    68   35   37 1    
    69   35   91 1    
    70   36   92 1    
    71   36   93 1    
    72   36   94 1    
    73   37   38 2    
    74   37   39 am   BACKBONE|DICT|INTERRES
    75   39   40 1    
    76   39   95 1    
    77   40   41 1    
    78   40   42 1    
    79   40   96 1    
    80   41   97 1    
    81   41   98 1    
    82   41   99 1    
    83   42   43 2    
    84   42   44 am   BACKBONE|DICT|INTERRES
    85   44   45 1    
    86   44  100 1    
    87   45   46 1    
    88   45   47 1    
    89   45  101 1    
    90   46  102 1    
    91   46  103 1    
    92   46  104 1    
    93   47   48 2    
    94   47   49 am   BACKBONE|DICT|INTERRES
    95   49   50 1    
    96   49  105 1    
    97   50   51 1    
    98   50   52 1    
    99   50  106 1    
   100   51  107 1    
   101   51  108 1    
   102   51  109 1    
   103   52   53 2    
   104   52   54 am   BACKBONE|DICT|INTERRES
   105   54   55 1    
   106   54  110 1    
   107   55   56 1    
   108   55   59 1    
   109   55  111 1    
   110   56   57 am   BACKBONE|DICT|INTERRES
   111   56   58 2    
   112   57  112 1    
   113   57  113 1    
   114   59   60 1    
   115   59  114 1    
   116   59  115 1    
   117   60   61 1    
   118   61  116 1    
   119   61  117 1    
@<TRIPOS>SUBSTRUCTURE
     1 UNK         1 GROUP             0       ****    0 ROOT    
