@<TRIPOS>MOLECULE
3R8
117   119    1
SMALL
USER_CHARGES


@<TRIPOS>ATOM
      1 CA         20.8471  -29.9532  -48.9791 C.3       0 UNK        -0.2013 
      2 C          20.4689  -28.9460  -47.9031 C.2       0 UNK         0.4866 
      3 O          20.8625  -27.7829  -47.9937 O.2       0 UNK        -0.5176 
      4 N          19.7093  -29.3903  -46.8923 N.am      1 UNK        -0.4884 
      5 CA         19.2417  -28.6107  -45.7386 C.3       1 UNK         0.0853 
      6 C6         18.2267  -27.4876  -46.1049 C.3       10 UNK        -0.0849 
      7 S7         16.7461  -28.1294  -46.9553 S.3       10 UNK        -0.2776 
      8 C8         15.5041  -28.1148  -45.6166 C.3       10 UNK         0.0316 
      9 C9         15.8101  -29.1085  -44.4998 C.ar      10 UNK        -0.0863 
     10 C10        16.0838  -30.4466  -44.7983 C.ar      10 UNK        -0.1009 
     11 C11        16.3437  -31.3669  -43.7803 C.ar      10 UNK        -0.0712 
     12 C12        16.3103  -30.9471  -42.4470 C.ar      10 UNK        -0.0894 
     13 C13        16.0146  -29.6167  -42.1303 C.ar      10 UNK        -0.0745 
     14 C14        15.7731  -28.7015  -43.1617 C.ar      10 UNK        -0.0972 
     15 C15        15.8962  -29.1862  -40.6726 C.3       10 UNK         0.0209 
     16 S16        17.5126  -28.9245  -39.8753 S.3       10 UNK        -0.2568 
     17 C17        18.0259  -27.3326  -40.5975 C.3       10 UNK        -0.0983 
     18 CA         19.5710  -27.2001  -40.6442 C.3       3 UNK         0.0876 
     19 N          20.0281  -26.6654  -41.9270 N.am      3 UNK        -0.4424 
     20 C          21.3049  -26.5276  -42.3099 C.2       2 UNK         0.4918 
     21 O          22.2673  -26.7355  -41.5710 O.2       2 UNK        -0.4875 
     22 CA         21.5194  -26.1319  -43.7847 C.3       2 UNK         0.0481 
     23 CB         22.9759  -26.3130  -44.2621 C.3       2 UNK        -0.1831 
     24 N          20.5722  -26.8104  -44.6835 N.am      2 UNK        -0.4498 
     25 C          20.4351  -28.1345  -44.8797 C.2       1 UNK         0.5027 
     26 O          21.1843  -28.9859  -44.3943 O.2       1 UNK        -0.4969 
     27 C          20.1303  -26.3944  -39.4525 C.2       3 UNK         0.5005 
     28 O          19.9237  -25.1799  -39.3933 O.2       3 UNK        -0.5279 
     29 N          20.8516  -27.0874  -38.5576 N.am      4 UNK        -0.4463 
     30 CA         21.5796  -26.5606  -37.3943 C.3       4 UNK         0.0283 
     31 CB         20.6092  -25.9342  -36.3694 C.3       4 UNK        -0.1875 
     32 C          22.7573  -25.6214  -37.7423 C.2       4 UNK         0.4949 
     33 O          23.2121  -24.8819  -36.8683 O.2       4 UNK        -0.5039 
     34 N          23.2560  -25.6754  -38.9848 N.am      5 UNK        -0.4663 
     35 CA         24.3667  -24.8641  -39.4845 C.3       5 UNK         0.0242 
     36 CB         23.8037  -23.6208  -40.2015 C.3       5 UNK        -0.1982 
     37 C          25.2643  -25.7275  -40.3848 C.2       5 UNK         0.5017 
     38 O          25.5003  -25.3691  -41.5396 O.2       5 UNK        -0.5012 
     39 N          25.7264  -26.8621  -39.8325 N.am      6 UNK        -0.4439 
     40 CA         26.4689  -27.9428  -40.5004 C.3       6 UNK         0.0297 
     41 CB         27.8372  -27.4552  -41.0250 C.3       6 UNK        -0.2006 
     42 C          25.6007  -28.6091  -41.5840 C.2       6 UNK         0.4892 
     43 O          25.9068  -28.5248  -42.7752 O.2       6 UNK        -0.5089 
     44 N          24.4942  -29.2080  -41.1250 N.am      7 UNK        -0.4243 
     45 CA         23.4152  -29.7470  -41.9497 C.3       7 UNK         0.0196 
     46 CB         22.2594  -30.1866  -41.0360 C.3       7 UNK        -0.2007 
     47 C          23.8427  -30.9082  -42.8529 C.2       7 UNK         0.5020 
     48 O          24.5747  -31.7960  -42.4109 O.2       7 UNK        -0.5147 
     49 N          23.2904  -30.9273  -44.0719 N.am      8 UNK        -0.4734 
     50 CA         23.3819  -32.0592  -45.0000 C.3       8 UNK         0.0238 
     51 CB         22.9296  -31.6073  -46.3969 C.3       8 UNK        -0.1912 
     52 C          22.5416  -33.2564  -44.5214 C.2       8 UNK         0.5038 
     53 O          22.9051  -34.4025  -44.7858 O.2       8 UNK        -0.5046 
     54 N          21.4531  -32.9543  -43.8033 N.am      9 UNK        -0.4200 
     55 CA         20.5777  -33.9128  -43.1165 C.3       9 UNK         0.0839 
     56 C          21.1336  -34.4123  -41.7492 C.2       9 UNK         0.5513 
     57 N          22.2999  -33.9712  -41.2905 N.am      9 UNK        -0.7519 
     58 O          20.4952  -35.2303  -41.0922 O.2       9 UNK        -0.4960 
     59 C59        19.1390  -33.3479  -42.9783 C.3       10 UNK        -0.0876 
     60 S60        18.3680  -33.0583  -44.6061 S.3       10 UNK        -0.2414 
     61 C61        16.6282  -32.8174  -44.1360 C.3       10 UNK         0.0169 
     62 H62        20.4429  -30.9441  -48.7727 H         1 UNK         0.0903 
     63 H63        20.4673  -29.6274  -49.9470 H         1 UNK         0.0903 
     64 H64        21.9312  -30.0375  -49.0494 H         1 UNK         0.0903 
     65 H65        19.4303  -30.3612  -46.8823 H         1 UNK         0.3096 
     66 H66        18.7149  -29.3210  -45.0993 H         1 UNK         0.1121 
     67 H67        17.9014  -26.9526  -45.2108 H         1 UNK         0.0849 
     68 H68        18.6865  -26.7448  -46.7590 H         1 UNK         0.0849 
     69 H69        15.4149  -27.1000  -45.2254 H         1 UNK         0.0865 
     70 H70        14.5309  -28.3629  -46.0421 H         1 UNK         0.0865 
     71 H71        16.0985  -30.7737  -45.8293 H         1 UNK         0.1346 
     72 H72        16.4953  -31.6584  -41.6535 H         1 UNK         0.1412 
     73 H73        15.5328  -27.6751  -42.9194 H         1 UNK         0.1426 
     74 H74        15.3564  -29.9543  -40.1169 H         1 UNK         0.0716 
     75 H75        15.2986  -28.2774  -40.5844 H         1 UNK         0.0716 
     76 H76        17.5523  -26.5172  -40.0466 H         1 UNK         0.0695 
     77 H77        17.6126  -27.2777  -41.6043 H         1 UNK         0.0695 
     78 H78        19.9996  -28.2024  -40.6041 H         1 UNK         0.0983 
     79 H79        19.3073  -26.4309  -42.5911 H         1 UNK         0.3095 
     80 H80        21.2898  -25.0672  -43.8437 H         1 UNK         0.0454 
     81 H81        23.6669  -25.7521  -43.6313 H         1 UNK         0.0851 
     82 H82        23.1040  -25.9516  -45.2820 H         1 UNK         0.0851 
     83 H83        23.2942  -27.3543  -44.2378 H         1 UNK         0.0851 
     84 H84        19.9329  -26.1989  -45.1711 H         1 UNK         0.2976 
     85 H85        20.9497  -28.0829  -38.7013 H         1 UNK         0.3116 
     86 H86        22.0342  -27.4293  -36.9160 H         1 UNK         0.0646 
     87 H87        20.1733  -25.0054  -36.7382 H         1 UNK         0.0847 
     88 H88        19.7935  -26.6148  -36.1258 H         1 UNK         0.0847 
     89 H89        21.1218  -25.7007  -35.4355 H         1 UNK         0.0847 
     90 H90        22.8248  -26.2845  -39.6750 H         1 UNK         0.3040 
     91 H91        24.9932  -24.5269  -38.6556 H         1 UNK         0.1015 
     92 H92        24.6071  -22.9864  -40.5777 H         1 UNK         0.0786 
     93 H93        23.2003  -23.0141  -39.5261 H         1 UNK         0.0786 
     94 H94        23.1775  -23.8990  -41.0504 H         1 UNK         0.0786 
     95 H95        25.4595  -27.0455  -38.8748 H         1 UNK         0.3172 
     96 H96        26.6657  -28.7022  -39.7417 H         1 UNK         0.0595 
     97 H97        27.7349  -26.7183  -41.8220 H         1 UNK         0.0839 
     98 H98        28.4132  -28.2876  -41.4308 H         1 UNK         0.0839 
     99 H99        28.4309  -27.0070  -40.2285 H         1 UNK         0.0839 
    100 H100       24.3516  -29.2445  -40.1274 H         1 UNK         0.2998 
    101 H101       23.0684  -28.9343  -42.5846 H         1 UNK         0.0822 
    102 H102       21.3793  -30.4572  -41.6210 H         1 UNK         0.0787 
    103 H103       21.9672  -29.3859  -40.3595 H         1 UNK         0.0787 
    104 H104       22.5304  -31.0515  -40.4289 H         1 UNK         0.0787 
    105 H105       22.6534  -30.1734  -44.3247 H         1 UNK         0.3055 
    106 H106       24.4242  -32.3816  -45.0556 H         1 UNK         0.1106 
    107 H107       23.5325  -30.7754  -46.7614 H         1 UNK         0.0828 
    108 H108       23.0241  -32.4189  -47.1198 H         1 UNK         0.0828 
    109 H109       21.8864  -31.2914  -46.3952 H         1 UNK         0.0828 
    110 H110       21.2420  -31.9792  -43.6554 H         1 UNK         0.2931 
    111 H111       20.5150  -34.8062  -43.7409 H         1 UNK         0.0412 
    112 H112       22.8642  -33.3285  -41.8264 H         1 UNK         0.3472 
    113 H113       22.6381  -34.3168  -40.4062 H         1 UNK         0.3472 
    114 H114       19.1383  -32.4159  -42.4100 H         1 UNK         0.0970 
    115 H115       18.5076  -34.0464  -42.4259 H         1 UNK         0.0970 
    116 H116       15.9983  -33.1139  -44.9760 H         1 UNK         0.0612 
    117 H117       16.3617  -33.4806  -43.3118 H         1 UNK         0.0612 
@<TRIPOS>BOND
     1    1    2 1    
     2    1   62 1    
     3    1   63 1    
     4    1   64 1    
     5    2    3 2    
     6    2    4 am   BACKBONE|DICT|INTERRES
     7    4    5 1    
     8    4   65 1    
     9    5    6 1    
    10    5   25 1    
    11    5   66 1    
    12    6    7 1    
    13    6   67 1    
    14    6   68 1    
    15    7    8 1    
    16    8    9 1    
    17    8   69 1    
    18    8   70 1    
    19    9   10 ar   
    20    9   14 ar   
    21   10   11 ar   
    22   10   71 1    
    23   11   12 ar   
    24   11   61 1    
    25   12   13 ar   
    26   12   72 1    
    27   13   14 ar   
    28   13   15 1    
    29   14   73 1    
    30   15   16 1    
    31   15   74 1    
    32   15   75 1    
    33   16   17 1    
    34   17   18 1    
    35   17   76 1    
    36   17   77 1    
    37   18   19 1    
    38   18   27 1    
    39   18   78 1    
    40   19   20 am   BACKBONE|DICT|INTERRES
    41   19   79 1    
    42   20   21 2    
    43   20   22 1    
    44   22   23 1    
    45   22   24 1    
    46   22   80 1    
    47   23   81 1    
    48   23   82 1    
    49   23   83 1    
    50   24   25 am   BACKBONE|DICT|INTERRES
    51   24   84 1    
    52   25   26 2    
    53   27   28 2    
    54   27   29 am   BACKBONE|DICT|INTERRES
    55   29   30 1    
    56   29   85 1    
    57   30   31 1    
    58   30   32 1    
    59   30   86 1    
    60   31   87 1    
    61   31   88 1    
    62   31   89 1    
    63   32   33 2    
    64   32   34 am   BACKBONE|DICT|INTERRES
    65   34   35 1    
    66   34   90 1    
    67   35   36 1    
    68   35   37 1    
    69   35   91 1    
    70   36   92 1    
    71   36   93 1    
    72   36   94 1    
    73   37   38 2    
    74   37   39 am   BACKBONE|DICT|INTERRES
    75   39   40 1    
    76   39   95 1    
    77   40   41 1    
    78   40   42 1    
    79   40   96 1    
    80   41   97 1    
    81   41   98 1    
    82   41   99 1    
    83   42   43 2    
    84   42   44 am   BACKBONE|DICT|INTERRES
    85   44   45 1    
    86   44  100 1    
    87   45   46 1    
    88   45   47 1    
    89   45  101 1    
    90   46  102 1    
    91   46  103 1    
    92   46  104 1    
    93   47   48 2    
    94   47   49 am   BACKBONE|DICT|INTERRES
    95   49   50 1    
    96   49  105 1    
    97   50   51 1    
    98   50   52 1    
    99   50  106 1    
   100   51  107 1    
   101   51  108 1    
   102   51  109 1    
   103   52   53 2    
   104   52   54 am   BACKBONE|DICT|INTERRES
   105   54   55 1    
   106   54  110 1    
   107   55   56 1    
   108   55   59 1    
   109   55  111 1    
   110   56   57 am   BACKBONE|DICT|INTERRES
   111   56   58 2    
   112   57  112 1    
   113   57  113 1    
   114   59   60 1    
   115   59  114 1    
   116   59  115 1    
   117   60   61 1    
   118   61  116 1    
   119   61  117 1    
@<TRIPOS>SUBSTRUCTURE
     1 UNK         1 GROUP             0       ****    0 ROOT    
