@<TRIPOS>MOLECULE
3R8
117   119    1
SMALL
USER_CHARGES


@<TRIPOS>ATOM
      1 CA         14.1165  -26.3327  -46.7929 C.3       0 UNK        -0.2013 
      2 C          15.4243  -25.6884  -47.2278 C.2       0 UNK         0.4866 
      3 O          15.5149  -25.1763  -48.3437 O.2       0 UNK        -0.5176 
      4 N          16.4356  -25.7121  -46.3551 N.am      1 UNK        -0.4884 
      5 CA         17.7556  -25.1143  -46.5546 C.3       1 UNK         0.0853 
      6 C6         18.6325  -25.8750  -47.6002 C.3       10 UNK        -0.0849 
      7 S7         19.3892  -27.4429  -47.0404 S.3       10 UNK        -0.2776 
      8 C8         18.0746  -28.6617  -47.3401 C.3       10 UNK         0.0316 
      9 C9         17.9639  -29.6027  -46.1515 C.ar      10 UNK        -0.0863 
     10 C10        18.9036  -30.6241  -45.9810 C.ar      10 UNK        -0.1009 
     11 C11        18.8400  -31.4671  -44.8687 C.ar      10 UNK        -0.0712 
     12 C12        17.8023  -31.3100  -43.9465 C.ar      10 UNK        -0.0894 
     13 C13        16.8738  -30.2767  -44.0903 C.ar      10 UNK        -0.0745 
     14 C14        16.9529  -29.4294  -45.2002 C.ar      10 UNK        -0.0972 
     15 C15        15.8058  -30.0708  -43.0266 C.3       10 UNK         0.0209 
     16 S16        16.5275  -29.5355  -41.4383 S.3       10 UNK        -0.2568 
     17 C17        17.1035  -27.8478  -41.8253 C.3       10 UNK        -0.0983 
     18 CA         18.6478  -27.6928  -41.7443 C.3       3 UNK         0.0876 
     19 N          19.0721  -26.5314  -42.5295 N.am      3 UNK        -0.4424 
     20 C          20.2923  -26.2955  -43.0228 C.2       2 UNK         0.4918 
     21 O          21.2389  -27.0723  -42.8910 O.2       2 UNK        -0.4875 
     22 CA         20.4678  -24.9677  -43.7917 C.3       2 UNK         0.0481 
     23 CB         21.9451  -24.6594  -44.0969 C.3       2 UNK        -0.1831 
     24 N          19.7125  -24.9659  -45.0475 N.am      2 UNK        -0.4498 
     25 C          18.3790  -24.8940  -45.1587 C.2       1 UNK         0.5027 
     26 O          17.6356  -24.6918  -44.1925 O.2       1 UNK        -0.4969 
     27 C          19.1904  -27.5817  -40.2972 C.2       3 UNK         0.5005 
     28 O          18.4185  -27.3848  -39.3557 O.2       3 UNK        -0.5279 
     29 N          20.5202  -27.6343  -40.1524 N.am      4 UNK        -0.4463 
     30 CA         21.2527  -27.4114  -38.9076 C.3       4 UNK         0.0283 
     31 CB         21.3797  -25.8951  -38.6359 C.3       4 UNK        -0.1875 
     32 C          22.5958  -28.1574  -38.9642 C.2       4 UNK         0.4949 
     33 O          22.6327  -29.2962  -39.4299 O.2       4 UNK        -0.5039 
     34 N          23.6765  -27.5294  -38.4803 N.am      5 UNK        -0.4663 
     35 CA         25.0212  -28.1137  -38.4044 C.3       5 UNK         0.0242 
     36 CB         25.9330  -27.1803  -37.5919 C.3       5 UNK        -0.1982 
     37 C          25.6552  -28.4263  -39.7718 C.2       5 UNK         0.5017 
     38 O          26.4925  -29.3270  -39.8498 O.2       5 UNK        -0.5012 
     39 N          25.2415  -27.6968  -40.8190 N.am      6 UNK        -0.4439 
     40 CA         25.6431  -27.9050  -42.2119 C.3       6 UNK         0.0297 
     41 CB         24.9839  -26.8379  -43.1006 C.3       6 UNK        -0.2006 
     42 C          25.2755  -29.3212  -42.6848 C.2       6 UNK         0.4892 
     43 O          24.0959  -29.6750  -42.6773 O.2       6 UNK        -0.5089 
     44 N          26.3062  -30.1153  -43.0115 N.am      7 UNK        -0.4243 
     45 CA         26.2522  -31.5381  -43.3822 C.3       7 UNK         0.0196 
     46 CB         25.5523  -31.7124  -44.7471 C.3       7 UNK        -0.2007 
     47 C          25.6491  -32.4603  -42.2973 C.2       7 UNK         0.5020 
     48 O          25.2749  -33.5908  -42.6121 O.2       7 UNK        -0.5147 
     49 N          25.5658  -31.9716  -41.0482 N.am      8 UNK        -0.4734 
     50 CA         24.9190  -32.5947  -39.8858 C.3       8 UNK         0.0238 
     51 CB         25.7304  -33.8157  -39.4024 C.3       8 UNK        -0.1912 
     52 C          23.4243  -32.9146  -40.1104 C.2       8 UNK         0.5038 
     53 O          22.9317  -33.9196  -39.5931 O.2       8 UNK        -0.5046 
     54 N          22.7352  -32.0644  -40.8835 N.am      9 UNK        -0.4200 
     55 CA         21.3047  -32.1831  -41.2025 C.3       9 UNK         0.0839 
     56 C          20.3498  -32.0474  -39.9826 C.2       9 UNK         0.5513 
     57 N          20.6944  -31.2773  -38.9607 N.am      9 UNK        -0.7519 
     58 O          19.2837  -32.6566  -39.9672 O.2       9 UNK        -0.4960 
     59 C59        20.9059  -31.1965  -42.3266 C.3       10 UNK        -0.0876 
     60 S60        21.4465  -31.7772  -43.9717 S.3       10 UNK        -0.2414 
     61 C61        19.9174  -32.5165  -44.6378 C.3       10 UNK         0.0169 
     62 H62        13.8632  -27.1546  -47.4621 H         1 UNK         0.0903 
     63 H63        14.1722  -26.7267  -45.7782 H         1 UNK         0.0903 
     64 H64        13.3084  -25.6025  -46.8286 H         1 UNK         0.0903 
     65 H65        16.2893  -26.0601  -45.4163 H         1 UNK         0.3096 
     66 H66        17.5882  -24.1082  -46.9459 H         1 UNK         0.1121 
     67 H67        19.4473  -25.2238  -47.9207 H         1 UNK         0.0849 
     68 H68        18.0624  -26.0658  -48.5104 H         1 UNK         0.0849 
     69 H69        17.1212  -28.1664  -47.5238 H         1 UNK         0.0865 
     70 H70        18.3044  -29.2259  -48.2451 H         1 UNK         0.0865 
     71 H71        19.7085  -30.7383  -46.6944 H         1 UNK         0.1346 
     72 H72        17.7454  -31.9591  -43.0828 H         1 UNK         0.1412 
     73 H73        16.2379  -28.6271  -45.3163 H         1 UNK         0.1426 
     74 H74        15.2715  -31.0093  -42.8719 H         1 UNK         0.0716 
     75 H75        15.0598  -29.3437  -43.3512 H         1 UNK         0.0716 
     76 H76        16.7625  -27.6009  -42.8318 H         1 UNK         0.0695 
     77 H77        16.5930  -27.1379  -41.1720 H         1 UNK         0.0695 
     78 H78        19.0992  -28.5774  -42.1994 H         1 UNK         0.0983 
     79 H79        18.3577  -25.8385  -42.7264 H         1 UNK         0.3095 
     80 H80        20.0872  -24.1662  -43.1551 H         1 UNK         0.0454 
     81 H81        22.3914  -25.4154  -44.7443 H         1 UNK         0.0851 
     82 H82        22.5341  -24.6275  -43.1793 H         1 UNK         0.0851 
     83 H83        22.0568  -23.6911  -44.5847 H         1 UNK         0.0851 
     84 H84        20.2363  -25.2084  -45.8769 H         1 UNK         0.2976 
     85 H85        21.0889  -27.7805  -40.9820 H         1 UNK         0.3116 
     86 H86        20.6913  -27.8637  -38.0875 H         1 UNK         0.0646 
     87 H87        21.9691  -25.3933  -39.4045 H         1 UNK         0.0847 
     88 H88        21.8443  -25.6974  -37.6693 H         1 UNK         0.0847 
     89 H89        20.4009  -25.4159  -38.6102 H         1 UNK         0.0847 
     90 H90        23.5655  -26.5971  -38.1082 H         1 UNK         0.3040 
     91 H91        24.9392  -29.0624  -37.8690 H         1 UNK         0.1015 
     92 H92        26.0347  -26.2023  -38.0642 H         1 UNK         0.0786 
     93 H93        26.9352  -27.6008  -37.4949 H         1 UNK         0.0786 
     94 H94        25.5495  -27.0292  -36.5826 H         1 UNK         0.0786 
     95 H95        24.5231  -27.0085  -40.6528 H         1 UNK         0.3172 
     96 H96        26.7258  -27.7746  -42.2685 H         1 UNK         0.0595 
     97 H97        25.2867  -26.9571  -44.1417 H         1 UNK         0.0839 
     98 H98        25.2653  -25.8304  -42.7942 H         1 UNK         0.0839 
     99 H99        23.8963  -26.9087  -43.0708 H         1 UNK         0.0839 
    100 H100       27.2371  -29.7274  -42.9384 H         1 UNK         0.2998 
    101 H101       27.2882  -31.8591  -43.5000 H         1 UNK         0.0822 
    102 H102       25.6297  -32.7409  -45.1017 H         1 UNK         0.0787 
    103 H103       24.4908  -31.4692  -44.6892 H         1 UNK         0.0787 
    104 H104       26.0013  -31.0749  -45.5085 H         1 UNK         0.0787 
    105 H105       25.9181  -31.0329  -40.8869 H         1 UNK         0.3055 
    106 H106       24.9423  -31.8476  -39.0906 H         1 UNK         0.1106 
    107 H107       25.3347  -34.2020  -38.4623 H         1 UNK         0.0828 
    108 H108       25.7034  -34.6313  -40.1255 H         1 UNK         0.0828 
    109 H109       26.7743  -33.5549  -39.2287 H         1 UNK         0.0828 
    110 H110       23.2120  -31.2610  -41.2754 H         1 UNK         0.2931 
    111 H111       21.1527  -33.1971  -41.5784 H         1 UNK         0.0412 
    112 H112       21.5272  -30.6972  -39.0295 H         1 UNK         0.3472 
    113 H113       20.0796  -31.1959  -38.1674 H         1 UNK         0.3472 
    114 H114       21.3465  -30.2139  -42.1450 H         1 UNK         0.0970 
    115 H115       19.8319  -31.0253  -42.3376 H         1 UNK         0.0970 
    116 H116       20.1477  -33.0159  -45.5800 H         1 UNK         0.0612 
    117 H117       19.5653  -33.2921  -43.9558 H         1 UNK         0.0612 
@<TRIPOS>BOND
     1    1    2 1    
     2    1   62 1    
     3    1   63 1    
     4    1   64 1    
     5    2    3 2    
     6    2    4 am   BACKBONE|DICT|INTERRES
     7    4    5 1    
     8    4   65 1    
     9    5    6 1    
    10    5   25 1    
    11    5   66 1    
    12    6    7 1    
    13    6   67 1    
    14    6   68 1    
    15    7    8 1    
    16    8    9 1    
    17    8   69 1    
    18    8   70 1    
    19    9   10 ar   
    20    9   14 ar   
    21   10   11 ar   
    22   10   71 1    
    23   11   12 ar   
    24   11   61 1    
    25   12   13 ar   
    26   12   72 1    
    27   13   14 ar   
    28   13   15 1    
    29   14   73 1    
    30   15   16 1    
    31   15   74 1    
    32   15   75 1    
    33   16   17 1    
    34   17   18 1    
    35   17   76 1    
    36   17   77 1    
    37   18   19 1    
    38   18   27 1    
    39   18   78 1    
    40   19   20 am   BACKBONE|DICT|INTERRES
    41   19   79 1    
    42   20   21 2    
    43   20   22 1    
    44   22   23 1    
    45   22   24 1    
    46   22   80 1    
    47   23   81 1    
    48   23   82 1    
    49   23   83 1    
    50   24   25 am   BACKBONE|DICT|INTERRES
    51   24   84 1    
    52   25   26 2    
    53   27   28 2    
    54   27   29 am   BACKBONE|DICT|INTERRES
    55   29   30 1    
    56   29   85 1    
    57   30   31 1    
    58   30   32 1    
    59   30   86 1    
    60   31   87 1    
    61   31   88 1    
    62   31   89 1    
    63   32   33 2    
    64   32   34 am   BACKBONE|DICT|INTERRES
    65   34   35 1    
    66   34   90 1    
    67   35   36 1    
    68   35   37 1    
    69   35   91 1    
    70   36   92 1    
    71   36   93 1    
    72   36   94 1    
    73   37   38 2    
    74   37   39 am   BACKBONE|DICT|INTERRES
    75   39   40 1    
    76   39   95 1    
    77   40   41 1    
    78   40   42 1    
    79   40   96 1    
    80   41   97 1    
    81   41   98 1    
    82   41   99 1    
    83   42   43 2    
    84   42   44 am   BACKBONE|DICT|INTERRES
    85   44   45 1    
    86   44  100 1    
    87   45   46 1    
    88   45   47 1    
    89   45  101 1    
    90   46  102 1    
    91   46  103 1    
    92   46  104 1    
    93   47   48 2    
    94   47   49 am   BACKBONE|DICT|INTERRES
    95   49   50 1    
    96   49  105 1    
    97   50   51 1    
    98   50   52 1    
    99   50  106 1    
   100   51  107 1    
   101   51  108 1    
   102   51  109 1    
   103   52   53 2    
   104   52   54 am   BACKBONE|DICT|INTERRES
   105   54   55 1    
   106   54  110 1    
   107   55   56 1    
   108   55   59 1    
   109   55  111 1    
   110   56   57 am   BACKBONE|DICT|INTERRES
   111   56   58 2    
   112   57  112 1    
   113   57  113 1    
   114   59   60 1    
   115   59  114 1    
   116   59  115 1    
   117   60   61 1    
   118   61  116 1    
   119   61  117 1    
@<TRIPOS>SUBSTRUCTURE
     1 UNK         1 GROUP             0       ****    0 ROOT    
