@<TRIPOS>MOLECULE
3R8
117   119    1
SMALL
USER_CHARGES


@<TRIPOS>ATOM
      1 CA         17.8624  -22.1157  -42.7241 C.3       0 UNK        -0.2013 
      2 C          18.0939  -23.1723  -43.7944 C.2       0 UNK         0.4866 
      3 O          18.7489  -22.8915  -44.7989 O.2       0 UNK        -0.5176 
      4 N          17.5564  -24.3816  -43.5879 N.am      1 UNK        -0.4884 
      5 CA         17.7485  -25.5447  -44.4626 C.3       1 UNK         0.0853 
      6 C6         16.5379  -26.5115  -44.3784 C.3       10 UNK        -0.0849 
      7 S7         16.2481  -27.3776  -45.9569 S.3       10 UNK        -0.2776 
      8 C8         15.1989  -28.7601  -45.4168 C.3       10 UNK         0.0316 
      9 C9         16.0179  -29.9208  -44.8706 C.ar      10 UNK        -0.0863 
     10 C10        16.6471  -30.8029  -45.7547 C.ar      10 UNK        -0.1009 
     11 C11        17.3420  -31.9212  -45.2838 C.ar      10 UNK        -0.0712 
     12 C12        17.3827  -32.1549  -43.9032 C.ar      10 UNK        -0.0894 
     13 C13        16.7901  -31.2626  -43.0049 C.ar      10 UNK        -0.0745 
     14 C14        16.1081  -30.1447  -43.4934 C.ar      10 UNK        -0.0972 
     15 C15        16.8515  -31.5473  -41.5116 C.3       10 UNK         0.0209 
     16 S16        18.5590  -31.5248  -40.8782 S.3       10 UNK        -0.2568 
     17 C17        18.8074  -29.7738  -40.4406 C.3       10 UNK        -0.0983 
     18 CA         20.1017  -29.2077  -41.0739 C.3       3 UNK         0.0876 
     19 N          19.9260  -28.8840  -42.4930 N.am      3 UNK        -0.4424 
     20 C          20.9349  -28.6765  -43.3488 C.2       2 UNK         0.4918 
     21 O          22.1199  -28.8340  -43.0507 O.2       2 UNK        -0.4875 
     22 CA         20.5752  -28.1733  -44.7616 C.3       2 UNK         0.0481 
     23 CB         20.4760  -29.3445  -45.7466 C.3       2 UNK        -0.1831 
     24 N          19.3444  -27.3771  -44.8474 N.am      2 UNK        -0.4498 
     25 C          19.0924  -26.2505  -44.1679 C.2       1 UNK         0.5027 
     26 O          19.8623  -25.7958  -43.3203 O.2       1 UNK        -0.4969 
     27 C          20.6390  -28.0171  -40.2485 C.2       3 UNK         0.5005 
     28 O          21.3602  -28.2476  -39.2767 O.2       3 UNK        -0.5279 
     29 N          20.3201  -26.7716  -40.6391 N.am      4 UNK        -0.4463 
     30 CA         20.7160  -25.5513  -39.9203 C.3       4 UNK         0.0283 
     31 CB         19.8832  -24.3557  -40.4119 C.3       4 UNK        -0.1875 
     32 C          22.2202  -25.2409  -40.0171 C.2       4 UNK         0.4949 
     33 O          22.7320  -24.4823  -39.1940 O.2       4 UNK        -0.5039 
     34 N          22.9092  -25.8563  -40.9885 N.am      5 UNK        -0.4663 
     35 CA         24.3684  -25.8404  -41.1206 C.3       5 UNK         0.0242 
     36 CB         24.7406  -26.3460  -42.5252 C.3       5 UNK        -0.1982 
     37 C          25.0912  -26.6728  -40.0410 C.2       5 UNK         0.5017 
     38 O          26.3042  -26.5233  -39.8934 O.2       5 UNK        -0.5012 
     39 N          24.3449  -27.5361  -39.3318 N.am      6 UNK        -0.4439 
     40 CA         24.7898  -28.5068  -38.3279 C.3       6 UNK         0.0297 
     41 CB         25.1756  -27.7706  -37.0270 C.3       6 UNK        -0.2006 
     42 C          25.9020  -29.4619  -38.8283 C.2       6 UNK         0.4892 
     43 O          26.9717  -29.5030  -38.2203 O.2       6 UNK        -0.5089 
     44 N          25.7048  -30.2298  -39.9100 N.am      7 UNK        -0.4243 
     45 CA         24.5450  -30.3456  -40.7919 C.3       7 UNK         0.0196 
     46 CB         23.4844  -31.2761  -40.1750 C.3       7 UNK        -0.2007 
     47 C          25.0434  -30.9024  -42.1277 C.2       7 UNK         0.5020 
     48 O          25.9446  -31.7437  -42.1360 O.2       7 UNK        -0.5147 
     49 N          24.4283  -30.4526  -43.2257 N.am      8 UNK        -0.4734 
     50 CA         24.6871  -30.9399  -44.5859 C.3       8 UNK         0.0238 
     51 CB         24.5905  -29.7515  -45.5589 C.3       8 UNK        -0.1912 
     52 C          23.7251  -32.0739  -44.9934 C.2       8 UNK         0.5038 
     53 O          23.8519  -32.6096  -46.0947 O.2       8 UNK        -0.5046 
     54 N          22.7787  -32.4055  -44.1093 N.am      9 UNK        -0.4200 
     55 CA         21.7249  -33.4129  -44.2745 C.3       9 UNK         0.0839 
     56 C          21.4007  -34.1030  -42.9135 C.2       9 UNK         0.5513 
     57 N          22.3583  -34.2077  -41.9979 N.am      9 UNK        -0.7519 
     58 O          20.2853  -34.5517  -42.6684 O.2       9 UNK        -0.4960 
     59 C59        20.5090  -32.7888  -45.0099 C.3       10 UNK        -0.0876 
     60 S60        19.2894  -33.9819  -45.6550 S.3       10 UNK        -0.2414 
     61 C61        18.0058  -32.8520  -46.3043 C.3       10 UNK         0.0169 
     62 H62        18.8167  -21.7668  -42.3302 H         1 UNK         0.0903 
     63 H63        17.3355  -21.2611  -43.1477 H         1 UNK         0.0903 
     64 H64        17.2730  -22.4992  -41.8915 H         1 UNK         0.0903 
     65 H65        17.0497  -24.5555  -42.7318 H         1 UNK         0.3096 
     66 H66        17.8183  -25.1703  -45.4870 H         1 UNK         0.1121 
     67 H67        16.6480  -27.2262  -43.5607 H         1 UNK         0.0849 
     68 H68        15.6240  -25.9548  -44.1631 H         1 UNK         0.0849 
     69 H69        14.4742  -28.4106  -44.6795 H         1 UNK         0.0865 
     70 H70        14.6130  -29.1066  -46.2696 H         1 UNK         0.0865 
     71 H71        16.5824  -30.6230  -46.8196 H         1 UNK         0.1346 
     72 H72        17.8885  -33.0260  -43.5099 H         1 UNK         0.1412 
     73 H73        15.6212  -29.4680  -42.8043 H         1 UNK         0.1426 
     74 H74        16.4308  -32.5375  -41.3312 H         1 UNK         0.0716 
     75 H75        16.2336  -30.8492  -40.9448 H         1 UNK         0.0716 
     76 H76        18.8520  -29.7374  -39.3499 H         1 UNK         0.0695 
     77 H77        17.9401  -29.1763  -40.7268 H         1 UNK         0.0695 
     78 H78        20.8720  -29.9777  -41.0070 H         1 UNK         0.0983 
     79 H79        18.9789  -28.7764  -42.8231 H         1 UNK         0.3095 
     80 H80        21.3966  -27.5305  -45.0843 H         1 UNK         0.0454 
     81 H81        19.6169  -29.9790  -45.5288 H         1 UNK         0.0851 
     82 H82        21.3697  -29.9660  -45.7068 H         1 UNK         0.0851 
     83 H83        20.3776  -28.9920  -46.7734 H         1 UNK         0.0851 
     84 H84        18.6402  -27.6993  -45.4995 H         1 UNK         0.2976 
     85 H85        19.8345  -26.6319  -41.5192 H         1 UNK         0.3116 
     86 H86        20.4865  -25.7038  -38.8635 H         1 UNK         0.0646 
     87 H87        20.1417  -24.0729  -41.4323 H         1 UNK         0.0847 
     88 H88        20.0579  -23.4803  -39.7852 H         1 UNK         0.0847 
     89 H89        18.8149  -24.5688  -40.3787 H         1 UNK         0.0847 
     90 H90        22.3981  -26.4392  -41.6370 H         1 UNK         0.3040 
     91 H91        24.7123  -24.8085  -41.0203 H         1 UNK         0.1015 
     92 H92        24.2792  -25.7366  -43.3025 H         1 UNK         0.0786 
     93 H93        24.4289  -27.3791  -42.6807 H         1 UNK         0.0786 
     94 H94        25.8195  -26.3057  -42.6821 H         1 UNK         0.0786 
     95 H95        23.3497  -27.5650  -39.5263 H         1 UNK         0.3172 
     96 H96        23.9252  -29.1274  -38.0951 H         1 UNK         0.0595 
     97 H97        26.0410  -27.1222  -37.1693 H         1 UNK         0.0839 
     98 H98        25.4251  -28.4784  -36.2356 H         1 UNK         0.0839 
     99 H99        24.3534  -27.1550  -36.6620 H         1 UNK         0.0839 
    100 H100       26.4720  -30.8141  -40.2192 H         1 UNK         0.2998 
    101 H101       24.1005  -29.3737  -40.9940 H         1 UNK         0.0822 
    102 H102       23.0244  -30.8403  -39.2895 H         1 UNK         0.0787 
    103 H103       22.6794  -31.4787  -40.8814 H         1 UNK         0.0787 
    104 H104       23.9121  -32.2382  -39.8900 H         1 UNK         0.0787 
    105 H105       23.6724  -29.7743  -43.1310 H         1 UNK         0.3055 
    106 H106       25.6991  -31.3466  -44.6494 H         1 UNK         0.1106 
    107 H107       24.7606  -30.0684  -46.5887 H         1 UNK         0.0828 
    108 H108       23.6135  -29.2709  -45.5205 H         1 UNK         0.0828 
    109 H109       25.3399  -28.9943  -45.3281 H         1 UNK         0.0828 
    110 H110       22.7691  -31.9188  -43.2257 H         1 UNK         0.2931 
    111 H111       22.1204  -34.2106  -44.9058 H         1 UNK         0.0412 
    112 H112       23.3024  -33.9176  -42.1964 H         1 UNK         0.3472 
    113 H113       22.1439  -34.6564  -41.1212 H         1 UNK         0.3472 
    114 H114       20.0225  -32.0652  -44.3562 H         1 UNK         0.0970 
    115 H115       20.8604  -32.2299  -45.8772 H         1 UNK         0.0970 
    116 H116       17.2280  -33.4554  -46.7737 H         1 UNK         0.0612 
    117 H117       18.4553  -32.2549  -47.0994 H         1 UNK         0.0612 
@<TRIPOS>BOND
     1    1    2 1    
     2    1   62 1    
     3    1   63 1    
     4    1   64 1    
     5    2    3 2    
     6    2    4 am   BACKBONE|DICT|INTERRES
     7    4    5 1    
     8    4   65 1    
     9    5    6 1    
    10    5   25 1    
    11    5   66 1    
    12    6    7 1    
    13    6   67 1    
    14    6   68 1    
    15    7    8 1    
    16    8    9 1    
    17    8   69 1    
    18    8   70 1    
    19    9   10 ar   
    20    9   14 ar   
    21   10   11 ar   
    22   10   71 1    
    23   11   12 ar   
    24   11   61 1    
    25   12   13 ar   
    26   12   72 1    
    27   13   14 ar   
    28   13   15 1    
    29   14   73 1    
    30   15   16 1    
    31   15   74 1    
    32   15   75 1    
    33   16   17 1    
    34   17   18 1    
    35   17   76 1    
    36   17   77 1    
    37   18   19 1    
    38   18   27 1    
    39   18   78 1    
    40   19   20 am   BACKBONE|DICT|INTERRES
    41   19   79 1    
    42   20   21 2    
    43   20   22 1    
    44   22   23 1    
    45   22   24 1    
    46   22   80 1    
    47   23   81 1    
    48   23   82 1    
    49   23   83 1    
    50   24   25 am   BACKBONE|DICT|INTERRES
    51   24   84 1    
    52   25   26 2    
    53   27   28 2    
    54   27   29 am   BACKBONE|DICT|INTERRES
    55   29   30 1    
    56   29   85 1    
    57   30   31 1    
    58   30   32 1    
    59   30   86 1    
    60   31   87 1    
    61   31   88 1    
    62   31   89 1    
    63   32   33 2    
    64   32   34 am   BACKBONE|DICT|INTERRES
    65   34   35 1    
    66   34   90 1    
    67   35   36 1    
    68   35   37 1    
    69   35   91 1    
    70   36   92 1    
    71   36   93 1    
    72   36   94 1    
    73   37   38 2    
    74   37   39 am   BACKBONE|DICT|INTERRES
    75   39   40 1    
    76   39   95 1    
    77   40   41 1    
    78   40   42 1    
    79   40   96 1    
    80   41   97 1    
    81   41   98 1    
    82   41   99 1    
    83   42   43 2    
    84   42   44 am   BACKBONE|DICT|INTERRES
    85   44   45 1    
    86   44  100 1    
    87   45   46 1    
    88   45   47 1    
    89   45  101 1    
    90   46  102 1    
    91   46  103 1    
    92   46  104 1    
    93   47   48 2    
    94   47   49 am   BACKBONE|DICT|INTERRES
    95   49   50 1    
    96   49  105 1    
    97   50   51 1    
    98   50   52 1    
    99   50  106 1    
   100   51  107 1    
   101   51  108 1    
   102   51  109 1    
   103   52   53 2    
   104   52   54 am   BACKBONE|DICT|INTERRES
   105   54   55 1    
   106   54  110 1    
   107   55   56 1    
   108   55   59 1    
   109   55  111 1    
   110   56   57 am   BACKBONE|DICT|INTERRES
   111   56   58 2    
   112   57  112 1    
   113   57  113 1    
   114   59   60 1    
   115   59  114 1    
   116   59  115 1    
   117   60   61 1    
   118   61  116 1    
   119   61  117 1    
@<TRIPOS>SUBSTRUCTURE
     1 UNK         1 GROUP             0       ****    0 ROOT    
