@<TRIPOS>MOLECULE
3R8
117   119    1
SMALL
USER_CHARGES


@<TRIPOS>ATOM
      1 CA         13.6216  -24.0057  -42.5505 C.3       0 UNK        -0.2013 
      2 C          14.2169  -24.8884  -43.6371 C.2       0 UNK         0.4866 
      3 O          13.7256  -24.8855  -44.7659 O.2       0 UNK        -0.5176 
      4 N          15.2720  -25.6445  -43.3060 N.am      1 UNK        -0.4884 
      5 CA         15.9596  -26.5676  -44.2204 C.3       1 UNK         0.0853 
      6 C6         16.8527  -27.5755  -43.4554 C.3       10 UNK        -0.0849 
      7 S7         15.8925  -28.6958  -42.3829 S.3       10 UNK        -0.2776 
      8 C8         17.2096  -29.4728  -41.3863 C.3       10 UNK         0.0316 
      9 C9         18.3107  -30.0740  -42.2504 C.ar      10 UNK        -0.0863 
     10 C10        18.0590  -31.2061  -43.0304 C.ar      10 UNK        -0.1009 
     11 C11        19.0518  -31.7326  -43.8624 C.ar      10 UNK        -0.0712 
     12 C12        20.3156  -31.1313  -43.8911 C.ar      10 UNK        -0.0894 
     13 C13        20.5804  -29.9986  -43.1131 C.ar      10 UNK        -0.0745 
     14 C14        19.5747  -29.4790  -42.2916 C.ar      10 UNK        -0.0972 
     15 C15        21.9456  -29.3209  -43.1646 C.3       10 UNK         0.0209 
     16 S16        22.2349  -28.4336  -44.7346 S.3       10 UNK        -0.2568 
     17 C17        20.8299  -27.2679  -44.8033 C.3       10 UNK        -0.0983 
     18 CA         21.2010  -25.7744  -44.6289 C.3       3 UNK         0.0876 
     19 N          20.0147  -24.9446  -44.7877 N.am      3 UNK        -0.4424 
     20 C          19.5218  -24.4692  -45.9340 C.2       2 UNK         0.4918 
     21 O          20.0774  -24.5920  -47.0269 O.2       2 UNK        -0.4875 
     22 CA         18.1452  -23.7814  -45.8184 C.3       2 UNK         0.0481 
     23 CB         17.5411  -23.3965  -47.1855 C.3       2 UNK        -0.1831 
     24 N          17.2030  -24.5920  -45.0301 N.am      2 UNK        -0.4498 
     25 C          16.7993  -25.8471  -45.2971 C.2       1 UNK         0.5027 
     26 O          17.0875  -26.4578  -46.3273 O.2       1 UNK        -0.4969 
     27 C          21.7584  -25.4445  -43.2344 C.2       3 UNK         0.5005 
     28 O          20.9731  -25.2266  -42.3060 O.2       3 UNK        -0.5279 
     29 N          23.0875  -25.3898  -43.1126 N.am      4 UNK        -0.4463 
     30 CA         23.8218  -25.0258  -41.9041 C.3       4 UNK         0.0283 
     31 CB         23.7689  -23.4991  -41.6913 C.3       4 UNK        -0.1875 
     32 C          25.2686  -25.5152  -42.0422 C.2       4 UNK         0.4949 
     33 O          25.6738  -25.9162  -43.1367 O.2       4 UNK        -0.5039 
     34 N          26.0136  -25.4658  -40.9275 N.am      5 UNK        -0.4663 
     35 CA         27.4126  -25.9012  -40.7758 C.3       5 UNK         0.0242 
     36 CB         28.3609  -25.0240  -41.6220 C.3       5 UNK        -0.1982 
     37 C          27.6115  -27.4118  -41.0230 C.2       5 UNK         0.5017 
     38 O          28.6767  -27.8319  -41.4789 O.2       5 UNK        -0.5012 
     39 N          26.5783  -28.1980  -40.7065 N.am      6 UNK        -0.4439 
     40 CA         26.4952  -29.6451  -40.8516 C.3       6 UNK         0.0297 
     41 CB         26.2599  -30.0143  -42.3298 C.3       6 UNK        -0.2006 
     42 C          25.3375  -30.1359  -39.9749 C.2       6 UNK         0.4892 
     43 O          24.4974  -29.3288  -39.5633 O.2       6 UNK        -0.5089 
     44 N          25.3040  -31.4495  -39.7214 N.am      7 UNK        -0.4243 
     45 CA         24.1926  -32.1327  -39.0555 C.3       7 UNK         0.0196 
     46 CB         24.6280  -33.5628  -38.6951 C.3       7 UNK        -0.2007 
     47 C          22.9421  -32.1637  -39.9502 C.2       7 UNK         0.5020 
     48 O          23.0637  -32.1205  -41.1771 O.2       7 UNK        -0.5147 
     49 N          21.7623  -32.2879  -39.3298 N.am      8 UNK        -0.4734 
     50 CA         20.4520  -32.3062  -39.9934 C.3       8 UNK         0.0238 
     51 CB         19.3667  -31.9093  -38.9749 C.3       8 UNK        -0.1912 
     52 C          20.1396  -33.6344  -40.7160 C.2       8 UNK         0.5038 
     53 O          19.0876  -34.2265  -40.4724 O.2       8 UNK        -0.5046 
     54 N          21.0806  -34.0705  -41.5627 N.am      9 UNK        -0.4200 
     55 CA         21.1122  -35.2262  -42.4791 C.3       9 UNK         0.0839 
     56 C          20.6982  -36.6374  -41.9565 C.2       9 UNK         0.5513 
     57 N          20.1983  -36.7936  -40.7404 N.am      9 UNK        -0.7519 
     58 O          20.8857  -37.6265  -42.6610 O.2       9 UNK        -0.4960 
     59 C59        20.5323  -34.8938  -43.8815 C.3       10 UNK        -0.0876 
     60 S60        18.7479  -34.5071  -43.9090 S.3       10 UNK        -0.2414 
     61 C61        18.7255  -32.9064  -44.7767 C.3       10 UNK         0.0169 
     62 H62        13.6648  -22.9593  -42.8514 H         1 UNK         0.0903 
     63 H63        12.5776  -24.2694  -42.3837 H         1 UNK         0.0903 
     64 H64        14.1521  -24.1087  -41.6041 H         1 UNK         0.0903 
     65 H65        15.6153  -25.6328  -42.3556 H         1 UNK         0.3096 
     66 H66        15.1960  -27.1347  -44.7585 H         1 UNK         0.1121 
     67 H67        17.5981  -27.0521  -42.8532 H         1 UNK         0.0849 
     68 H68        17.4104  -28.2005  -44.1570 H         1 UNK         0.0849 
     69 H69        17.6186  -28.7318  -40.6977 H         1 UNK         0.0865 
     70 H70        16.7702  -30.2547  -40.7654 H         1 UNK         0.0865 
     71 H71        17.0776  -31.6605  -43.0129 H         1 UNK         0.1346 
     72 H72        21.0870  -31.5237  -44.5391 H         1 UNK         0.1412 
     73 H73        19.7726  -28.5973  -41.6968 H         1 UNK         0.1426 
     74 H74        22.7242  -30.0743  -43.0371 H         1 UNK         0.0716 
     75 H75        22.0633  -28.6219  -42.3348 H         1 UNK         0.0716 
     76 H76        20.0660  -27.5437  -44.0782 H         1 UNK         0.0695 
     77 H77        20.3595  -27.4092  -45.7778 H         1 UNK         0.0695 
     78 H78        21.9413  -25.4906  -45.3805 H         1 UNK         0.0983 
     79 H79        19.5399  -24.7473  -43.9159 H         1 UNK         0.3095 
     80 H80        18.3055  -22.8592  -45.2582 H         1 UNK         0.0454 
     81 H81        18.1938  -22.7035  -47.7175 H         1 UNK         0.0851 
     82 H82        16.5750  -22.9061  -47.0681 H         1 UNK         0.0851 
     83 H83        17.3999  -24.2651  -47.8292 H         1 UNK         0.0851 
     84 H84        16.8913  -24.1852  -44.1591 H         1 UNK         0.2976 
     85 H85        23.6865  -25.6529  -43.8877 H         1 UNK         0.3116 
     86 H86        23.3712  -25.5341  -41.0488 H         1 UNK         0.0646 
     87 H87        24.3131  -23.2027  -40.7940 H         1 UNK         0.0847 
     88 H88        22.7445  -23.1467  -41.5711 H         1 UNK         0.0847 
     89 H89        24.2099  -22.9619  -42.5319 H         1 UNK         0.0847 
     90 H90        25.5777  -25.1171  -40.0839 H         1 UNK         0.3040 
     91 H91        27.6706  -25.7394  -39.7278 H         1 UNK         0.1015 
     92 H92        29.4047  -25.2447  -41.3952 H         1 UNK         0.0786 
     93 H93        28.2054  -23.9639  -41.4220 H         1 UNK         0.0786 
     94 H94        28.2209  -25.1882  -42.6908 H         1 UNK         0.0786 
     95 H95        25.7492  -27.7876  -40.2929 H         1 UNK         0.3172 
     96 H96        27.4229  -30.0972  -40.4946 H         1 UNK         0.0595 
     97 H97        25.3475  -29.5573  -42.7159 H         1 UNK         0.0839 
     98 H98        26.1631  -31.0929  -42.4588 H         1 UNK         0.0839 
     99 H99        27.0874  -29.6882  -42.9600 H         1 UNK         0.0839 
    100 H100       26.0163  -32.0392  -40.1266 H         1 UNK         0.2998 
    101 H101       23.9540  -31.5906  -38.1377 H         1 UNK         0.0822 
    102 H102       25.5025  -33.5595  -38.0440 H         1 UNK         0.0787 
    103 H103       24.8728  -34.1463  -39.5839 H         1 UNK         0.0787 
    104 H104       23.8353  -34.0938  -38.1663 H         1 UNK         0.0787 
    105 H105       21.7527  -32.3684  -38.3227 H         1 UNK         0.3055 
    106 H106       20.4633  -31.5414  -40.7692 H         1 UNK         0.1106 
    107 H107       19.2976  -32.6277  -38.1573 H         1 UNK         0.0828 
    108 H108       19.5640  -30.9264  -38.5469 H         1 UNK         0.0828 
    109 H109       18.3860  -31.8595  -39.4498 H         1 UNK         0.0828 
    110 H110       21.9044  -33.4762  -41.6172 H         1 UNK         0.2931 
    111 H111       22.1838  -35.3500  -42.6412 H         1 UNK         0.0412 
    112 H112       19.9111  -35.9677  -40.2285 H         1 UNK         0.3472 
    113 H113       19.9527  -37.7138  -40.4114 H         1 UNK         0.3472 
    114 H114       21.0872  -34.0534  -44.2994 H         1 UNK         0.0970 
    115 H115       20.7099  -35.7191  -44.5734 H         1 UNK         0.0970 
    116 H116       17.7302  -32.7602  -45.1987 H         1 UNK         0.0612 
    117 H117       19.4073  -32.9377  -45.6280 H         1 UNK         0.0612 
@<TRIPOS>BOND
     1    1    2 1    
     2    1   62 1    
     3    1   63 1    
     4    1   64 1    
     5    2    3 2    
     6    2    4 am   BACKBONE|DICT|INTERRES
     7    4    5 1    
     8    4   65 1    
     9    5    6 1    
    10    5   25 1    
    11    5   66 1    
    12    6    7 1    
    13    6   67 1    
    14    6   68 1    
    15    7    8 1    
    16    8    9 1    
    17    8   69 1    
    18    8   70 1    
    19    9   10 ar   
    20    9   14 ar   
    21   10   11 ar   
    22   10   71 1    
    23   11   12 ar   
    24   11   61 1    
    25   12   13 ar   
    26   12   72 1    
    27   13   14 ar   
    28   13   15 1    
    29   14   73 1    
    30   15   16 1    
    31   15   74 1    
    32   15   75 1    
    33   16   17 1    
    34   17   18 1    
    35   17   76 1    
    36   17   77 1    
    37   18   19 1    
    38   18   27 1    
    39   18   78 1    
    40   19   20 am   BACKBONE|DICT|INTERRES
    41   19   79 1    
    42   20   21 2    
    43   20   22 1    
    44   22   23 1    
    45   22   24 1    
    46   22   80 1    
    47   23   81 1    
    48   23   82 1    
    49   23   83 1    
    50   24   25 am   BACKBONE|DICT|INTERRES
    51   24   84 1    
    52   25   26 2    
    53   27   28 2    
    54   27   29 am   BACKBONE|DICT|INTERRES
    55   29   30 1    
    56   29   85 1    
    57   30   31 1    
    58   30   32 1    
    59   30   86 1    
    60   31   87 1    
    61   31   88 1    
    62   31   89 1    
    63   32   33 2    
    64   32   34 am   BACKBONE|DICT|INTERRES
    65   34   35 1    
    66   34   90 1    
    67   35   36 1    
    68   35   37 1    
    69   35   91 1    
    70   36   92 1    
    71   36   93 1    
    72   36   94 1    
    73   37   38 2    
    74   37   39 am   BACKBONE|DICT|INTERRES
    75   39   40 1    
    76   39   95 1    
    77   40   41 1    
    78   40   42 1    
    79   40   96 1    
    80   41   97 1    
    81   41   98 1    
    82   41   99 1    
    83   42   43 2    
    84   42   44 am   BACKBONE|DICT|INTERRES
    85   44   45 1    
    86   44  100 1    
    87   45   46 1    
    88   45   47 1    
    89   45  101 1    
    90   46  102 1    
    91   46  103 1    
    92   46  104 1    
    93   47   48 2    
    94   47   49 am   BACKBONE|DICT|INTERRES
    95   49   50 1    
    96   49  105 1    
    97   50   51 1    
    98   50   52 1    
    99   50  106 1    
   100   51  107 1    
   101   51  108 1    
   102   51  109 1    
   103   52   53 2    
   104   52   54 am   BACKBONE|DICT|INTERRES
   105   54   55 1    
   106   54  110 1    
   107   55   56 1    
   108   55   59 1    
   109   55  111 1    
   110   56   57 am   BACKBONE|DICT|INTERRES
   111   56   58 2    
   112   57  112 1    
   113   57  113 1    
   114   59   60 1    
   115   59  114 1    
   116   59  115 1    
   117   60   61 1    
   118   61  116 1    
   119   61  117 1    
@<TRIPOS>SUBSTRUCTURE
     1 UNK         1 GROUP             0       ****    0 ROOT    
