@<TRIPOS>MOLECULE
3R8
117   119    1
SMALL
USER_CHARGES


@<TRIPOS>ATOM
      1 CA         14.7294  -23.9503  -40.7393 C.3       0 UNK        -0.2013 
      2 C          15.4033  -23.9958  -42.1027 C.2       0 UNK         0.4866 
      3 O          15.6479  -22.9468  -42.7002 O.2       0 UNK        -0.5176 
      4 N          15.6964  -25.2022  -42.6034 N.am      1 UNK        -0.4884 
      5 CA         16.3887  -25.4338  -43.8757 C.3       1 UNK         0.0853 
      6 C6         16.2528  -26.9036  -44.3391 C.3       10 UNK        -0.0849 
      7 S7         14.5414  -27.3213  -44.8188 S.3       10 UNK        -0.2776 
      8 C8         14.4464  -29.1042  -44.4182 C.3       10 UNK         0.0316 
      9 C9         15.6208  -29.9285  -44.9446 C.ar      10 UNK        -0.0863 
     10 C10        16.1871  -30.9180  -44.1335 C.ar      10 UNK        -0.1009 
     11 C11        17.2954  -31.6507  -44.5694 C.ar      10 UNK        -0.0712 
     12 C12        17.8400  -31.3895  -45.8292 C.ar      10 UNK        -0.0894 
     13 C13        17.2916  -30.3948  -46.6454 C.ar      10 UNK        -0.0745 
     14 C14        16.1624  -29.6949  -46.2143 C.ar      10 UNK        -0.0972 
     15 C15        17.9708  -30.0143  -47.9538 C.3       10 UNK         0.0209 
     16 S16        18.9252  -28.4638  -47.7867 S.3       10 UNK        -0.2568 
     17 C17        19.9928  -28.8672  -46.3631 C.3       10 UNK        -0.0983 
     18 CA         20.9569  -27.7368  -45.9307 C.3       3 UNK         0.0876 
     19 N          20.2344  -26.4944  -45.6443 N.am      3 UNK        -0.4424 
     20 C          20.7869  -25.3181  -45.3199 C.2       2 UNK         0.4918 
     21 O          22.0026  -25.1269  -45.2637 O.2       2 UNK        -0.4875 
     22 CA         19.8314  -24.1401  -45.0412 C.3       2 UNK         0.0481 
     23 CB         19.9389  -23.0902  -46.1599 C.3       2 UNK        -0.1831 
     24 N          18.4257  -24.5397  -44.9019 N.am      2 UNK        -0.4498 
     25 C          17.8778  -25.0382  -43.7843 C.2       1 UNK         0.5027 
     26 O          18.5009  -25.2205  -42.7355 O.2       1 UNK        -0.4969 
     27 C          21.7555  -28.2338  -44.7073 C.2       3 UNK         0.5005 
     28 O          21.2963  -28.0679  -43.5742 O.2       3 UNK        -0.5279 
     29 N          22.8825  -28.9118  -44.9783 N.am      4 UNK        -0.4463 
     30 CA         23.7019  -29.6776  -44.0294 C.3       4 UNK         0.0283 
     31 CB         22.9584  -30.9666  -43.6188 C.3       4 UNK        -0.1875 
     32 C          24.1706  -28.8495  -42.8177 C.2       4 UNK         0.4949 
     33 O          23.9373  -29.2418  -41.6725 O.2       4 UNK        -0.5039 
     34 N          24.8164  -27.7085  -43.0979 N.am      5 UNK        -0.4663 
     35 CA         25.3705  -26.7867  -42.1001 C.3       5 UNK         0.0242 
     36 CB         26.0390  -25.6033  -42.8176 C.3       5 UNK        -0.1982 
     37 C          26.3676  -27.4826  -41.1561 C.2       5 UNK         0.5017 
     38 O          27.1988  -28.2645  -41.6232 O.2       5 UNK        -0.5012 
     39 N          26.2306  -27.2205  -39.8489 N.am      6 UNK        -0.4439 
     40 CA         26.9405  -27.8260  -38.7094 C.3       6 UNK         0.0297 
     41 CB         28.4646  -27.6136  -38.8024 C.3       6 UNK        -0.2006 
     42 C          26.5994  -29.3082  -38.4476 C.2       6 UNK         0.4892 
     43 O          26.5454  -29.7059  -37.2833 O.2       6 UNK        -0.5089 
     44 N          26.3617  -30.0932  -39.5066 N.am      7 UNK        -0.4243 
     45 CA         25.9414  -31.4954  -39.4443 C.3       7 UNK         0.0196 
     46 CB         26.1278  -32.1419  -40.8262 C.3       7 UNK        -0.2007 
     47 C          24.4925  -31.6716  -38.9571 C.2       7 UNK         0.5020 
     48 O          24.1930  -32.6844  -38.3245 O.2       7 UNK        -0.5147 
     49 N          23.6217  -30.7002  -39.2734 N.am      8 UNK        -0.4734 
     50 CA         22.2016  -30.6135  -38.9017 C.3       8 UNK         0.0238 
     51 CB         22.0565  -30.3663  -37.3851 C.3       8 UNK        -0.1912 
     52 C          21.3715  -31.8149  -39.3967 C.2       8 UNK         0.5038 
     53 O          20.4877  -32.2918  -38.6823 O.2       8 UNK        -0.5046 
     54 N          21.7021  -32.2894  -40.6051 N.am      9 UNK        -0.4200 
     55 CA         21.1560  -33.4902  -41.2625 C.3       9 UNK         0.0839 
     56 C          21.5650  -34.8364  -40.5869 C.2       9 UNK         0.5513 
     57 N          22.5055  -34.8626  -39.6488 N.am      9 UNK        -0.7519 
     58 O          21.0453  -35.8901  -40.9456 O.2       9 UNK        -0.4960 
     59 C59        19.6253  -33.4054  -41.5411 C.3       10 UNK        -0.0876 
     60 S60        19.1596  -31.9606  -42.5571 S.3       10 UNK        -0.2414 
     61 C61        17.9220  -32.7020  -43.6664 C.3       10 UNK         0.0169 
     62 H62        13.7659  -23.4467  -40.8135 H         1 UNK         0.0903 
     63 H63        15.3491  -23.3984  -40.0331 H         1 UNK         0.0903 
     64 H64        14.5600  -24.9478  -40.3342 H         1 UNK         0.0903 
     65 H65        15.4836  -26.0300  -42.0656 H         1 UNK         0.3096 
     66 H66        15.9210  -24.7917  -44.6262 H         1 UNK         0.1121 
     67 H67        16.5965  -27.5853  -43.5581 H         1 UNK         0.0849 
     68 H68        16.8840  -27.0967  -45.2089 H         1 UNK         0.0849 
     69 H69        14.3704  -29.2028  -43.3340 H         1 UNK         0.0865 
     70 H70        13.5206  -29.5091  -44.8287 H         1 UNK         0.0865 
     71 H71        15.7801  -31.1077  -43.1495 H         1 UNK         0.1346 
     72 H72        18.7191  -31.9293  -46.1540 H         1 UNK         0.1412 
     73 H73        15.7448  -28.9232  -46.8464 H         1 UNK         0.1426 
     74 H74        17.2207  -29.8908  -48.7362 H         1 UNK         0.0716 
     75 H75        18.6369  -30.8111  -48.2884 H         1 UNK         0.0716 
     76 H76        20.5488  -29.7737  -46.6114 H         1 UNK         0.0695 
     77 H77        19.3488  -29.1222  -45.5193 H         1 UNK         0.0695 
     78 H78        21.6534  -27.5298  -46.7460 H         1 UNK         0.0983 
     79 H79        19.2297  -26.5585  -45.6713 H         1 UNK         0.3095 
     80 H80        20.1569  -23.6723  -44.1096 H         1 UNK         0.0454 
     81 H81        19.3183  -22.2192  -45.9488 H         1 UNK         0.0851 
     82 H82        19.6349  -23.4948  -47.1261 H         1 UNK         0.0851 
     83 H83        20.9648  -22.7343  -46.2653 H         1 UNK         0.0851 
     84 H84        17.8451  -24.4206  -45.7207 H         1 UNK         0.2976 
     85 H85        23.1769  -28.9731  -45.9438 H         1 UNK         0.3116 
     86 H86        24.6050  -29.9760  -44.5641 H         1 UNK         0.0646 
     87 H87        22.0490  -30.7434  -43.0598 H         1 UNK         0.0847 
     88 H88        23.5863  -31.6004  -42.9930 H         1 UNK         0.0847 
     89 H89        22.6748  -31.5569  -44.4899 H         1 UNK         0.0847 
     90 H90        24.9619  -27.4670  -44.0673 H         1 UNK         0.3040 
     91 H91        24.5316  -26.4080  -41.5121 H         1 UNK         0.1015 
     92 H92        26.8682  -25.9301  -43.4467 H         1 UNK         0.0786 
     93 H93        26.4381  -24.8856  -42.0995 H         1 UNK         0.0786 
     94 H94        25.3285  -25.0678  -43.4481 H         1 UNK         0.0786 
     95 H95        25.4962  -26.5779  -39.5836 H         1 UNK         0.3172 
     96 H96        26.5934  -27.2754  -37.8334 H         1 UNK         0.0595 
     97 H97        28.9078  -28.1688  -39.6294 H         1 UNK         0.0839 
     98 H98        28.9581  -27.9510  -37.8899 H         1 UNK         0.0839 
     99 H99        28.7121  -26.5603  -38.9335 H         1 UNK         0.0839 
    100 H100       26.4661  -29.6785  -40.4269 H         1 UNK         0.2998 
    101 H101       26.5899  -32.0132  -38.7343 H         1 UNK         0.0822 
    102 H102       27.1748  -32.1292  -41.1297 H         1 UNK         0.0787 
    103 H103       25.8053  -33.1842  -40.8191 H         1 UNK         0.0787 
    104 H104       25.5524  -31.6248  -41.5940 H         1 UNK         0.0787 
    105 H105       23.9420  -29.9764  -39.9139 H         1 UNK         0.3055 
    106 H106       21.8018  -29.7403  -39.4205 H         1 UNK         0.1106 
    107 H107       21.0170  -30.1742  -37.1167 H         1 UNK         0.0828 
    108 H108       22.3897  -31.2256  -36.8022 H         1 UNK         0.0828 
    109 H109       22.6374  -29.5004  -37.0674 H         1 UNK         0.0828 
    110 H110       22.4543  -31.8270  -41.0928 H         1 UNK         0.2931 
    111 H111       21.6502  -33.5210  -42.2341 H         1 UNK         0.0412 
    112 H112       22.9466  -34.0131  -39.3164 H         1 UNK         0.3472 
    113 H113       22.7599  -35.7471  -39.2386 H         1 UNK         0.3472 
    114 H114       19.0609  -33.3729  -40.6083 H         1 UNK         0.0970 
    115 H115       19.2909  -34.3074  -42.0566 H         1 UNK         0.0970 
    116 H116       18.3932  -33.4825  -44.2660 H         1 UNK         0.0612 
    117 H117       17.1480  -33.1898  -43.0717 H         1 UNK         0.0612 
@<TRIPOS>BOND
     1    1    2 1    
     2    1   62 1    
     3    1   63 1    
     4    1   64 1    
     5    2    3 2    
     6    2    4 am   BACKBONE|DICT|INTERRES
     7    4    5 1    
     8    4   65 1    
     9    5    6 1    
    10    5   25 1    
    11    5   66 1    
    12    6    7 1    
    13    6   67 1    
    14    6   68 1    
    15    7    8 1    
    16    8    9 1    
    17    8   69 1    
    18    8   70 1    
    19    9   10 ar   
    20    9   14 ar   
    21   10   11 ar   
    22   10   71 1    
    23   11   12 ar   
    24   11   61 1    
    25   12   13 ar   
    26   12   72 1    
    27   13   14 ar   
    28   13   15 1    
    29   14   73 1    
    30   15   16 1    
    31   15   74 1    
    32   15   75 1    
    33   16   17 1    
    34   17   18 1    
    35   17   76 1    
    36   17   77 1    
    37   18   19 1    
    38   18   27 1    
    39   18   78 1    
    40   19   20 am   BACKBONE|DICT|INTERRES
    41   19   79 1    
    42   20   21 2    
    43   20   22 1    
    44   22   23 1    
    45   22   24 1    
    46   22   80 1    
    47   23   81 1    
    48   23   82 1    
    49   23   83 1    
    50   24   25 am   BACKBONE|DICT|INTERRES
    51   24   84 1    
    52   25   26 2    
    53   27   28 2    
    54   27   29 am   BACKBONE|DICT|INTERRES
    55   29   30 1    
    56   29   85 1    
    57   30   31 1    
    58   30   32 1    
    59   30   86 1    
    60   31   87 1    
    61   31   88 1    
    62   31   89 1    
    63   32   33 2    
    64   32   34 am   BACKBONE|DICT|INTERRES
    65   34   35 1    
    66   34   90 1    
    67   35   36 1    
    68   35   37 1    
    69   35   91 1    
    70   36   92 1    
    71   36   93 1    
    72   36   94 1    
    73   37   38 2    
    74   37   39 am   BACKBONE|DICT|INTERRES
    75   39   40 1    
    76   39   95 1    
    77   40   41 1    
    78   40   42 1    
    79   40   96 1    
    80   41   97 1    
    81   41   98 1    
    82   41   99 1    
    83   42   43 2    
    84   42   44 am   BACKBONE|DICT|INTERRES
    85   44   45 1    
    86   44  100 1    
    87   45   46 1    
    88   45   47 1    
    89   45  101 1    
    90   46  102 1    
    91   46  103 1    
    92   46  104 1    
    93   47   48 2    
    94   47   49 am   BACKBONE|DICT|INTERRES
    95   49   50 1    
    96   49  105 1    
    97   50   51 1    
    98   50   52 1    
    99   50  106 1    
   100   51  107 1    
   101   51  108 1    
   102   51  109 1    
   103   52   53 2    
   104   52   54 am   BACKBONE|DICT|INTERRES
   105   54   55 1    
   106   54  110 1    
   107   55   56 1    
   108   55   59 1    
   109   55  111 1    
   110   56   57 am   BACKBONE|DICT|INTERRES
   111   56   58 2    
   112   57  112 1    
   113   57  113 1    
   114   59   60 1    
   115   59  114 1    
   116   59  115 1    
   117   60   61 1    
   118   61  116 1    
   119   61  117 1    
@<TRIPOS>SUBSTRUCTURE
     1 UNK         1 GROUP             0       ****    0 ROOT    
