@<TRIPOS>MOLECULE
3R8
117   119    1
SMALL
USER_CHARGES


@<TRIPOS>ATOM
      1 CA         20.4324  -29.3571  -42.6626 C.3       0 UNK        -0.2013 
      2 C          19.9971  -27.9075  -42.5614 C.2       0 UNK         0.4866 
      3 O          20.7408  -27.0824  -42.0334 O.2       0 UNK        -0.5176 
      4 N          18.7813  -27.6298  -43.0427 N.am      1 UNK        -0.4884 
      5 CA         18.0246  -26.3845  -42.9046 C.3       1 UNK         0.0853 
      6 C6         16.5018  -26.6110  -43.1561 C.3       10 UNK        -0.0849 
      7 S7         15.8188  -28.0922  -42.3247 S.3       10 UNK        -0.2776 
      8 C8         15.4246  -29.1839  -43.7380 C.3       10 UNK         0.0316 
      9 C9         16.6646  -29.8300  -44.3486 C.ar      10 UNK        -0.0863 
     10 C10        17.0916  -31.0885  -43.9077 C.ar      10 UNK        -0.1009 
     11 C11        18.2163  -31.6956  -44.4767 C.ar      10 UNK        -0.0712 
     12 C12        18.9273  -31.0259  -45.4760 C.ar      10 UNK        -0.0894 
     13 C13        18.5278  -29.7594  -45.9082 C.ar      10 UNK        -0.0745 
     14 C14        17.3764  -29.1813  -45.3651 C.ar      10 UNK        -0.0972 
     15 C15        19.3613  -29.0113  -46.9385 C.3       10 UNK         0.0209 
     16 S16        20.9409  -28.4710  -46.2089 S.3       10 UNK        -0.2568 
     17 C17        21.5775  -27.3201  -47.4735 C.3       10 UNK        -0.0983 
     18 CA         21.5846  -25.8413  -47.0082 C.3       3 UNK         0.0876 
     19 N          20.2520  -25.4143  -46.5750 N.am      3 UNK        -0.4424 
     20 C          19.8218  -24.1486  -46.5107 C.2       2 UNK         0.4918 
     21 O          20.4737  -23.1809  -46.9023 O.2       2 UNK        -0.4875 
     22 CA         18.4348  -23.9243  -45.8802 C.3       2 UNK         0.0481 
     23 CB         17.3679  -23.7829  -46.9773 C.3       2 UNK        -0.1831 
     24 N          18.0249  -24.9778  -44.9409 N.am      2 UNK        -0.4498 
     25 C          18.6286  -25.2558  -43.7735 C.2       1 UNK         0.5027 
     26 O          19.6320  -24.6565  -43.3869 O.2       1 UNK        -0.4969 
     27 C          22.6789  -25.5685  -45.9467 C.2       3 UNK         0.5005 
     28 O          23.8614  -25.6103  -46.2898 O.2       3 UNK        -0.5279 
     29 N          22.2768  -25.2865  -44.6948 N.am      4 UNK        -0.4463 
     30 CA         23.1117  -24.9316  -43.5414 C.3       4 UNK         0.0283 
     31 CB         23.8315  -23.5864  -43.7768 C.3       4 UNK        -0.1875 
     32 C          24.0676  -26.0472  -43.0744 C.2       4 UNK         0.4949 
     33 O          25.1013  -25.7473  -42.4747 O.2       4 UNK        -0.5039 
     34 N          23.7044  -27.3150  -43.3205 N.am      5 UNK        -0.4663 
     35 CA         24.4468  -28.4855  -42.8344 C.3       5 UNK         0.0242 
     36 CB         24.1134  -29.7122  -43.6990 C.3       5 UNK        -0.1982 
     37 C          24.2061  -28.7690  -41.3373 C.2       5 UNK         0.5017 
     38 O          25.0069  -29.4822  -40.7306 O.2       5 UNK        -0.5012 
     39 N          23.1310  -28.1955  -40.7708 N.am      6 UNK        -0.4439 
     40 CA         22.7501  -28.1890  -39.3566 C.3       6 UNK         0.0297 
     41 CB         23.6696  -27.2241  -38.5733 C.3       6 UNK        -0.2006 
     42 C          22.6581  -29.6041  -38.7543 C.2       6 UNK         0.4892 
     43 O          21.7745  -30.3693  -39.1466 O.2       6 UNK        -0.5089 
     44 N          23.5728  -29.9232  -37.8261 N.am      7 UNK        -0.4243 
     45 CA         23.6551  -31.1717  -37.0611 C.3       7 UNK         0.0196 
     46 CB         24.8362  -31.0800  -36.0815 C.3       7 UNK        -0.2007 
     47 C          23.7585  -32.4545  -37.9043 C.2       7 UNK         0.5020 
     48 O          23.4103  -33.5225  -37.4005 O.2       7 UNK        -0.5147 
     49 N          24.1781  -32.3380  -39.1731 N.am      8 UNK        -0.4734 
     50 CA         24.1803  -33.4252  -40.1595 C.3       8 UNK         0.0238 
     51 CB         24.7989  -32.9118  -41.4684 C.3       8 UNK        -0.1912 
     52 C          22.7856  -34.0246  -40.4332 C.2       8 UNK         0.5038 
     53 O          22.7043  -35.1954  -40.8072 O.2       8 UNK        -0.5046 
     54 N          21.7316  -33.2250  -40.2248 N.am      9 UNK        -0.4200 
     55 CA         20.3186  -33.6232  -40.3142 C.3       9 UNK         0.0839 
     56 C          19.6256  -33.6631  -38.9205 C.2       9 UNK         0.5513 
     57 N          20.3533  -33.6387  -37.8090 N.am      9 UNK        -0.7519 
     58 O          18.4025  -33.7422  -38.8389 O.2       9 UNK        -0.4960 
     59 C59        19.5536  -32.7396  -41.3356 C.3       10 UNK        -0.0876 
     60 S60        20.2000  -32.9743  -43.0286 S.3       10 UNK        -0.2414 
     61 C61        18.6786  -33.0729  -44.0248 C.3       10 UNK         0.0169 
     62 H62        21.0327  -29.6502  -41.8028 H         1 UNK         0.0903 
     63 H63        19.5654  -30.0129  -42.6948 H         1 UNK         0.0903 
     64 H64        21.0088  -29.5236  -43.5678 H         1 UNK         0.0903 
     65 H65        18.2578  -28.3857  -43.4662 H         1 UNK         0.3096 
     66 H66        18.1374  -26.0614  -41.8671 H         1 UNK         0.1121 
     67 H67        15.9414  -25.7442  -42.8007 H         1 UNK         0.0849 
     68 H68        16.2663  -26.6927  -44.2160 H         1 UNK         0.0849 
     69 H69        14.7419  -29.9615  -43.3916 H         1 UNK         0.0865 
     70 H70        14.8728  -28.6267  -44.4968 H         1 UNK         0.0865 
     71 H71        16.5445  -31.5987  -43.1265 H         1 UNK         0.1346 
     72 H72        19.8133  -31.4804  -45.8987 H         1 UNK         0.1412 
     73 H73        17.0494  -28.2151  -45.7213 H         1 UNK         0.1426 
     74 H74        18.8165  -28.1456  -47.3179 H         1 UNK         0.0716 
     75 H75        19.5585  -29.6575  -47.7951 H         1 UNK         0.0716 
     76 H76        20.9763  -27.4142  -48.3792 H         1 UNK         0.0695 
     77 H77        22.5815  -27.6405  -47.7587 H         1 UNK         0.0695 
     78 H78        21.8572  -25.2340  -47.8745 H         1 UNK         0.0983 
     79 H79        19.6502  -26.1459  -46.2283 H         1 UNK         0.3095 
     80 H80        18.4783  -22.9849  -45.3253 H         1 UNK         0.0454 
     81 H81        17.6299  -22.9869  -47.6760 H         1 UNK         0.0851 
     82 H82        16.3944  -23.5311  -46.5563 H         1 UNK         0.0851 
     83 H83        17.2579  -24.7002  -47.5571 H         1 UNK         0.0851 
     84 H84        17.1988  -25.4993  -45.1930 H         1 UNK         0.2976 
     85 H85        21.2808  -25.2674  -44.5026 H         1 UNK         0.3116 
     86 H86        22.4149  -24.7835  -42.7149 H         1 UNK         0.0646 
     87 H87        24.6009  -23.6678  -44.5450 H         1 UNK         0.0847 
     88 H88        23.1305  -22.8101  -44.0836 H         1 UNK         0.0847 
     89 H89        24.3189  -23.2374  -42.8658 H         1 UNK         0.0847 
     90 H90        22.8402  -27.4797  -43.8168 H         1 UNK         0.3040 
     91 H91        25.5131  -28.2799  -42.9539 H         1 UNK         0.1015 
     92 H92        24.8533  -30.4977  -43.5429 H         1 UNK         0.0786 
     93 H93        24.1234  -29.4716  -44.7625 H         1 UNK         0.0786 
     94 H94        23.1418  -30.1384  -43.4569 H         1 UNK         0.0786 
     95 H95        22.4959  -27.6821  -41.3767 H         1 UNK         0.3172 
     96 H96        21.7390  -27.7810  -39.3172 H         1 UNK         0.0595 
     97 H97        24.7180  -27.5217  -38.6180 H         1 UNK         0.0839 
     98 H98        23.3800  -27.1622  -37.5232 H         1 UNK         0.0839 
     99 H99        23.6032  -26.2139  -38.9781 H         1 UNK         0.0839 
    100 H100       24.2723  -29.2275  -37.6119 H         1 UNK         0.2998 
    101 H101       22.7337  -31.2507  -36.4805 H         1 UNK         0.0822 
    102 H102       24.9101  -31.9817  -35.4715 H         1 UNK         0.0787 
    103 H103       25.7857  -30.9626  -36.6055 H         1 UNK         0.0787 
    104 H104       24.7221  -30.2389  -35.3972 H         1 UNK         0.0787 
    105 H105       24.4379  -31.4177  -39.5082 H         1 UNK         0.3055 
    106 H106       24.8085  -34.2277  -39.7670 H         1 UNK         0.1106 
    107 H107       24.1931  -32.1186  -41.9066 H         1 UNK         0.0828 
    108 H108       25.8042  -32.5205  -41.3111 H         1 UNK         0.0828 
    109 H109       24.8726  -33.7115  -42.2068 H         1 UNK         0.0828 
    110 H110       21.8930  -32.2804  -39.8901 H         1 UNK         0.2931 
    111 H111       20.2557  -34.6520  -40.6727 H         1 UNK         0.0412 
    112 H112       21.3649  -33.6237  -37.8453 H         1 UNK         0.3472 
    113 H113       19.8849  -33.6745  -36.9175 H         1 UNK         0.3472 
    114 H114       18.4887  -32.9766  -41.3289 H         1 UNK         0.0970 
    115 H115       19.6307  -31.6882  -41.0574 H         1 UNK         0.0970 
    116 H116       18.8837  -33.6820  -44.9063 H         1 UNK         0.0612 
    117 H117       17.8941  -33.5949  -43.4754 H         1 UNK         0.0612 
@<TRIPOS>BOND
     1    1    2 1    
     2    1   62 1    
     3    1   63 1    
     4    1   64 1    
     5    2    3 2    
     6    2    4 am   BACKBONE|DICT|INTERRES
     7    4    5 1    
     8    4   65 1    
     9    5    6 1    
    10    5   25 1    
    11    5   66 1    
    12    6    7 1    
    13    6   67 1    
    14    6   68 1    
    15    7    8 1    
    16    8    9 1    
    17    8   69 1    
    18    8   70 1    
    19    9   10 ar   
    20    9   14 ar   
    21   10   11 ar   
    22   10   71 1    
    23   11   12 ar   
    24   11   61 1    
    25   12   13 ar   
    26   12   72 1    
    27   13   14 ar   
    28   13   15 1    
    29   14   73 1    
    30   15   16 1    
    31   15   74 1    
    32   15   75 1    
    33   16   17 1    
    34   17   18 1    
    35   17   76 1    
    36   17   77 1    
    37   18   19 1    
    38   18   27 1    
    39   18   78 1    
    40   19   20 am   BACKBONE|DICT|INTERRES
    41   19   79 1    
    42   20   21 2    
    43   20   22 1    
    44   22   23 1    
    45   22   24 1    
    46   22   80 1    
    47   23   81 1    
    48   23   82 1    
    49   23   83 1    
    50   24   25 am   BACKBONE|DICT|INTERRES
    51   24   84 1    
    52   25   26 2    
    53   27   28 2    
    54   27   29 am   BACKBONE|DICT|INTERRES
    55   29   30 1    
    56   29   85 1    
    57   30   31 1    
    58   30   32 1    
    59   30   86 1    
    60   31   87 1    
    61   31   88 1    
    62   31   89 1    
    63   32   33 2    
    64   32   34 am   BACKBONE|DICT|INTERRES
    65   34   35 1    
    66   34   90 1    
    67   35   36 1    
    68   35   37 1    
    69   35   91 1    
    70   36   92 1    
    71   36   93 1    
    72   36   94 1    
    73   37   38 2    
    74   37   39 am   BACKBONE|DICT|INTERRES
    75   39   40 1    
    76   39   95 1    
    77   40   41 1    
    78   40   42 1    
    79   40   96 1    
    80   41   97 1    
    81   41   98 1    
    82   41   99 1    
    83   42   43 2    
    84   42   44 am   BACKBONE|DICT|INTERRES
    85   44   45 1    
    86   44  100 1    
    87   45   46 1    
    88   45   47 1    
    89   45  101 1    
    90   46  102 1    
    91   46  103 1    
    92   46  104 1    
    93   47   48 2    
    94   47   49 am   BACKBONE|DICT|INTERRES
    95   49   50 1    
    96   49  105 1    
    97   50   51 1    
    98   50   52 1    
    99   50  106 1    
   100   51  107 1    
   101   51  108 1    
   102   51  109 1    
   103   52   53 2    
   104   52   54 am   BACKBONE|DICT|INTERRES
   105   54   55 1    
   106   54  110 1    
   107   55   56 1    
   108   55   59 1    
   109   55  111 1    
   110   56   57 am   BACKBONE|DICT|INTERRES
   111   56   58 2    
   112   57  112 1    
   113   57  113 1    
   114   59   60 1    
   115   59  114 1    
   116   59  115 1    
   117   60   61 1    
   118   61  116 1    
   119   61  117 1    
@<TRIPOS>SUBSTRUCTURE
     1 UNK         1 GROUP             0       ****    0 ROOT    
