@<TRIPOS>MOLECULE
3R8
117   119    1
SMALL
USER_CHARGES


@<TRIPOS>ATOM
      1 CA         14.6007  -24.1469  -41.5767 C.3       0 UNK        -0.2013 
      2 C          15.3194  -23.8316  -42.8799 C.2       0 UNK         0.4866 
      3 O          15.2691  -22.6939  -43.3476 O.2       0 UNK        -0.5176 
      4 N          15.9878  -24.8309  -43.4709 N.am      1 UNK        -0.4884 
      5 CA         16.7196  -24.7104  -44.7397 C.3       1 UNK         0.0853 
      6 C6         17.1022  -26.0930  -45.3224 C.3       10 UNK        -0.0849 
      7 S7         15.6887  -27.1923  -45.6666 S.3       10 UNK        -0.2776 
      8 C8         16.0410  -28.6241  -44.5793 C.3       10 UNK         0.0316 
      9 C9         17.2996  -29.4457  -44.8919 C.ar      10 UNK        -0.0863 
     10 C10        17.5575  -30.5708  -44.1010 C.ar      10 UNK        -0.1009 
     11 C11        18.6924  -31.3596  -44.3132 C.ar      10 UNK        -0.0712 
     12 C12        19.5894  -31.0081  -45.3266 C.ar      10 UNK        -0.0894 
     13 C13        19.3568  -29.8848  -46.1246 C.ar      10 UNK        -0.0745 
     14 C14        18.2003  -29.1268  -45.9190 C.ar      10 UNK        -0.0972 
     15 C15        20.3349  -29.5109  -47.2335 C.3       10 UNK         0.0209 
     16 S16        21.8072  -28.6237  -46.6159 S.3       10 UNK        -0.2568 
     17 C17        21.1358  -26.9718  -46.1871 C.3       10 UNK        -0.0983 
     18 CA         21.7043  -26.2899  -44.9033 C.3       3 UNK         0.0876 
     19 N          20.8206  -25.2123  -44.4526 N.am      3 UNK        -0.4424 
     20 C          21.1093  -24.2628  -43.5511 C.2       2 UNK         0.4918 
     21 O          22.2309  -24.0983  -43.0721 O.2       2 UNK        -0.4875 
     22 CA         19.9512  -23.3637  -43.0616 C.3       2 UNK         0.0481 
     23 CB         20.1597  -21.8923  -43.4735 C.3       2 UNK        -0.1831 
     24 N          18.6079  -23.8563  -43.4154 N.am      2 UNK        -0.4498 
     25 C          18.0120  -23.8757  -44.6188 C.2       1 UNK         0.5027 
     26 O          18.4884  -23.3616  -45.6300 O.2       1 UNK        -0.4969 
     27 C          21.9631  -27.2622  -43.7353 C.2       3 UNK         0.5005 
     28 O          23.0932  -27.3620  -43.2523 O.2       3 UNK        -0.5279 
     29 N          20.9039  -27.9800  -43.3280 N.am      4 UNK        -0.4463 
     30 CA         20.8726  -28.9924  -42.2646 C.3       4 UNK         0.0283 
     31 CB         20.9625  -28.3143  -40.8827 C.3       4 UNK        -0.1875 
     32 C          21.9080  -30.1273  -42.4349 C.2       4 UNK         0.4949 
     33 O          22.3259  -30.7245  -41.4416 O.2       4 UNK        -0.5039 
     34 N          22.3290  -30.3830  -43.6833 N.am      5 UNK        -0.4663 
     35 CA         23.4163  -31.2838  -44.0858 C.3       5 UNK         0.0242 
     36 CB         23.0217  -32.7578  -43.8471 C.3       5 UNK        -0.1982 
     37 C          24.7706  -30.8964  -43.4530 C.2       5 UNK         0.5017 
     38 O          25.5474  -31.7764  -43.0827 O.2       5 UNK        -0.5012 
     39 N          25.0095  -29.5799  -43.3289 N.am      6 UNK        -0.4439 
     40 CA         26.1172  -28.9361  -42.6127 C.3       6 UNK         0.0297 
     41 CB         27.4905  -29.3176  -43.2075 C.3       6 UNK        -0.2006 
     42 C          26.0148  -29.1652  -41.0924 C.2       6 UNK         0.4892 
     43 O          27.0081  -29.5092  -40.4494 O.2       6 UNK        -0.5089 
     44 N          24.7980  -28.9619  -40.5619 N.am      7 UNK        -0.4243 
     45 CA         24.3842  -29.1440  -39.1641 C.3       7 UNK         0.0196 
     46 CB         25.0607  -28.0981  -38.2523 C.3       7 UNK        -0.2007 
     47 C          24.5697  -30.5928  -38.6713 C.2       7 UNK         0.5020 
     48 O          25.1068  -30.8116  -37.5837 O.2       7 UNK        -0.5147 
     49 N          24.1226  -31.5540  -39.4882 N.am      8 UNK        -0.4734 
     50 CA         24.2262  -32.9900  -39.2268 C.3       8 UNK         0.0238 
     51 CB         25.0134  -33.6637  -40.3613 C.3       8 UNK        -0.1912 
     52 C          22.8545  -33.6573  -39.0559 C.2       8 UNK         0.5038 
     53 O          22.7592  -34.5816  -38.2468 O.2       8 UNK        -0.5046 
     54 N          21.8240  -33.2059  -39.7910 N.am      9 UNK        -0.4200 
     55 CA         20.4568  -33.7544  -39.6814 C.3       9 UNK         0.0839 
     56 C          19.5998  -33.1321  -38.5396 C.2       9 UNK         0.5513 
     57 N          20.0731  -32.1116  -37.8336 N.am      9 UNK        -0.7519 
     58 O          18.4946  -33.5992  -38.2758 O.2       9 UNK        -0.4960 
     59 C59        19.7165  -33.8096  -41.0461 C.3       10 UNK        -0.0876 
     60 S60        19.2237  -32.1880  -41.7152 S.3       10 UNK        -0.2414 
     61 C61        18.9345  -32.6017  -43.4636 C.3       10 UNK         0.0169 
     62 H62        13.5341  -23.9489  -41.6797 H         1 UNK         0.0903 
     63 H63        14.7246  -25.1891  -41.2831 H         1 UNK         0.0903 
     64 H64        14.9874  -23.5199  -40.7737 H         1 UNK         0.0903 
     65 H65        15.9663  -25.7534  -43.0602 H         1 UNK         0.3096 
     66 H66        16.0729  -24.1991  -45.4569 H         1 UNK         0.1121 
     67 H67        17.7952  -26.6029  -44.6507 H         1 UNK         0.0849 
     68 H68        17.6331  -25.9659  -46.2687 H         1 UNK         0.0849 
     69 H69        16.0982  -28.2713  -43.5487 H         1 UNK         0.0865 
     70 H70        15.1781  -29.2904  -44.6232 H         1 UNK         0.0865 
     71 H71        16.8692  -30.8401  -43.3109 H         1 UNK         0.1346 
     72 H72        20.4688  -31.6122  -45.5013 H         1 UNK         0.1412 
     73 H73        18.0151  -28.2884  -46.5722 H         1 UNK         0.1426 
     74 H74        19.8428  -28.9045  -47.9956 H         1 UNK         0.0716 
     75 H75        20.6648  -30.4188  -47.7406 H         1 UNK         0.0716 
     76 H76        20.0541  -27.0639  -46.1018 H         1 UNK         0.0695 
     77 H77        21.2977  -26.3152  -47.0434 H         1 UNK         0.0695 
     78 H78        22.6689  -25.8472  -45.1619 H         1 UNK         0.0983 
     79 H79        19.8862  -25.2130  -44.8277 H         1 UNK         0.3095 
     80 H80        19.9884  -23.3993  -41.9718 H         1 UNK         0.0454 
     81 H81        21.0833  -21.4990  -43.0470 H         1 UNK         0.0851 
     82 H82        19.3455  -21.2604  -43.1189 H         1 UNK         0.0851 
     83 H83        20.2330  -21.7733  -44.5545 H         1 UNK         0.0851 
     84 H84        18.1139  -24.3181  -42.6636 H         1 UNK         0.2976 
     85 H85        20.0333  -27.8572  -43.8244 H         1 UNK         0.3116 
     86 H86        19.8926  -29.4627  -42.3342 H         1 UNK         0.0646 
     87 H87        20.8594  -29.0425  -40.0771 H         1 UNK         0.0847 
     88 H88        21.9128  -27.7990  -40.7457 H         1 UNK         0.0847 
     89 H89        20.1668  -27.5811  -40.7525 H         1 UNK         0.0847 
     90 H90        21.9220  -29.8319  -44.4283 H         1 UNK         0.3040 
     91 H91        23.5478  -31.1514  -45.1610 H         1 UNK         0.1015 
     92 H92        23.8192  -33.4364  -44.1521 H         1 UNK         0.0786 
     93 H93        22.1395  -33.0267  -44.4257 H         1 UNK         0.0786 
     94 H94        22.8030  -32.9593  -42.7992 H         1 UNK         0.0786 
     95 H95        24.2743  -28.9402  -43.6174 H         1 UNK         0.3172 
     96 H96        25.9869  -27.8636  -42.7651 H         1 UNK         0.0595 
     97 H97        27.7406  -30.3629  -43.0253 H         1 UNK         0.0839 
     98 H98        28.2843  -28.7165  -42.7627 H         1 UNK         0.0839 
     99 H99        27.5191  -29.1470  -44.2835 H         1 UNK         0.0839 
    100 H100       24.0595  -28.7022  -41.2017 H         1 UNK         0.2998 
    101 H101       23.3107  -28.9566  -39.1323 H         1 UNK         0.0822 
    102 H102       24.6709  -28.1563  -37.2353 H         1 UNK         0.0787 
    103 H103       24.8798  -27.0845  -38.6099 H         1 UNK         0.0787 
    104 H104       26.1395  -28.2465  -38.1953 H         1 UNK         0.0787 
    105 H105       23.6368  -31.2714  -40.3384 H         1 UNK         0.3055 
    106 H106       24.7770  -33.1628  -38.2994 H         1 UNK         0.1106 
    107 H107       26.0023  -33.2190  -40.4748 H         1 UNK         0.0828 
    108 H108       25.1550  -34.7267  -40.1617 H         1 UNK         0.0828 
    109 H109       24.5002  -33.5778  -41.3180 H         1 UNK         0.0828 
    110 H110       21.9459  -32.4150  -40.4148 H         1 UNK         0.2931 
    111 H111       20.5573  -34.8018  -39.3903 H         1 UNK         0.0412 
    112 H112       19.5139  -31.7215  -37.0914 H         1 UNK         0.3472 
    113 H113       20.9803  -31.7273  -38.0413 H         1 UNK         0.3472 
    114 H114       20.3482  -34.3175  -41.7764 H         1 UNK         0.0970 
    115 H115       18.8181  -34.4232  -40.9580 H         1 UNK         0.0970 
    116 H116       19.7885  -33.1627  -43.8444 H         1 UNK         0.0612 
    117 H117       18.0704  -33.2633  -43.5367 H         1 UNK         0.0612 
@<TRIPOS>BOND
     1    1    2 1    
     2    1   62 1    
     3    1   63 1    
     4    1   64 1    
     5    2    3 2    
     6    2    4 am   BACKBONE|DICT|INTERRES
     7    4    5 1    
     8    4   65 1    
     9    5    6 1    
    10    5   25 1    
    11    5   66 1    
    12    6    7 1    
    13    6   67 1    
    14    6   68 1    
    15    7    8 1    
    16    8    9 1    
    17    8   69 1    
    18    8   70 1    
    19    9   10 ar   
    20    9   14 ar   
    21   10   11 ar   
    22   10   71 1    
    23   11   12 ar   
    24   11   61 1    
    25   12   13 ar   
    26   12   72 1    
    27   13   14 ar   
    28   13   15 1    
    29   14   73 1    
    30   15   16 1    
    31   15   74 1    
    32   15   75 1    
    33   16   17 1    
    34   17   18 1    
    35   17   76 1    
    36   17   77 1    
    37   18   19 1    
    38   18   27 1    
    39   18   78 1    
    40   19   20 am   BACKBONE|DICT|INTERRES
    41   19   79 1    
    42   20   21 2    
    43   20   22 1    
    44   22   23 1    
    45   22   24 1    
    46   22   80 1    
    47   23   81 1    
    48   23   82 1    
    49   23   83 1    
    50   24   25 am   BACKBONE|DICT|INTERRES
    51   24   84 1    
    52   25   26 2    
    53   27   28 2    
    54   27   29 am   BACKBONE|DICT|INTERRES
    55   29   30 1    
    56   29   85 1    
    57   30   31 1    
    58   30   32 1    
    59   30   86 1    
    60   31   87 1    
    61   31   88 1    
    62   31   89 1    
    63   32   33 2    
    64   32   34 am   BACKBONE|DICT|INTERRES
    65   34   35 1    
    66   34   90 1    
    67   35   36 1    
    68   35   37 1    
    69   35   91 1    
    70   36   92 1    
    71   36   93 1    
    72   36   94 1    
    73   37   38 2    
    74   37   39 am   BACKBONE|DICT|INTERRES
    75   39   40 1    
    76   39   95 1    
    77   40   41 1    
    78   40   42 1    
    79   40   96 1    
    80   41   97 1    
    81   41   98 1    
    82   41   99 1    
    83   42   43 2    
    84   42   44 am   BACKBONE|DICT|INTERRES
    85   44   45 1    
    86   44  100 1    
    87   45   46 1    
    88   45   47 1    
    89   45  101 1    
    90   46  102 1    
    91   46  103 1    
    92   46  104 1    
    93   47   48 2    
    94   47   49 am   BACKBONE|DICT|INTERRES
    95   49   50 1    
    96   49  105 1    
    97   50   51 1    
    98   50   52 1    
    99   50  106 1    
   100   51  107 1    
   101   51  108 1    
   102   51  109 1    
   103   52   53 2    
   104   52   54 am   BACKBONE|DICT|INTERRES
   105   54   55 1    
   106   54  110 1    
   107   55   56 1    
   108   55   59 1    
   109   55  111 1    
   110   56   57 am   BACKBONE|DICT|INTERRES
   111   56   58 2    
   112   57  112 1    
   113   57  113 1    
   114   59   60 1    
   115   59  114 1    
   116   59  115 1    
   117   60   61 1    
   118   61  116 1    
   119   61  117 1    
@<TRIPOS>SUBSTRUCTURE
     1 UNK         1 GROUP             0       ****    0 ROOT    
