@<TRIPOS>MOLECULE
3R8
117   119    1
SMALL
USER_CHARGES


@<TRIPOS>ATOM
      1 CA         25.0443  -26.6268  -45.7707 C.3       0 UNK        -0.2013 
      2 C          24.2880  -27.2231  -46.9542 C.2       0 UNK         0.4866 
      3 O          24.8320  -27.2697  -48.0557 O.2       0 UNK        -0.5176 
      4 N          23.0516  -27.7080  -46.7819 N.am      1 UNK        -0.4884 
      5 CA         22.2340  -27.6490  -45.5641 C.3       1 UNK         0.0853 
      6 C6         21.0123  -28.5971  -45.6519 C.3       10 UNK        -0.0849 
      7 S7         21.4367  -30.3337  -46.0002 S.3       10 UNK        -0.2776 
      8 C8         19.7854  -30.9867  -46.4179 C.3       10 UNK         0.0316 
      9 C9         18.7946  -30.8177  -45.2723 C.ar      10 UNK        -0.0863 
     10 C10        19.0642  -31.3984  -44.0329 C.ar      10 UNK        -0.1009 
     11 C11        18.1806  -31.2487  -42.9655 C.ar      10 UNK        -0.0712 
     12 C12        16.9914  -30.5378  -43.1494 C.ar      10 UNK        -0.0894 
     13 C13        16.7162  -29.9263  -44.3800 C.ar      10 UNK        -0.0745 
     14 C14        17.6212  -30.0743  -45.4385 C.ar      10 UNK        -0.0972 
     15 C15        15.4444  -29.1062  -44.5743 C.3       10 UNK         0.0209 
     16 S16        15.2107  -27.8249  -43.2946 S.3       10 UNK        -0.2568 
     17 C17        16.6048  -26.6832  -43.5995 C.3       10 UNK        -0.0983 
     18 CA         17.8543  -27.0224  -42.7454 C.3       3 UNK         0.0876 
     19 N          19.0880  -26.3504  -43.1518 N.am      3 UNK        -0.4424 
     20 C          19.3192  -25.0459  -43.3642 C.2       2 UNK         0.4918 
     21 O          18.4554  -24.1693  -43.3597 O.2       2 UNK        -0.4875 
     22 CA         20.7835  -24.6546  -43.6536 C.3       2 UNK         0.0481 
     23 CB         21.4268  -23.9957  -42.4231 C.3       2 UNK        -0.1831 
     24 N          21.5752  -25.8250  -44.0529 N.am      2 UNK        -0.4498 
     25 C          21.7129  -26.2181  -45.3263 C.2       1 UNK         0.5027 
     26 O          21.3782  -25.5303  -46.2941 O.2       1 UNK        -0.4969 
     27 C          17.6517  -26.8652  -41.2270 C.2       3 UNK         0.5005 
     28 O          17.5938  -25.7438  -40.7192 O.2       3 UNK        -0.5279 
     29 N          17.6213  -28.0133  -40.5315 N.am      4 UNK        -0.4463 
     30 CA         17.7142  -28.1818  -39.0729 C.3       4 UNK         0.0283 
     31 CB         16.5475  -27.4876  -38.3390 C.3       4 UNK        -0.1875 
     32 C          19.0950  -27.7892  -38.5009 C.2       4 UNK         0.4949 
     33 O          19.2394  -27.6807  -37.2827 O.2       4 UNK        -0.5039 
     34 N          20.0841  -27.6125  -39.3844 N.am      5 UNK        -0.4663 
     35 CA         21.4758  -27.2888  -39.1146 C.3       5 UNK         0.0242 
     36 CB         21.6070  -25.8497  -38.5776 C.3       5 UNK        -0.1982 
     37 C          22.2645  -27.4533  -40.4209 C.2       5 UNK         0.5017 
     38 O          21.6993  -27.2654  -41.5057 O.2       5 UNK        -0.5012 
     39 N          23.5630  -27.7427  -40.2655 N.am      6 UNK        -0.4439 
     40 CA         24.6056  -27.9012  -41.2867 C.3       6 UNK         0.0297 
     41 CB         24.7862  -26.6001  -42.0929 C.3       6 UNK        -0.2006 
     42 C          24.4202  -29.1205  -42.2118 C.2       6 UNK         0.4892 
     43 O          23.3027  -29.5907  -42.4322 O.2       6 UNK        -0.5089 
     44 N          25.5529  -29.6085  -42.7399 N.am      7 UNK        -0.4243 
     45 CA         25.6897  -30.7756  -43.6196 C.3       7 UNK         0.0196 
     46 CB         25.1896  -30.4444  -45.0427 C.3       7 UNK        -0.2007 
     47 C          25.0605  -32.0399  -43.0019 C.2       7 UNK         0.5020 
     48 O          25.5648  -32.5187  -41.9849 O.2       7 UNK        -0.5147 
     49 N          23.9708  -32.5438  -43.5976 N.am      8 UNK        -0.4734 
     50 CA         23.2577  -33.7587  -43.1842 C.3       8 UNK         0.0238 
     51 CB         22.2533  -34.1509  -44.2806 C.3       8 UNK        -0.1912 
     52 C          22.5851  -33.6922  -41.7965 C.2       8 UNK         0.5038 
     53 O          22.2218  -34.7439  -41.2675 O.2       8 UNK        -0.5046 
     54 N          22.4611  -32.4930  -41.2178 N.am      9 UNK        -0.4200 
     55 CA         22.0614  -32.2624  -39.8211 C.3       9 UNK         0.0839 
     56 C          22.9895  -31.2398  -39.1082 C.2       9 UNK         0.5513 
     57 N          24.2575  -31.1396  -39.4932 N.am      9 UNK        -0.7519 
     58 O          22.5822  -30.5552  -38.1742 O.2       9 UNK        -0.4960 
     59 C59        20.5338  -32.0253  -39.6348 C.3       10 UNK        -0.0876 
     60 S60        19.8021  -30.8167  -40.7905 S.3       10 UNK        -0.2414 
     61 C61        18.5486  -31.8453  -41.6199 C.3       10 UNK         0.0169 
     62 H62        24.5757  -25.7056  -45.4265 H         1 UNK         0.0903 
     63 H63        25.0913  -27.3350  -44.9459 H         1 UNK         0.0903 
     64 H64        26.0693  -26.3893  -46.0551 H         1 UNK         0.0903 
     65 H65        22.5806  -28.1050  -47.5819 H         1 UNK         0.3096 
     66 H66        22.8419  -27.9569  -44.7113 H         1 UNK         0.1121 
     67 H67        20.3170  -28.2581  -46.4236 H         1 UNK         0.0849 
     68 H68        20.4568  -28.5823  -44.7120 H         1 UNK         0.0849 
     69 H69        19.4246  -30.4957  -47.3230 H         1 UNK         0.0865 
     70 H70        19.8741  -32.0470  -46.6581 H         1 UNK         0.0865 
     71 H71        19.9838  -31.9432  -43.8835 H         1 UNK         0.1346 
     72 H72        16.2936  -30.4322  -42.3299 H         1 UNK         0.1412 
     73 H73        17.4121  -29.6101  -46.3928 H         1 UNK         0.1426 
     74 H74        14.5889  -29.7823  -44.5508 H         1 UNK         0.0716 
     75 H75        15.4313  -28.6290  -45.5555 H         1 UNK         0.0716 
     76 H76        16.2627  -25.6675  -43.3954 H         1 UNK         0.0695 
     77 H77        16.8567  -26.7118  -44.6607 H         1 UNK         0.0695 
     78 H78        18.0874  -28.0691  -42.9325 H         1 UNK         0.0983 
     79 H79        19.9066  -26.9402  -43.1243 H         1 UNK         0.3095 
     80 H80        20.7762  -23.9144  -44.4564 H         1 UNK         0.0454 
     81 H81        22.4614  -23.7138  -42.6182 H         1 UNK         0.0851 
     82 H82        21.4165  -24.6550  -41.5569 H         1 UNK         0.0851 
     83 H83        20.8898  -23.0883  -42.1441 H         1 UNK         0.0851 
     84 H84        21.8619  -26.4376  -43.2926 H         1 UNK         0.2976 
     85 H85        17.6764  -28.8783  -41.0521 H         1 UNK         0.3116 
     86 H86        17.6163  -29.2538  -38.8951 H         1 UNK         0.0646 
     87 H87        16.6316  -26.4013  -38.3749 H         1 UNK         0.0847 
     88 H88        15.5852  -27.7657  -38.7684 H         1 UNK         0.0847 
     89 H89        16.5262  -27.7722  -37.2864 H         1 UNK         0.0847 
     90 H90        19.8922  -27.7573  -40.3666 H         1 UNK         0.3040 
     91 H91        21.8564  -27.9952  -38.3745 H         1 UNK         0.1015 
     92 H92        22.6534  -25.5620  -38.4683 H         1 UNK         0.0786 
     93 H93        21.1437  -25.7460  -37.5965 H         1 UNK         0.0786 
     94 H94        21.1354  -25.1274  -39.2440 H         1 UNK         0.0786 
     95 H95        23.8822  -27.8967  -39.3194 H         1 UNK         0.3172 
     96 H96        25.5249  -28.0679  -40.7229 H         1 UNK         0.0595 
     97 H97        23.9430  -26.4082  -42.7533 H         1 UNK         0.0839 
     98 H98        25.6831  -26.6436  -42.7111 H         1 UNK         0.0839 
     99 H99        24.8954  -25.7377  -41.4351 H         1 UNK         0.0839 
    100 H100       26.4243  -29.1746  -42.4683 H         1 UNK         0.2998 
    101 H101       26.7581  -30.9851  -43.6930 H         1 UNK         0.0822 
    102 H102       25.2637  -31.3084  -45.7046 H         1 UNK         0.0787 
    103 H103       24.1542  -30.1083  -45.0446 H         1 UNK         0.0787 
    104 H104       25.7918  -29.6548  -45.4909 H         1 UNK         0.0787 
    105 H105       23.5940  -32.0457  -44.3922 H         1 UNK         0.3055 
    106 H106       23.9989  -34.5580  -43.1141 H         1 UNK         0.1106 
    107 H107       22.7654  -34.4124  -45.2067 H         1 UNK         0.0828 
    108 H108       21.6618  -35.0189  -43.9858 H         1 UNK         0.0828 
    109 H109       21.5605  -33.3424  -44.5050 H         1 UNK         0.0828 
    110 H110       22.7671  -31.6667  -41.7203 H         1 UNK         0.2931 
    111 H111       22.2783  -33.1764  -39.2650 H         1 UNK         0.0412 
    112 H112       24.8714  -30.5132  -38.9992 H         1 UNK         0.3472 
    113 H113       24.6222  -31.7185  -40.2399 H         1 UNK         0.3472 
    114 H114       20.3062  -31.7095  -38.6153 H         1 UNK         0.0970 
    115 H115       20.0218  -32.9814  -39.7478 H         1 UNK         0.0970 
    116 H116       17.6719  -31.9411  -40.9778 H         1 UNK         0.0612 
    117 H117       18.9367  -32.8530  -41.7771 H         1 UNK         0.0612 
@<TRIPOS>BOND
     1    1    2 1    
     2    1   62 1    
     3    1   63 1    
     4    1   64 1    
     5    2    3 2    
     6    2    4 am   BACKBONE|DICT|INTERRES
     7    4    5 1    
     8    4   65 1    
     9    5    6 1    
    10    5   25 1    
    11    5   66 1    
    12    6    7 1    
    13    6   67 1    
    14    6   68 1    
    15    7    8 1    
    16    8    9 1    
    17    8   69 1    
    18    8   70 1    
    19    9   10 ar   
    20    9   14 ar   
    21   10   11 ar   
    22   10   71 1    
    23   11   12 ar   
    24   11   61 1    
    25   12   13 ar   
    26   12   72 1    
    27   13   14 ar   
    28   13   15 1    
    29   14   73 1    
    30   15   16 1    
    31   15   74 1    
    32   15   75 1    
    33   16   17 1    
    34   17   18 1    
    35   17   76 1    
    36   17   77 1    
    37   18   19 1    
    38   18   27 1    
    39   18   78 1    
    40   19   20 am   BACKBONE|DICT|INTERRES
    41   19   79 1    
    42   20   21 2    
    43   20   22 1    
    44   22   23 1    
    45   22   24 1    
    46   22   80 1    
    47   23   81 1    
    48   23   82 1    
    49   23   83 1    
    50   24   25 am   BACKBONE|DICT|INTERRES
    51   24   84 1    
    52   25   26 2    
    53   27   28 2    
    54   27   29 am   BACKBONE|DICT|INTERRES
    55   29   30 1    
    56   29   85 1    
    57   30   31 1    
    58   30   32 1    
    59   30   86 1    
    60   31   87 1    
    61   31   88 1    
    62   31   89 1    
    63   32   33 2    
    64   32   34 am   BACKBONE|DICT|INTERRES
    65   34   35 1    
    66   34   90 1    
    67   35   36 1    
    68   35   37 1    
    69   35   91 1    
    70   36   92 1    
    71   36   93 1    
    72   36   94 1    
    73   37   38 2    
    74   37   39 am   BACKBONE|DICT|INTERRES
    75   39   40 1    
    76   39   95 1    
    77   40   41 1    
    78   40   42 1    
    79   40   96 1    
    80   41   97 1    
    81   41   98 1    
    82   41   99 1    
    83   42   43 2    
    84   42   44 am   BACKBONE|DICT|INTERRES
    85   44   45 1    
    86   44  100 1    
    87   45   46 1    
    88   45   47 1    
    89   45  101 1    
    90   46  102 1    
    91   46  103 1    
    92   46  104 1    
    93   47   48 2    
    94   47   49 am   BACKBONE|DICT|INTERRES
    95   49   50 1    
    96   49  105 1    
    97   50   51 1    
    98   50   52 1    
    99   50  106 1    
   100   51  107 1    
   101   51  108 1    
   102   51  109 1    
   103   52   53 2    
   104   52   54 am   BACKBONE|DICT|INTERRES
   105   54   55 1    
   106   54  110 1    
   107   55   56 1    
   108   55   59 1    
   109   55  111 1    
   110   56   57 am   BACKBONE|DICT|INTERRES
   111   56   58 2    
   112   57  112 1    
   113   57  113 1    
   114   59   60 1    
   115   59  114 1    
   116   59  115 1    
   117   60   61 1    
   118   61  116 1    
   119   61  117 1    
@<TRIPOS>SUBSTRUCTURE
     1 UNK         1 GROUP             0       ****    0 ROOT    
