@<TRIPOS>MOLECULE
3R8
117   119    1
SMALL
USER_CHARGES


@<TRIPOS>ATOM
      1 CA         14.8967  -22.9992  -43.1979 C.3       0 UNK        -0.2013 
      2 C          15.8803  -24.1130  -43.5266 C.2       0 UNK         0.4866 
      3 O          16.3752  -24.7655  -42.6086 O.2       0 UNK        -0.5176 
      4 N          16.1569  -24.3092  -44.8257 N.am      1 UNK        -0.4884 
      5 CA         17.0491  -25.3094  -45.4355 C.3       1 UNK         0.0853 
      6 C6         16.3561  -26.6764  -45.7123 C.3       10 UNK        -0.0849 
      7 S7         15.9381  -27.7415  -44.2816 S.3       10 UNK        -0.2776 
      8 C8         15.9220  -29.4017  -45.0452 C.3       10 UNK         0.0316 
      9 C9         17.2679  -30.1149  -44.9485 C.ar      10 UNK        -0.0863 
     10 C10        17.4405  -31.1868  -44.0668 C.ar      10 UNK        -0.1009 
     11 C11        18.6627  -31.8675  -43.9963 C.ar      10 UNK        -0.0712 
     12 C12        19.7240  -31.4479  -44.8076 C.ar      10 UNK        -0.0894 
     13 C13        19.5716  -30.3780  -45.6972 C.ar      10 UNK        -0.0745 
     14 C14        18.3304  -29.7370  -45.7726 C.ar      10 UNK        -0.0972 
     15 C15        20.7422  -29.9709  -46.5971 C.3       10 UNK         0.0209 
     16 S16        20.7167  -28.2162  -47.1306 S.3       10 UNK        -0.2568 
     17 C17        22.3906  -27.6373  -46.6833 C.3       10 UNK        -0.0983 
     18 CA         22.4746  -26.9403  -45.3022 C.3       3 UNK         0.0876 
     19 N          21.5739  -25.7849  -45.1940 N.am      3 UNK        -0.4424 
     20 C          21.5476  -24.9299  -44.1611 C.2       2 UNK         0.4918 
     21 O          22.3725  -24.9521  -43.2462 O.2       2 UNK        -0.4875 
     22 CA         20.3960  -23.9058  -44.0906 C.3       2 UNK         0.0481 
     23 CB         20.8941  -22.5254  -44.5480 C.3       2 UNK        -0.1831 
     24 N          19.1498  -24.2243  -44.8071 N.am      2 UNK        -0.4498 
     25 C          18.4498  -25.3713  -44.7790 C.2       1 UNK         0.5027 
     26 O          18.8601  -26.4082  -44.2611 O.2       1 UNK        -0.4969 
     27 C          22.3071  -27.9568  -44.1508 C.2       3 UNK         0.5005 
     28 O          23.2662  -28.6614  -43.8377 O.2       3 UNK        -0.5279 
     29 N          21.1259  -27.9912  -43.5142 N.am      4 UNK        -0.4463 
     30 CA         20.7926  -28.8240  -42.3576 C.3       4 UNK         0.0283 
     31 CB         19.3480  -28.5274  -41.9278 C.3       4 UNK        -0.1875 
     32 C          21.7431  -28.6556  -41.1613 C.2       4 UNK         0.4949 
     33 O          21.9899  -29.6304  -40.4512 O.2       4 UNK        -0.5039 
     34 N          22.2781  -27.4406  -40.9745 N.am      5 UNK        -0.4663 
     35 CA         23.2658  -27.1255  -39.9410 C.3       5 UNK         0.0242 
     36 CB         23.3536  -25.6006  -39.7716 C.3       5 UNK        -0.1982 
     37 C          24.6536  -27.7167  -40.2424 C.2       5 UNK         0.5017 
     38 O          25.3541  -28.1082  -39.3093 O.2       5 UNK        -0.5012 
     39 N          25.0196  -27.7822  -41.5304 N.am      6 UNK        -0.4439 
     40 CA         26.2708  -28.3748  -42.0091 C.3       6 UNK         0.0297 
     41 CB         26.6306  -27.7860  -43.3832 C.3       6 UNK        -0.2006 
     42 C          26.1793  -29.9069  -42.0778 C.2       6 UNK         0.4892 
     43 O          27.1407  -30.5890  -41.7227 O.2       6 UNK        -0.5089 
     44 N          25.0173  -30.4154  -42.5114 N.am      7 UNK        -0.4243 
     45 CA         24.6862  -31.8405  -42.5753 C.3       7 UNK         0.0196 
     46 CB         23.4161  -32.0136  -43.4257 C.3       7 UNK        -0.2007 
     47 C          24.4882  -32.4919  -41.1942 C.2       7 UNK         0.5020 
     48 O          24.5570  -33.7176  -41.1032 O.2       7 UNK        -0.5147 
     49 N          24.2255  -31.6718  -40.1641 N.am      8 UNK        -0.4734 
     50 CA         23.8633  -32.0449  -38.7907 C.3       8 UNK         0.0238 
     51 CB         25.0285  -32.7662  -38.0798 C.3       8 UNK        -0.1912 
     52 C          22.5398  -32.8321  -38.7562 C.2       8 UNK         0.5038 
     53 O          22.4718  -33.9156  -38.1718 O.2       8 UNK        -0.5046 
     54 N          21.5265  -32.2724  -39.4290 N.am      9 UNK        -0.4200 
     55 CA         20.1774  -32.8313  -39.5760 C.3       9 UNK         0.0839 
     56 C          19.4389  -32.9968  -38.2181 C.2       9 UNK         0.5513 
     57 N          18.6906  -34.0772  -38.0431 N.am      9 UNK        -0.7519 
     58 O          19.5101  -32.1369  -37.3421 O.2       9 UNK        -0.4960 
     59 C59        19.3508  -31.9821  -40.5769 C.3       10 UNK        -0.0876 
     60 S60        18.0879  -32.9573  -41.4545 S.3       10 UNK        -0.2414 
     61 C61        18.8251  -33.1082  -43.1177 C.3       10 UNK         0.0169 
     62 H62        15.3732  -22.2538  -42.5616 H         1 UNK         0.0903 
     63 H63        14.5307  -22.4964  -44.0929 H         1 UNK         0.0903 
     64 H64        14.0381  -23.4044  -42.6629 H         1 UNK         0.0903 
     65 H65        15.7016  -23.7026  -45.4943 H         1 UNK         0.3096 
     66 H66        17.2523  -24.9031  -46.4283 H         1 UNK         0.1121 
     67 H67        15.4259  -26.4950  -46.2528 H         1 UNK         0.0849 
     68 H68        16.9714  -27.2363  -46.4115 H         1 UNK         0.0849 
     69 H69        15.1512  -29.9944  -44.5504 H         1 UNK         0.0865 
     70 H70        15.6143  -29.3305  -46.0895 H         1 UNK         0.0865 
     71 H71        16.6127  -31.5090  -43.4504 H         1 UNK         0.1346 
     72 H72        20.6675  -31.9743  -44.7671 H         1 UNK         0.1412 
     73 H73        18.1899  -28.9426  -46.4854 H         1 UNK         0.1426 
     74 H74        20.7318  -30.6018  -47.4865 H         1 UNK         0.0716 
     75 H75        21.6801  -30.1842  -46.0827 H         1 UNK         0.0716 
     76 H76        23.1004  -28.4644  -46.7472 H         1 UNK         0.0695 
     77 H77        22.7050  -26.9332  -47.4551 H         1 UNK         0.0695 
     78 H78        23.4892  -26.5482  -45.2028 H         1 UNK         0.0983 
     79 H79        20.8415  -25.7283  -45.8863 H         1 UNK         0.3095 
     80 H80        20.1237  -23.8278  -43.0364 H         1 UNK         0.0454 
     81 H81        21.8013  -22.2379  -44.0142 H         1 UNK         0.0851 
     82 H82        21.1267  -22.5144  -45.6136 H         1 UNK         0.0851 
     83 H83        20.1528  -21.7495  -44.3565 H         1 UNK         0.0851 
     84 H84        18.7110  -23.4388  -45.2661 H         1 UNK         0.2976 
     85 H85        20.3735  -27.3968  -43.8607 H         1 UNK         0.3116 
     86 H86        20.8533  -29.8618  -42.6835 H         1 UNK         0.0646 
     87 H87        19.0704  -29.0847  -41.0349 H         1 UNK         0.0847 
     88 H88        18.6408  -28.7963  -42.7124 H         1 UNK         0.0847 
     89 H89        19.2044  -27.4699  -41.7030 H         1 UNK         0.0847 
     90 H90        22.0316  -26.6986  -41.6172 H         1 UNK         0.3040 
     91 H91        22.9230  -27.5561  -38.9971 H         1 UNK         0.1015 
     92 H92        22.3904  -25.1773  -39.4862 H         1 UNK         0.0786 
     93 H93        23.6764  -25.1092  -40.6906 H         1 UNK         0.0786 
     94 H94        24.0678  -25.3350  -38.9908 H         1 UNK         0.0786 
     95 H95        24.3492  -27.5037  -42.2347 H         1 UNK         0.3172 
     96 H96        27.0715  -28.1158  -41.3128 H         1 UNK         0.0595 
     97 H97        27.5792  -28.1888  -43.7410 H         1 UNK         0.0839 
     98 H98        26.7378  -26.7023  -43.3345 H         1 UNK         0.0839 
     99 H99        25.8766  -28.0151  -44.1370 H         1 UNK         0.0839 
    100 H100       24.3105  -29.7699  -42.8616 H         1 UNK         0.2998 
    101 H101       25.5098  -32.3589  -43.0705 H         1 UNK         0.0822 
    102 H102       22.5577  -31.5244  -42.9648 H         1 UNK         0.0787 
    103 H103       23.5445  -31.5937  -44.4237 H         1 UNK         0.0787 
    104 H104       23.1651  -33.0683  -43.5458 H         1 UNK         0.0787 
    105 H105       24.1421  -30.6865  -40.3776 H         1 UNK         0.3055 
    106 H106       23.6780  -31.1120  -38.2550 H         1 UNK         0.1106 
    107 H107       25.2424  -33.7374  -38.5267 H         1 UNK         0.0828 
    108 H108       25.9417  -32.1723  -38.1149 H         1 UNK         0.0828 
    109 H109       24.7941  -32.9392  -37.0288 H         1 UNK         0.0828 
    110 H110       21.6809  -31.3549  -39.8400 H         1 UNK         0.2931 
    111 H111       20.3230  -33.8246  -40.0064 H         1 UNK         0.0412 
    112 H112       18.1922  -34.1965  -37.1749 H         1 UNK         0.3472 
    113 H113       18.6059  -34.7705  -38.7706 H         1 UNK         0.3472 
    114 H114       18.8648  -31.1454  -40.0730 H         1 UNK         0.0970 
    115 H115       20.0040  -31.5369  -41.3265 H         1 UNK         0.0970 
    116 H116       19.8777  -33.3770  -43.0130 H         1 UNK         0.0612 
    117 H117       18.3459  -33.9452  -43.6267 H         1 UNK         0.0612 
@<TRIPOS>BOND
     1    1    2 1    
     2    1   62 1    
     3    1   63 1    
     4    1   64 1    
     5    2    3 2    
     6    2    4 am   BACKBONE|DICT|INTERRES
     7    4    5 1    
     8    4   65 1    
     9    5    6 1    
    10    5   25 1    
    11    5   66 1    
    12    6    7 1    
    13    6   67 1    
    14    6   68 1    
    15    7    8 1    
    16    8    9 1    
    17    8   69 1    
    18    8   70 1    
    19    9   10 ar   
    20    9   14 ar   
    21   10   11 ar   
    22   10   71 1    
    23   11   12 ar   
    24   11   61 1    
    25   12   13 ar   
    26   12   72 1    
    27   13   14 ar   
    28   13   15 1    
    29   14   73 1    
    30   15   16 1    
    31   15   74 1    
    32   15   75 1    
    33   16   17 1    
    34   17   18 1    
    35   17   76 1    
    36   17   77 1    
    37   18   19 1    
    38   18   27 1    
    39   18   78 1    
    40   19   20 am   BACKBONE|DICT|INTERRES
    41   19   79 1    
    42   20   21 2    
    43   20   22 1    
    44   22   23 1    
    45   22   24 1    
    46   22   80 1    
    47   23   81 1    
    48   23   82 1    
    49   23   83 1    
    50   24   25 am   BACKBONE|DICT|INTERRES
    51   24   84 1    
    52   25   26 2    
    53   27   28 2    
    54   27   29 am   BACKBONE|DICT|INTERRES
    55   29   30 1    
    56   29   85 1    
    57   30   31 1    
    58   30   32 1    
    59   30   86 1    
    60   31   87 1    
    61   31   88 1    
    62   31   89 1    
    63   32   33 2    
    64   32   34 am   BACKBONE|DICT|INTERRES
    65   34   35 1    
    66   34   90 1    
    67   35   36 1    
    68   35   37 1    
    69   35   91 1    
    70   36   92 1    
    71   36   93 1    
    72   36   94 1    
    73   37   38 2    
    74   37   39 am   BACKBONE|DICT|INTERRES
    75   39   40 1    
    76   39   95 1    
    77   40   41 1    
    78   40   42 1    
    79   40   96 1    
    80   41   97 1    
    81   41   98 1    
    82   41   99 1    
    83   42   43 2    
    84   42   44 am   BACKBONE|DICT|INTERRES
    85   44   45 1    
    86   44  100 1    
    87   45   46 1    
    88   45   47 1    
    89   45  101 1    
    90   46  102 1    
    91   46  103 1    
    92   46  104 1    
    93   47   48 2    
    94   47   49 am   BACKBONE|DICT|INTERRES
    95   49   50 1    
    96   49  105 1    
    97   50   51 1    
    98   50   52 1    
    99   50  106 1    
   100   51  107 1    
   101   51  108 1    
   102   51  109 1    
   103   52   53 2    
   104   52   54 am   BACKBONE|DICT|INTERRES
   105   54   55 1    
   106   54  110 1    
   107   55   56 1    
   108   55   59 1    
   109   55  111 1    
   110   56   57 am   BACKBONE|DICT|INTERRES
   111   56   58 2    
   112   57  112 1    
   113   57  113 1    
   114   59   60 1    
   115   59  114 1    
   116   59  115 1    
   117   60   61 1    
   118   61  116 1    
   119   61  117 1    
@<TRIPOS>SUBSTRUCTURE
     1 UNK         1 GROUP             0       ****    0 ROOT    
