@<TRIPOS>MOLECULE
3R8
117   119    1
SMALL
USER_CHARGES


@<TRIPOS>ATOM
      1 CA         16.1261  -28.4994  -41.0835 C.3       0 UNK        -0.2013 
      2 C          16.3130  -27.2534  -41.9367 C.2       0 UNK         0.4866 
      3 O          16.0400  -26.1452  -41.4737 O.2       0 UNK        -0.5176 
      4 N          16.7737  -27.4300  -43.1807 N.am      1 UNK        -0.4884 
      5 CA         17.1093  -26.3526  -44.1233 C.3       1 UNK         0.0853 
      6 C6         17.0685  -26.8526  -45.5937 C.3       10 UNK        -0.0849 
      7 S7         15.4979  -27.6959  -46.0015 S.3       10 UNK        -0.2776 
      8 C8         16.0396  -29.0890  -47.0489 C.3       10 UNK         0.0316 
      9 C9         17.0573  -30.0028  -46.3734 C.ar      10 UNK        -0.0863 
     10 C10        16.7259  -30.7147  -45.2160 C.ar      10 UNK        -0.1009 
     11 C11        17.6515  -31.5703  -44.6065 C.ar      10 UNK        -0.0712 
     12 C12        18.9234  -31.7120  -45.1829 C.ar      10 UNK        -0.0894 
     13 C13        19.2688  -31.0038  -46.3373 C.ar      10 UNK        -0.0745 
     14 C14        18.3303  -30.1548  -46.9289 C.ar      10 UNK        -0.0972 
     15 C15        20.6569  -31.1512  -46.9506 C.3       10 UNK         0.0209 
     16 S16        21.9414  -30.2578  -46.0127 S.3       10 UNK        -0.2568 
     17 C17        21.2412  -28.5736  -45.9465 C.3       10 UNK        -0.0983 
     18 CA         22.0333  -27.5112  -45.1399 C.3       3 UNK         0.0876 
     19 N          21.2512  -26.2711  -45.1392 N.am      3 UNK        -0.4424 
     20 C          21.4745  -25.1371  -44.4626 C.2       2 UNK         0.4918 
     21 O          22.5024  -24.8973  -43.8300 O.2       2 UNK        -0.4875 
     22 CA         20.2953  -24.1383  -44.4242 C.3       2 UNK         0.0481 
     23 CB         20.4708  -23.0638  -45.5084 C.3       2 UNK        -0.1831 
     24 N          18.9613  -24.7597  -44.5582 N.am      2 UNK        -0.4498 
     25 C          18.4886  -25.7445  -43.7741 C.2       1 UNK         0.5027 
     26 O          19.1441  -26.2153  -42.8432 O.2       1 UNK        -0.4969 
     27 C          22.3899  -28.0090  -43.7168 C.2       3 UNK         0.5005 
     28 O          23.5058  -28.4909  -43.5039 O.2       3 UNK        -0.5279 
     29 N          21.4655  -27.8541  -42.7536 N.am      4 UNK        -0.4463 
     30 CA         21.6058  -28.3027  -41.3656 C.3       4 UNK         0.0283 
     31 CB         20.2856  -28.0926  -40.6091 C.3       4 UNK        -0.1875 
     32 C          22.7667  -27.6556  -40.5942 C.2       4 UNK         0.4949 
     33 O          23.2136  -28.2427  -39.6108 O.2       4 UNK        -0.5039 
     34 N          23.2739  -26.5074  -41.0663 N.am      5 UNK        -0.4663 
     35 CA         24.4896  -25.8709  -40.5504 C.3       5 UNK         0.0242 
     36 CB         24.6576  -24.4921  -41.2078 C.3       5 UNK        -0.1982 
     37 C          25.7586  -26.7231  -40.7523 C.2       5 UNK         0.5017 
     38 O          26.7070  -26.5682  -39.9821 O.2       5 UNK        -0.5012 
     39 N          25.7483  -27.6043  -41.7629 N.am      6 UNK        -0.4439 
     40 CA         26.8073  -28.5726  -42.0424 C.3       6 UNK         0.0297 
     41 CB         27.2205  -28.4595  -43.5194 C.3       6 UNK        -0.2006 
     42 C          26.3508  -30.0042  -41.7224 C.2       6 UNK         0.4892 
     43 O          27.1178  -30.7595  -41.1248 O.2       6 UNK        -0.5089 
     44 N          25.1283  -30.3627  -42.1401 N.am      7 UNK        -0.4243 
     45 CA         24.6041  -31.7296  -42.0791 C.3       7 UNK         0.0196 
     46 CB         23.5215  -31.8882  -43.1592 C.3       7 UNK        -0.2007 
     47 C          24.0480  -32.1516  -40.7087 C.2       7 UNK         0.5020 
     48 O          23.8547  -33.3498  -40.5033 O.2       7 UNK        -0.5147 
     49 N          23.7571  -31.1879  -39.8189 N.am      8 UNK        -0.4734 
     50 CA         23.0752  -31.3667  -38.5237 C.3       8 UNK         0.0238 
     51 CB         23.9404  -32.1908  -37.5456 C.3       8 UNK        -0.1912 
     52 C          21.6388  -31.9179  -38.6703 C.2       8 UNK         0.5038 
     53 O          21.1647  -32.6544  -37.8042 O.2       8 UNK        -0.5046 
     54 N          20.9814  -31.5480  -39.7771 N.am      9 UNK        -0.4200 
     55 CA         19.6426  -31.9954  -40.1930 C.3       9 UNK         0.0839 
     56 C          18.4517  -31.3456  -39.4232 C.2       9 UNK         0.5513 
     57 N          18.6806  -30.4728  -38.4499 N.am      9 UNK        -0.7519 
     58 O          17.2947  -31.6399  -39.7087 O.2       9 UNK        -0.4960 
     59 C59        19.4935  -31.8799  -41.7378 C.3       10 UNK        -0.0876 
     60 S60        18.5199  -33.2437  -42.4600 S.3       10 UNK        -0.2414 
     61 C61        17.2115  -32.3316  -43.3511 C.3       10 UNK         0.0169 
     62 H62        15.0863  -28.5899  -40.7706 H         1 UNK         0.0903 
     63 H63        16.3986  -29.4076  -41.6203 H         1 UNK         0.0903 
     64 H64        16.7473  -28.4386  -40.1902 H         1 UNK         0.0903 
     65 H65        16.9754  -28.3627  -43.5097 H         1 UNK         0.3096 
     66 H66        16.3701  -25.5562  -44.0113 H         1 UNK         0.1121 
     67 H67        17.1812  -26.0205  -46.2905 H         1 UNK         0.0849 
     68 H68        17.9062  -27.5233  -45.7875 H         1 UNK         0.0849 
     69 H69        15.1652  -29.6802  -47.3245 H         1 UNK         0.0865 
     70 H70        16.4375  -28.6872  -47.9821 H         1 UNK         0.0865 
     71 H71        15.7368  -30.6042  -44.7918 H         1 UNK         0.1346 
     72 H72        19.6599  -32.3700  -44.7454 H         1 UNK         0.1412 
     73 H73        18.5949  -29.6092  -47.8246 H         1 UNK         0.1426 
     74 H74        20.6608  -30.7943  -47.9816 H         1 UNK         0.0716 
     75 H75        20.9239  -32.2080  -46.9945 H         1 UNK         0.0716 
     76 H76        21.1059  -28.2314  -46.9739 H         1 UNK         0.0695 
     77 H77        20.2406  -28.6542  -45.5193 H         1 UNK         0.0695 
     78 H78        22.9741  -27.3074  -45.6546 H         1 UNK         0.0983 
     79 H79        20.3782  -26.3208  -45.6407 H         1 UNK         0.3095 
     80 H80        20.3247  -23.6459  -43.4502 H         1 UNK         0.0454 
     81 H81        21.4406  -22.5722  -45.4170 H         1 UNK         0.0851 
     82 H82        20.4142  -23.4873  -46.5119 H         1 UNK         0.0851 
     83 H83        19.7098  -22.2876  -45.4266 H         1 UNK         0.0851 
     84 H84        18.3761  -24.4041  -45.3010 H         1 UNK         0.2976 
     85 H85        20.6022  -27.3600  -42.9706 H         1 UNK         0.3116 
     86 H86        21.8092  -29.3730  -41.4052 H         1 UNK         0.0646 
     87 H87        20.3485  -28.4888  -39.5957 H         1 UNK         0.0847 
     88 H88        19.4520  -28.5900  -41.1043 H         1 UNK         0.0847 
     89 H89        20.0380  -27.0344  -40.5201 H         1 UNK         0.0847 
     90 H90        22.8557  -26.0923  -41.8904 H         1 UNK         0.3040 
     91 H91        24.3616  -25.7280  -39.4751 H         1 UNK         0.1015 
     92 H92        23.7888  -23.8579  -41.0304 H         1 UNK         0.0786 
     93 H93        24.7976  -24.5746  -42.2865 H         1 UNK         0.0786 
     94 H94        25.5273  -23.9709  -40.8051 H         1 UNK         0.0786 
     95 H95        24.9118  -27.6719  -42.3348 H         1 UNK         0.3172 
     96 H96        27.6884  -28.3631  -41.4322 H         1 UNK         0.0595 
     97 H97        28.0043  -29.1784  -43.7620 H         1 UNK         0.0839 
     98 H98        27.6112  -27.4670  -43.7445 H         1 UNK         0.0839 
     99 H99        26.3831  -28.6489  -44.1926 H         1 UNK         0.0839 
    100 H100       24.5623  -29.6866  -42.6504 H         1 UNK         0.2998 
    101 H101       25.4156  -32.4208  -42.3174 H         1 UNK         0.0822 
    102 H102       23.9323  -31.7154  -44.1540 H         1 UNK         0.0787 
    103 H103       23.1005  -32.8947  -43.1561 H         1 UNK         0.0787 
    104 H104       22.6984  -31.1884  -43.0144 H         1 UNK         0.0787 
    105 H105       23.9621  -30.2258  -40.0643 H         1 UNK         0.3055 
    106 H106       22.9658  -30.3709  -38.0919 H         1 UNK         0.1106 
    107 H107       24.0298  -33.2318  -37.8571 H         1 UNK         0.0828 
    108 H108       24.9455  -31.7778  -37.4611 H         1 UNK         0.0828 
    109 H109       23.5064  -32.1901  -36.5450 H         1 UNK         0.0828 
    110 H110       21.4618  -30.9351  -40.4148 H         1 UNK         0.2931 
    111 H111       19.5998  -33.0556  -39.9356 H         1 UNK         0.0412 
    112 H112       19.6212  -30.2543  -38.1669 H         1 UNK         0.3472 
    113 H113       17.8986  -30.0721  -37.9566 H         1 UNK         0.3472 
    114 H114       19.0785  -30.9128  -42.0281 H         1 UNK         0.0970 
    115 H115       20.4697  -31.9310  -42.2216 H         1 UNK         0.0970 
    116 H116       16.7349  -31.6422  -42.6529 H         1 UNK         0.0612 
    117 H117       16.4447  -33.0504  -43.6427 H         1 UNK         0.0612 
@<TRIPOS>BOND
     1    1    2 1    
     2    1   62 1    
     3    1   63 1    
     4    1   64 1    
     5    2    3 2    
     6    2    4 am   BACKBONE|DICT|INTERRES
     7    4    5 1    
     8    4   65 1    
     9    5    6 1    
    10    5   25 1    
    11    5   66 1    
    12    6    7 1    
    13    6   67 1    
    14    6   68 1    
    15    7    8 1    
    16    8    9 1    
    17    8   69 1    
    18    8   70 1    
    19    9   10 ar   
    20    9   14 ar   
    21   10   11 ar   
    22   10   71 1    
    23   11   12 ar   
    24   11   61 1    
    25   12   13 ar   
    26   12   72 1    
    27   13   14 ar   
    28   13   15 1    
    29   14   73 1    
    30   15   16 1    
    31   15   74 1    
    32   15   75 1    
    33   16   17 1    
    34   17   18 1    
    35   17   76 1    
    36   17   77 1    
    37   18   19 1    
    38   18   27 1    
    39   18   78 1    
    40   19   20 am   BACKBONE|DICT|INTERRES
    41   19   79 1    
    42   20   21 2    
    43   20   22 1    
    44   22   23 1    
    45   22   24 1    
    46   22   80 1    
    47   23   81 1    
    48   23   82 1    
    49   23   83 1    
    50   24   25 am   BACKBONE|DICT|INTERRES
    51   24   84 1    
    52   25   26 2    
    53   27   28 2    
    54   27   29 am   BACKBONE|DICT|INTERRES
    55   29   30 1    
    56   29   85 1    
    57   30   31 1    
    58   30   32 1    
    59   30   86 1    
    60   31   87 1    
    61   31   88 1    
    62   31   89 1    
    63   32   33 2    
    64   32   34 am   BACKBONE|DICT|INTERRES
    65   34   35 1    
    66   34   90 1    
    67   35   36 1    
    68   35   37 1    
    69   35   91 1    
    70   36   92 1    
    71   36   93 1    
    72   36   94 1    
    73   37   38 2    
    74   37   39 am   BACKBONE|DICT|INTERRES
    75   39   40 1    
    76   39   95 1    
    77   40   41 1    
    78   40   42 1    
    79   40   96 1    
    80   41   97 1    
    81   41   98 1    
    82   41   99 1    
    83   42   43 2    
    84   42   44 am   BACKBONE|DICT|INTERRES
    85   44   45 1    
    86   44  100 1    
    87   45   46 1    
    88   45   47 1    
    89   45  101 1    
    90   46  102 1    
    91   46  103 1    
    92   46  104 1    
    93   47   48 2    
    94   47   49 am   BACKBONE|DICT|INTERRES
    95   49   50 1    
    96   49  105 1    
    97   50   51 1    
    98   50   52 1    
    99   50  106 1    
   100   51  107 1    
   101   51  108 1    
   102   51  109 1    
   103   52   53 2    
   104   52   54 am   BACKBONE|DICT|INTERRES
   105   54   55 1    
   106   54  110 1    
   107   55   56 1    
   108   55   59 1    
   109   55  111 1    
   110   56   57 am   BACKBONE|DICT|INTERRES
   111   56   58 2    
   112   57  112 1    
   113   57  113 1    
   114   59   60 1    
   115   59  114 1    
   116   59  115 1    
   117   60   61 1    
   118   61  116 1    
   119   61  117 1    
@<TRIPOS>SUBSTRUCTURE
     1 UNK         1 GROUP             0       ****    0 ROOT    
