@<TRIPOS>MOLECULE
3R8
117   119    1
SMALL
USER_CHARGES


@<TRIPOS>ATOM
      1 CA         16.3774  -26.7896  -40.8670 C.3       0 UNK        -0.2013 
      2 C          16.9585  -25.8466  -41.9104 C.2       0 UNK         0.4866 
      3 O          17.0757  -24.6474  -41.6556 O.2       0 UNK        -0.5176 
      4 N          17.3120  -26.3813  -43.0851 N.am      1 UNK        -0.4884 
      5 CA         17.9185  -25.6430  -44.2006 C.3       1 UNK         0.0853 
      6 C6         17.6242  -26.3209  -45.5680 C.3       10 UNK        -0.0849 
      7 S7         15.8502  -26.6911  -45.8079 S.3       10 UNK        -0.2776 
      8 C8         15.8848  -28.3617  -46.5414 C.3       10 UNK         0.0316 
      9 C9         16.6380  -29.3817  -45.6936 C.ar      10 UNK        -0.0863 
     10 C10        16.2019  -29.7003  -44.4038 C.ar      10 UNK        -0.1009 
     11 C11        16.8772  -30.6525  -43.6315 C.ar      10 UNK        -0.0712 
     12 C12        18.0092  -31.2803  -44.1699 C.ar      10 UNK        -0.0894 
     13 C13        18.4489  -30.9827  -45.4631 C.ar      10 UNK        -0.0745 
     14 C14        17.7601  -30.0297  -46.2176 C.ar      10 UNK        -0.0972 
     15 C15        19.6321  -31.7302  -46.0696 C.3       10 UNK         0.0209 
     16 S16        21.2386  -31.2308  -45.3697 S.3       10 UNK        -0.2568 
     17 C17        21.4041  -29.5061  -45.9659 C.3       10 UNK        -0.0983 
     18 CA         22.2716  -28.5209  -45.1196 C.3       3 UNK         0.0876 
     19 N          21.8197  -27.1395  -45.3241 N.am      3 UNK        -0.4424 
     20 C          22.3827  -26.0323  -44.8193 C.2       2 UNK         0.4918 
     21 O          23.4380  -26.0218  -44.1892 O.2       2 UNK        -0.4875 
     22 CA         21.5956  -24.7174  -44.9913 C.3       2 UNK         0.0481 
     23 CB         22.0152  -24.0093  -46.2885 C.3       2 UNK        -0.1831 
     24 N          20.1347  -24.8861  -44.9709 N.am      2 UNK        -0.4498 
     25 C          19.4386  -25.4635  -43.9776 C.2       1 UNK         0.5027 
     26 O          19.9728  -25.8938  -42.9517 O.2       1 UNK        -0.4969 
     27 C          22.3488  -28.8660  -43.6145 C.2       3 UNK         0.5005 
     28 O          23.4070  -29.2707  -43.1303 O.2       3 UNK        -0.5279 
     29 N          21.2323  -28.6618  -42.9028 N.am      4 UNK        -0.4463 
     30 CA         21.0981  -28.9332  -41.4725 C.3       4 UNK         0.0283 
     31 CB         19.6139  -28.8943  -41.0851 C.3       4 UNK        -0.1875 
     32 C          21.9191  -27.9778  -40.5933 C.2       4 UNK         0.4949 
     33 O          22.3470  -28.3812  -39.5135 O.2       4 UNK        -0.5039 
     34 N          22.1280  -26.7414  -41.0649 N.am      5 UNK        -0.4663 
     35 CA         22.9939  -25.7530  -40.4219 C.3       5 UNK         0.0242 
     36 CB         22.7070  -24.3593  -41.0029 C.3       5 UNK        -0.1982 
     37 C          24.4855  -26.1079  -40.5546 C.2       5 UNK         0.5017 
     38 O          25.2205  -25.9880  -39.5739 O.2       5 UNK        -0.5012 
     39 N          24.9058  -26.5246  -41.7581 N.am      6 UNK        -0.4439 
     40 CA         26.2858  -26.9012  -42.0718 C.3       6 UNK         0.0297 
     41 CB         26.4868  -26.9083  -43.5960 C.3       6 UNK        -0.2006 
     42 C          26.6907  -28.2565  -41.4711 C.2       6 UNK         0.4892 
     43 O          27.7912  -28.3663  -40.9283 O.2       6 UNK        -0.5089 
     44 N          25.8094  -29.2557  -41.5933 N.am      7 UNK        -0.4243 
     45 CA         26.0006  -30.6155  -41.0990 C.3       7 UNK         0.0196 
     46 CB         25.9998  -31.5891  -42.2969 C.3       7 UNK        -0.2007 
     47 C          24.9157  -30.9005  -40.0510 C.2       7 UNK         0.5020 
     48 O          24.9859  -30.3482  -38.9528 O.2       7 UNK        -0.5147 
     49 N          23.9450  -31.7530  -40.3913 N.am      8 UNK        -0.4734 
     50 CA         22.7853  -32.1082  -39.5804 C.3       8 UNK         0.0238 
     51 CB         23.1814  -33.1212  -38.4895 C.3       8 UNK        -0.1912 
     52 C          21.7221  -32.6981  -40.5130 C.2       8 UNK         0.5038 
     53 O          22.0756  -33.2520  -41.5579 O.2       8 UNK        -0.5046 
     54 N          20.4495  -32.5752  -40.1203 N.am      9 UNK        -0.4200 
     55 CA         19.3093  -33.1706  -40.8295 C.3       9 UNK         0.0839 
     56 C          19.2545  -34.7107  -40.6298 C.2       9 UNK         0.5513 
     57 N          18.9192  -35.4655  -41.6667 N.am      9 UNK        -0.7519 
     58 O          19.4837  -35.2197  -39.5343 O.2       9 UNK        -0.4960 
     59 C59        17.9823  -32.4800  -40.4170 C.3       10 UNK        -0.0876 
     60 S60        16.6496  -32.6796  -41.6543 S.3       10 UNK        -0.2414 
     61 C61        16.3490  -30.9690  -42.2301 C.3       10 UNK         0.0169 
     62 H62        15.3964  -26.4382  -40.5483 H         1 UNK         0.0903 
     63 H63        16.2643  -27.8027  -41.2512 H         1 UNK         0.0903 
     64 H64        17.0268  -26.8273  -39.9928 H         1 UNK         0.0903 
     65 H65        17.1857  -27.3700  -43.2438 H         1 UNK         0.3096 
     66 H66        17.4836  -24.6411  -44.2228 H         1 UNK         0.1121 
     67 H67        17.9299  -25.6767  -46.3940 H         1 UNK         0.0849 
     68 H68        18.2099  -27.2349  -45.6698 H         1 UNK         0.0849 
     69 H69        14.8589  -28.7062  -46.6789 H         1 UNK         0.0865 
     70 H70        16.3167  -28.2929  -47.5411 H         1 UNK         0.0865 
     71 H71        15.3258  -29.2064  -44.0053 H         1 UNK         0.1346 
     72 H72        18.5465  -32.0196  -43.5989 H         1 UNK         0.1412 
     73 H73        18.0920  -29.8026  -47.2217 H         1 UNK         0.1426 
     74 H74        19.6610  -31.5978  -47.1523 H         1 UNK         0.0716 
     75 H75        19.4985  -32.7997  -45.9010 H         1 UNK         0.0716 
     76 H76        21.7840  -29.5374  -46.9881 H         1 UNK         0.0695 
     77 H77        20.3940  -29.1057  -46.0494 H         1 UNK         0.0695 
     78 H78        23.2961  -28.5804  -45.4935 H         1 UNK         0.0983 
     79 H79        20.9643  -27.0262  -45.8453 H         1 UNK         0.3095 
     80 H80        21.8560  -24.0680  -44.1540 H         1 UNK         0.0454 
     81 H81        23.0948  -23.8535  -46.3154 H         1 UNK         0.0851 
     82 H82        21.7483  -24.5891  -47.1729 H         1 UNK         0.0851 
     83 H83        21.5482  -23.0281  -46.3753 H         1 UNK         0.0851 
     84 H84        19.6354  -24.5391  -45.7774 H         1 UNK         0.2976 
     85 H85        20.4295  -28.2610  -43.3647 H         1 UNK         0.3116 
     86 H86        21.4712  -29.9420  -41.2965 H         1 UNK         0.0646 
     87 H87        19.4758  -29.1675  -40.0384 H         1 UNK         0.0847 
     88 H88        19.0357  -29.5935  -41.6872 H         1 UNK         0.0847 
     89 H89        19.1911  -27.8991  -41.2210 H         1 UNK         0.0847 
     90 H90        21.6565  -26.4678  -41.9208 H         1 UNK         0.3040 
     91 H91        22.7508  -25.7320  -39.3570 H         1 UNK         0.1015 
     92 H92        21.6525  -24.0983  -40.9090 H         1 UNK         0.0786 
     93 H93        22.9752  -24.2970  -42.0572 H         1 UNK         0.0786 
     94 H94        23.2802  -23.5946  -40.4770 H         1 UNK         0.0786 
     95 H95        24.2434  -26.5418  -42.5295 H         1 UNK         0.3172 
     96 H96        26.9471  -26.1401  -41.6521 H         1 UNK         0.0595 
     97 H97        26.2908  -25.9258  -44.0258 H         1 UNK         0.0839 
     98 H98        25.8267  -27.6247  -44.0872 H         1 UNK         0.0839 
     99 H99        27.5120  -27.1767  -43.8547 H         1 UNK         0.0839 
    100 H100       24.9195  -29.0801  -42.0578 H         1 UNK         0.2998 
    101 H101       26.9605  -30.7128  -40.5876 H         1 UNK         0.0822 
    102 H102       26.8384  -31.3835  -42.9624 H         1 UNK         0.0787 
    103 H103       26.1016  -32.6237  -41.9665 H         1 UNK         0.0787 
    104 H104       25.0877  -31.5125  -42.8907 H         1 UNK         0.0787 
    105 H105       23.9311  -32.1513  -41.3232 H         1 UNK         0.3055 
    106 H106       22.3881  -31.2015  -39.1176 H         1 UNK         0.1106 
    107 H107       23.6054  -34.0292  -38.9201 H         1 UNK         0.0828 
    108 H108       23.9164  -32.7022  -37.8022 H         1 UNK         0.0828 
    109 H109       22.3162  -33.4157  -37.8942 H         1 UNK         0.0828 
    110 H110       20.2488  -32.1589  -39.2232 H         1 UNK         0.2931 
    111 H111       19.4772  -32.9772  -41.8890 H         1 UNK         0.0412 
    112 H112       18.8670  -36.4656  -41.5509 H         1 UNK         0.3472 
    113 H113       18.7031  -35.0519  -42.5603 H         1 UNK         0.3472 
    114 H114       18.1532  -31.4164  -40.2547 H         1 UNK         0.0970 
    115 H115       17.6275  -32.8608  -39.4572 H         1 UNK         0.0970 
    116 H116       16.7484  -30.2447  -41.5217 H         1 UNK         0.0612 
    117 H117       15.2676  -30.8236  -42.2193 H         1 UNK         0.0612 
@<TRIPOS>BOND
     1    1    2 1    
     2    1   62 1    
     3    1   63 1    
     4    1   64 1    
     5    2    3 2    
     6    2    4 am   BACKBONE|DICT|INTERRES
     7    4    5 1    
     8    4   65 1    
     9    5    6 1    
    10    5   25 1    
    11    5   66 1    
    12    6    7 1    
    13    6   67 1    
    14    6   68 1    
    15    7    8 1    
    16    8    9 1    
    17    8   69 1    
    18    8   70 1    
    19    9   10 ar   
    20    9   14 ar   
    21   10   11 ar   
    22   10   71 1    
    23   11   12 ar   
    24   11   61 1    
    25   12   13 ar   
    26   12   72 1    
    27   13   14 ar   
    28   13   15 1    
    29   14   73 1    
    30   15   16 1    
    31   15   74 1    
    32   15   75 1    
    33   16   17 1    
    34   17   18 1    
    35   17   76 1    
    36   17   77 1    
    37   18   19 1    
    38   18   27 1    
    39   18   78 1    
    40   19   20 am   BACKBONE|DICT|INTERRES
    41   19   79 1    
    42   20   21 2    
    43   20   22 1    
    44   22   23 1    
    45   22   24 1    
    46   22   80 1    
    47   23   81 1    
    48   23   82 1    
    49   23   83 1    
    50   24   25 am   BACKBONE|DICT|INTERRES
    51   24   84 1    
    52   25   26 2    
    53   27   28 2    
    54   27   29 am   BACKBONE|DICT|INTERRES
    55   29   30 1    
    56   29   85 1    
    57   30   31 1    
    58   30   32 1    
    59   30   86 1    
    60   31   87 1    
    61   31   88 1    
    62   31   89 1    
    63   32   33 2    
    64   32   34 am   BACKBONE|DICT|INTERRES
    65   34   35 1    
    66   34   90 1    
    67   35   36 1    
    68   35   37 1    
    69   35   91 1    
    70   36   92 1    
    71   36   93 1    
    72   36   94 1    
    73   37   38 2    
    74   37   39 am   BACKBONE|DICT|INTERRES
    75   39   40 1    
    76   39   95 1    
    77   40   41 1    
    78   40   42 1    
    79   40   96 1    
    80   41   97 1    
    81   41   98 1    
    82   41   99 1    
    83   42   43 2    
    84   42   44 am   BACKBONE|DICT|INTERRES
    85   44   45 1    
    86   44  100 1    
    87   45   46 1    
    88   45   47 1    
    89   45  101 1    
    90   46  102 1    
    91   46  103 1    
    92   46  104 1    
    93   47   48 2    
    94   47   49 am   BACKBONE|DICT|INTERRES
    95   49   50 1    
    96   49  105 1    
    97   50   51 1    
    98   50   52 1    
    99   50  106 1    
   100   51  107 1    
   101   51  108 1    
   102   51  109 1    
   103   52   53 2    
   104   52   54 am   BACKBONE|DICT|INTERRES
   105   54   55 1    
   106   54  110 1    
   107   55   56 1    
   108   55   59 1    
   109   55  111 1    
   110   56   57 am   BACKBONE|DICT|INTERRES
   111   56   58 2    
   112   57  112 1    
   113   57  113 1    
   114   59   60 1    
   115   59  114 1    
   116   59  115 1    
   117   60   61 1    
   118   61  116 1    
   119   61  117 1    
@<TRIPOS>SUBSTRUCTURE
     1 UNK         1 GROUP             0       ****    0 ROOT    
