@<TRIPOS>MOLECULE
3R8
117   119    1
SMALL
USER_CHARGES


@<TRIPOS>ATOM
      1 CA         14.0636  -24.8920  -40.7414 C.3       0 UNK        -0.2013 
      2 C          15.2168  -25.1742  -41.6929 C.2       0 UNK         0.4866 
      3 O          15.4262  -24.4188  -42.6428 O.2       0 UNK        -0.5176 
      4 N          15.9594  -26.2612  -41.4520 N.am      1 UNK        -0.4884 
      5 CA         17.1341  -26.6639  -42.2330 C.3       1 UNK         0.0853 
      6 C6         17.5751  -28.1137  -41.9173 C.3       10 UNK        -0.0849 
      7 S7         16.2432  -29.3651  -41.9153 S.3       10 UNK        -0.2776 
      8 C8         16.1528  -29.8903  -43.6613 C.3       10 UNK         0.0316 
      9 C9         17.4981  -30.2905  -44.2580 C.ar      10 UNK        -0.0863 
     10 C10        18.3291  -31.2164  -43.6168 C.ar      10 UNK        -0.1009 
     11 C11        19.5752  -31.5549  -44.1599 C.ar      10 UNK        -0.0712 
     12 C12        19.9767  -30.9698  -45.3635 C.ar      10 UNK        -0.0894 
     13 C13        19.1587  -30.0382  -46.0083 C.ar      10 UNK        -0.0745 
     14 C14        17.9186  -29.7101  -45.4570 C.ar      10 UNK        -0.0972 
     15 C15        19.6267  -29.3507  -47.2804 C.3       10 UNK         0.0209 
     16 S16        20.2154  -27.6634  -46.9346 S.3       10 UNK        -0.2568 
     17 C17        21.7582  -28.0119  -46.0292 C.3       10 UNK        -0.0983 
     18 CA         22.3601  -26.7309  -45.4061 C.3       3 UNK         0.0876 
     19 N          21.5176  -26.2238  -44.3174 N.am      3 UNK        -0.4424 
     20 C          21.2691  -24.9283  -44.0982 C.2       2 UNK         0.4918 
     21 O          21.7229  -24.0186  -44.7951 O.2       2 UNK        -0.4875 
     22 CA         20.3266  -24.6015  -42.9288 C.3       2 UNK         0.0481 
     23 CB         19.9504  -23.1057  -42.8581 C.3       2 UNK        -0.1831 
     24 N          19.1224  -25.4320  -43.0085 N.am      2 UNK        -0.4498 
     25 C          18.3163  -25.7022  -41.9742 C.2       1 UNK         0.5027 
     26 O          18.4947  -25.2569  -40.8364 O.2       1 UNK        -0.4969 
     27 C          23.7846  -27.0095  -44.8951 C.2       3 UNK         0.5005 
     28 O          24.0026  -27.1510  -43.6878 O.2       3 UNK        -0.5279 
     29 N          24.7312  -27.1689  -45.8319 N.am      4 UNK        -0.4463 
     30 CA         26.1231  -27.5771  -45.5924 C.3       4 UNK         0.0283 
     31 CB         26.9750  -27.1959  -46.8175 C.3       4 UNK        -0.1875 
     32 C          26.2510  -29.0736  -45.2241 C.2       4 UNK         0.4949 
     33 O          27.0542  -29.7993  -45.8115 O.2       4 UNK        -0.5039 
     34 N          25.4380  -29.5013  -44.2567 N.am      5 UNK        -0.4663 
     35 CA         25.3322  -30.8515  -43.7149 C.3       5 UNK         0.0242 
     36 CB         24.2425  -31.6265  -44.4821 C.3       5 UNK        -0.1982 
     37 C          25.0534  -30.7447  -42.2077 C.2       5 UNK         0.5017 
     38 O          24.1190  -31.3715  -41.7087 O.2       5 UNK        -0.5012 
     39 N          25.8551  -29.9073  -41.5281 N.am      6 UNK        -0.4439 
     40 CA         25.7655  -29.5351  -40.1084 C.3       6 UNK         0.0297 
     41 CB         26.0406  -30.7524  -39.1990 C.3       6 UNK        -0.2006 
     42 C          24.4503  -28.8083  -39.7566 C.2       6 UNK         0.4892 
     43 O          23.8915  -29.0355  -38.6820 O.2       6 UNK        -0.5089 
     44 N          23.9840  -27.9473  -40.6749 N.am      7 UNK        -0.4243 
     45 CA         22.7137  -27.2133  -40.6775 C.3       7 UNK         0.0196 
     46 CB         22.5435  -26.3018  -39.4447 C.3       7 UNK        -0.2007 
     47 C          21.5046  -28.1346  -40.8915 C.2       7 UNK         0.5020 
     48 O          20.8316  -28.0027  -41.9137 O.2       7 UNK        -0.5147 
     49 N          21.2641  -29.0380  -39.9353 N.am      8 UNK        -0.4734 
     50 CA         20.1520  -29.9837  -39.8995 C.3       8 UNK         0.0238 
     51 CB         19.1965  -29.5731  -38.7643 C.3       8 UNK        -0.1912 
     52 C          20.6769  -31.4048  -39.6575 C.2       8 UNK         0.5038 
     53 O          21.7647  -31.5767  -39.1036 O.2       8 UNK        -0.5046 
     54 N          19.8683  -32.3934  -40.0490 N.am      9 UNK        -0.4200 
     55 CA         20.1814  -33.8306  -39.9957 C.3       9 UNK         0.0839 
     56 C          19.0002  -34.7041  -39.4823 C.2       9 UNK         0.5513 
     57 N          17.9335  -34.1267  -38.9405 N.am      9 UNK        -0.7519 
     58 O          19.0583  -35.9293  -39.5503 O.2       9 UNK        -0.4960 
     59 C59        20.7939  -34.3347  -41.3342 C.3       10 UNK        -0.0876 
     60 S60        19.7403  -33.9948  -42.7904 S.3       10 UNK        -0.2414 
     61 C61        20.5339  -32.4795  -43.4194 C.3       10 UNK         0.0169 
     62 H62        14.2009  -23.9226  -40.2632 H         1 UNK         0.0903 
     63 H63        13.1216  -24.8720  -41.2888 H         1 UNK         0.0903 
     64 H64        13.9853  -25.6476  -39.9598 H         1 UNK         0.0903 
     65 H65        15.7479  -26.8477  -40.6574 H         1 UNK         0.3096 
     66 H66        16.8648  -26.6088  -43.2902 H         1 UNK         0.1121 
     67 H67        18.0243  -28.1470  -40.9257 H         1 UNK         0.0849 
     68 H68        18.3638  -28.4226  -42.6037 H         1 UNK         0.0849 
     69 H69        15.4693  -30.7368  -43.7384 H         1 UNK         0.0865 
     70 H70        15.7005  -29.0808  -44.2365 H         1 UNK         0.0865 
     71 H71        18.0127  -31.6540  -42.6807 H         1 UNK         0.1346 
     72 H72        20.9448  -31.2097  -45.7816 H         1 UNK         0.1412 
     73 H73        17.2930  -28.9823  -45.9558 H         1 UNK         0.1426 
     74 H74        20.4184  -29.9231  -47.7666 H         1 UNK         0.0716 
     75 H75        18.8021  -29.3004  -47.9929 H         1 UNK         0.0716 
     76 H76        22.4479  -28.4783  -46.7354 H         1 UNK         0.0695 
     77 H77        21.5699  -28.7497  -45.2481 H         1 UNK         0.0695 
     78 H78        22.4436  -25.9761  -46.1916 H         1 UNK         0.0983 
     79 H79        21.1815  -26.9112  -43.6496 H         1 UNK         0.3095 
     80 H80        20.8694  -24.8608  -42.0177 H         1 UNK         0.0454 
     81 H81        19.3410  -22.8846  -41.9821 H         1 UNK         0.0851 
     82 H82        19.3929  -22.7912  -43.7410 H         1 UNK         0.0851 
     83 H83        20.8410  -22.4796  -42.7918 H         1 UNK         0.0851 
     84 H84        18.9387  -25.8514  -43.9106 H         1 UNK         0.2976 
     85 H85        24.4642  -27.0736  -46.8018 H         1 UNK         0.3116 
     86 H86        26.5017  -27.0097  -44.7394 H         1 UNK         0.0646 
     87 H87        26.9124  -26.1285  -47.0295 H         1 UNK         0.0847 
     88 H88        28.0278  -27.4271  -46.6497 H         1 UNK         0.0847 
     89 H89        26.6617  -27.7362  -47.7117 H         1 UNK         0.0847 
     90 H90        24.8207  -28.8040  -43.8447 H         1 UNK         0.3040 
     91 H91        26.2843  -31.3746  -43.8301 H         1 UNK         0.1015 
     92 H92        23.2706  -31.1395  -44.3937 H         1 UNK         0.0786 
     93 H93        24.1389  -32.6425  -44.0992 H         1 UNK         0.0786 
     94 H94        24.4831  -31.7029  -45.5425 H         1 UNK         0.0786 
     95 H95        26.5852  -29.4443  -42.0527 H         1 UNK         0.3172 
     96 H96        26.5631  -28.8116  -39.9337 H         1 UNK         0.0595 
     97 H97        25.2409  -31.4916  -39.2602 H         1 UNK         0.0839 
     98 H98        26.1195  -30.4491  -38.1543 H         1 UNK         0.0839 
     99 H99        26.9760  -31.2450  -39.4638 H         1 UNK         0.0839 
    100 H100       24.5077  -27.8516  -41.5354 H         1 UNK         0.2998 
    101 H101       22.7570  -26.5515  -41.5422 H         1 UNK         0.0822 
    102 H102       21.6353  -25.7037  -39.5331 H         1 UNK         0.0787 
    103 H103       22.4654  -26.8651  -38.5149 H         1 UNK         0.0787 
    104 H104       23.3796  -25.6095  -39.3475 H         1 UNK         0.0787 
    105 H105       21.9731  -29.1622  -39.2162 H         1 UNK         0.3055 
    106 H106       19.6227  -29.9715  -40.8549 H         1 UNK         0.1106 
    107 H107       18.9051  -28.5258  -38.8401 H         1 UNK         0.0828 
    108 H108       18.2822  -30.1672  -38.7858 H         1 UNK         0.0828 
    109 H109       19.6545  -29.7120  -37.7839 H         1 UNK         0.0828 
    110 H110       18.9801  -32.1699  -40.4729 H         1 UNK         0.2931 
    111 H111       20.9458  -33.9781  -39.2308 H         1 UNK         0.0412 
    112 H112       17.1809  -34.7085  -38.6061 H         1 UNK         0.3472 
    113 H113       17.8873  -33.1288  -38.8151 H         1 UNK         0.3472 
    114 H114       21.7726  -33.8747  -41.4817 H         1 UNK         0.0970 
    115 H115       20.9903  -35.4075  -41.2908 H         1 UNK         0.0970 
    116 H116       21.3625  -32.7773  -44.0633 H         1 UNK         0.0612 
    117 H117       20.9740  -31.9123  -42.5991 H         1 UNK         0.0612 
@<TRIPOS>BOND
     1    1    2 1    
     2    1   62 1    
     3    1   63 1    
     4    1   64 1    
     5    2    3 2    
     6    2    4 am   BACKBONE|DICT|INTERRES
     7    4    5 1    
     8    4   65 1    
     9    5    6 1    
    10    5   25 1    
    11    5   66 1    
    12    6    7 1    
    13    6   67 1    
    14    6   68 1    
    15    7    8 1    
    16    8    9 1    
    17    8   69 1    
    18    8   70 1    
    19    9   10 ar   
    20    9   14 ar   
    21   10   11 ar   
    22   10   71 1    
    23   11   12 ar   
    24   11   61 1    
    25   12   13 ar   
    26   12   72 1    
    27   13   14 ar   
    28   13   15 1    
    29   14   73 1    
    30   15   16 1    
    31   15   74 1    
    32   15   75 1    
    33   16   17 1    
    34   17   18 1    
    35   17   76 1    
    36   17   77 1    
    37   18   19 1    
    38   18   27 1    
    39   18   78 1    
    40   19   20 am   BACKBONE|DICT|INTERRES
    41   19   79 1    
    42   20   21 2    
    43   20   22 1    
    44   22   23 1    
    45   22   24 1    
    46   22   80 1    
    47   23   81 1    
    48   23   82 1    
    49   23   83 1    
    50   24   25 am   BACKBONE|DICT|INTERRES
    51   24   84 1    
    52   25   26 2    
    53   27   28 2    
    54   27   29 am   BACKBONE|DICT|INTERRES
    55   29   30 1    
    56   29   85 1    
    57   30   31 1    
    58   30   32 1    
    59   30   86 1    
    60   31   87 1    
    61   31   88 1    
    62   31   89 1    
    63   32   33 2    
    64   32   34 am   BACKBONE|DICT|INTERRES
    65   34   35 1    
    66   34   90 1    
    67   35   36 1    
    68   35   37 1    
    69   35   91 1    
    70   36   92 1    
    71   36   93 1    
    72   36   94 1    
    73   37   38 2    
    74   37   39 am   BACKBONE|DICT|INTERRES
    75   39   40 1    
    76   39   95 1    
    77   40   41 1    
    78   40   42 1    
    79   40   96 1    
    80   41   97 1    
    81   41   98 1    
    82   41   99 1    
    83   42   43 2    
    84   42   44 am   BACKBONE|DICT|INTERRES
    85   44   45 1    
    86   44  100 1    
    87   45   46 1    
    88   45   47 1    
    89   45  101 1    
    90   46  102 1    
    91   46  103 1    
    92   46  104 1    
    93   47   48 2    
    94   47   49 am   BACKBONE|DICT|INTERRES
    95   49   50 1    
    96   49  105 1    
    97   50   51 1    
    98   50   52 1    
    99   50  106 1    
   100   51  107 1    
   101   51  108 1    
   102   51  109 1    
   103   52   53 2    
   104   52   54 am   BACKBONE|DICT|INTERRES
   105   54   55 1    
   106   54  110 1    
   107   55   56 1    
   108   55   59 1    
   109   55  111 1    
   110   56   57 am   BACKBONE|DICT|INTERRES
   111   56   58 2    
   112   57  112 1    
   113   57  113 1    
   114   59   60 1    
   115   59  114 1    
   116   59  115 1    
   117   60   61 1    
   118   61  116 1    
   119   61  117 1    
@<TRIPOS>SUBSTRUCTURE
     1 UNK         1 GROUP             0       ****    0 ROOT    
