@<TRIPOS>MOLECULE
3R8
117   119    1
SMALL
USER_CHARGES


@<TRIPOS>ATOM
      1 CA         16.0028  -23.9738  -41.4132 C.3       0 UNK        -0.2013 
      2 C          16.5281  -23.9572  -42.8407 C.2       0 UNK         0.4866 
      3 O          16.5607  -22.8999  -43.4703 O.2       0 UNK        -0.5176 
      4 N          16.9447  -25.1212  -43.3565 N.am      1 UNK        -0.4884 
      5 CA         17.4416  -25.3006  -44.7284 C.3       1 UNK         0.0853 
      6 C6         17.4312  -26.7941  -45.1554 C.3       10 UNK        -0.0849 
      7 S7         15.8054  -27.6066  -45.0191 S.3       10 UNK        -0.2776 
      8 C8         16.0503  -29.0768  -46.0767 C.3       10 UNK         0.0316 
      9 C9         17.1326  -30.0036  -45.5341 C.ar      10 UNK        -0.0863 
     10 C10        16.8724  -30.8061  -44.4201 C.ar      10 UNK        -0.1009 
     11 C11        17.8540  -31.6522  -43.8954 C.ar      10 UNK        -0.0712 
     12 C12        19.1213  -31.6605  -44.4956 C.ar      10 UNK        -0.0894 
     13 C13        19.4104  -30.8542  -45.6033 C.ar      10 UNK        -0.0745 
     14 C14        18.3906  -30.0601  -46.1428 C.ar      10 UNK        -0.0972 
     15 C15        20.8355  -30.9058  -46.1691 C.3       10 UNK         0.0209 
     16 S16        21.3733  -29.5772  -47.3187 S.3       10 UNK        -0.2568 
     17 C17        20.9729  -27.9866  -46.5101 C.3       10 UNK        -0.0983 
     18 CA         21.9351  -27.4649  -45.4126 C.3       3 UNK         0.0876 
     19 N          21.5691  -26.0786  -45.1031 N.am      3 UNK        -0.4424 
     20 C          21.9400  -25.3178  -44.0661 C.2       2 UNK         0.4918 
     21 O          22.8565  -25.5980  -43.2933 O.2       2 UNK        -0.4875 
     22 CA         21.0372  -24.1020  -43.7732 C.3       2 UNK         0.0481 
     23 CB         21.4247  -22.8863  -44.6360 C.3       2 UNK        -0.1831 
     24 N          19.5958  -24.4225  -43.8603 N.am      2 UNK        -0.4498 
     25 C          18.8616  -24.7279  -44.9463 C.2       1 UNK         0.5027 
     26 O          19.3047  -24.6715  -46.0940 O.2       1 UNK        -0.4969 
     27 C          21.8584  -28.3553  -44.1571 C.2       3 UNK         0.5005 
     28 O          22.8138  -29.0643  -43.8474 O.2       3 UNK        -0.5279 
     29 N          20.7283  -28.2582  -43.4399 N.am      4 UNK        -0.4463 
     30 CA         20.4272  -29.0096  -42.2247 C.3       4 UNK         0.0283 
     31 CB         18.9853  -28.7132  -41.7818 C.3       4 UNK        -0.1875 
     32 C          21.4119  -28.7416  -41.0785 C.2       4 UNK         0.4949 
     33 O          21.8078  -29.6844  -40.3956 O.2       4 UNK        -0.5039 
     34 N          21.8077  -27.4734  -40.9066 N.am      5 UNK        -0.4663 
     35 CA         22.7942  -27.0525  -39.9111 C.3       5 UNK         0.0242 
     36 CB         22.7317  -25.5271  -39.7300 C.3       5 UNK        -0.1982 
     37 C          24.2142  -27.5057  -40.2817 C.2       5 UNK         0.5017 
     38 O          24.9469  -27.9631  -39.4048 O.2       5 UNK        -0.5012 
     39 N          24.5623  -27.3966  -41.5721 N.am      6 UNK        -0.4439 
     40 CA         25.8453  -27.8309  -42.1297 C.3       6 UNK         0.0297 
     41 CB         25.9759  -27.3221  -43.5745 C.3       6 UNK        -0.2006 
     42 C          26.0427  -29.3560  -42.0655 C.2       6 UNK         0.4892 
     43 O          27.1264  -29.8106  -41.6975 O.2       6 UNK        -0.5089 
     44 N          24.9939  -30.1134  -42.4130 N.am      7 UNK        -0.4243 
     45 CA         24.9794  -31.5782  -42.4014 C.3       7 UNK         0.0196 
     46 CB         23.8530  -32.0673  -43.3287 C.3       7 UNK        -0.2007 
     47 C          24.8071  -32.1899  -40.9995 C.2       7 UNK         0.5020 
     48 O          25.0577  -33.3856  -40.8464 O.2       7 UNK        -0.5147 
     49 N          24.3511  -31.3881  -40.0236 N.am      8 UNK        -0.4734 
     50 CA         23.9043  -31.7901  -38.6799 C.3       8 UNK         0.0238 
     51 CB         25.0758  -32.3358  -37.8358 C.3       8 UNK        -0.1912 
     52 C          22.6986  -32.7508  -38.7518 C.2       8 UNK         0.5038 
     53 O          22.6813  -33.7934  -38.0944 O.2       8 UNK        -0.5046 
     54 N          21.7337  -32.3792  -39.5988 N.am      9 UNK        -0.4200 
     55 CA         20.5067  -33.1164  -39.9100 C.3       9 UNK         0.0839 
     56 C          19.5099  -33.1212  -38.7201 C.2       9 UNK         0.5513 
     57 N          18.8374  -34.2372  -38.4758 N.am      9 UNK        -0.7519 
     58 O          19.3181  -32.1143  -38.0412 O.2       9 UNK        -0.4960 
     59 C59        19.8794  -32.5322  -41.2005 C.3       10 UNK        -0.0876 
     60 S60        18.7601  -33.6759  -42.0714 S.3       10 UNK        -0.2414 
     61 C61        17.4790  -32.5243  -42.6896 C.3       10 UNK         0.0169 
     62 H62        14.9686  -23.6312  -41.3908 H         1 UNK         0.0903 
     63 H63        16.0384  -24.9716  -40.9762 H         1 UNK         0.0903 
     64 H64        16.5957  -23.3078  -40.7869 H         1 UNK         0.0903 
     65 H65        16.8524  -25.9670  -42.8113 H         1 UNK         0.3096 
     66 H66        16.7785  -24.7519  -45.4014 H         1 UNK         0.1121 
     67 H67        17.7588  -26.8889  -46.1930 H         1 UNK         0.0849 
     68 H68        18.1350  -27.3713  -44.5554 H         1 UNK         0.0849 
     69 H69        15.1086  -29.6235  -46.1442 H         1 UNK         0.0865 
     70 H70        16.2862  -28.7571  -47.0930 H         1 UNK         0.0865 
     71 H71        15.8947  -30.7702  -43.9584 H         1 UNK         0.1346 
     72 H72        19.9019  -32.2986  -44.1102 H         1 UNK         0.1412 
     73 H73        18.5741  -29.4671  -47.0270 H         1 UNK         0.1426 
     74 H74        20.9474  -31.8547  -46.6951 H         1 UNK         0.0716 
     75 H75        21.5472  -30.9456  -45.3442 H         1 UNK         0.0716 
     76 H76        20.9538  -27.2598  -47.3243 H         1 UNK         0.0695 
     77 H77        19.9532  -27.9979  -46.1362 H         1 UNK         0.0695 
     78 H78        22.9614  -27.4735  -45.7841 H         1 UNK         0.0983 
     79 H79        20.8250  -25.6892  -45.6758 H         1 UNK         0.3095 
     80 H80        21.2120  -23.8274  -42.7317 H         1 UNK         0.0454 
     81 H81        22.4586  -22.5944  -44.4478 H         1 UNK         0.0851 
     82 H82        21.3393  -23.0894  -45.7036 H         1 UNK         0.0851 
     83 H83        20.7985  -22.0239  -44.4081 H         1 UNK         0.0851 
     84 H84        19.1243  -24.5049  -42.9701 H         1 UNK         0.2976 
     85 H85        20.0100  -27.6371  -43.7734 H         1 UNK         0.3116 
     86 H86        20.5020  -30.0648  -42.4836 H         1 UNK         0.0646 
     87 H87        18.7327  -29.2616  -40.8734 H         1 UNK         0.0847 
     88 H88        18.2659  -29.0092  -42.5450 H         1 UNK         0.0847 
     89 H89        18.8347  -27.6542  -41.5699 H         1 UNK         0.0847 
     90 H90        21.4696  -26.7673  -41.5431 H         1 UNK         0.3040 
     91 H91        22.5370  -27.5189  -38.9570 H         1 UNK         0.1015 
     92 H92        21.7400  -25.2061  -39.4109 H         1 UNK         0.0786 
     93 H93        22.9769  -24.9956  -40.6500 H         1 UNK         0.0786 
     94 H94        23.4385  -25.1979  -38.9670 H         1 UNK         0.0786 
     95 H95        23.8981  -26.9784  -42.2163 H         1 UNK         0.3172 
     96 H96        26.6372  -27.3686  -41.5366 H         1 UNK         0.0595 
     97 H97        26.9387  -27.6049  -44.0021 H         1 UNK         0.0839 
     98 H98        25.9074  -26.2350  -43.6198 H         1 UNK         0.0839 
     99 H99        25.1991  -27.7318  -44.2209 H         1 UNK         0.0839 
    100 H100       24.1576  -29.6556  -42.7747 H         1 UNK         0.2998 
    101 H101       25.9305  -31.9376  -42.8000 H         1 UNK         0.0822 
    102 H102       23.9905  -31.7009  -44.3463 H         1 UNK         0.0787 
    103 H103       23.8262  -33.1567  -43.3766 H         1 UNK         0.0787 
    104 H104       22.8751  -31.7303  -42.9827 H         1 UNK         0.0787 
    105 H105       24.1580  -30.4263  -40.2719 H         1 UNK         0.3055 
    106 H106       23.5417  -30.8832  -38.1925 H         1 UNK         0.1106 
    107 H107       25.4569  -33.2797  -38.2262 H         1 UNK         0.0828 
    108 H108       25.9034  -31.6273  -37.8029 H         1 UNK         0.0828 
    109 H109       24.7618  -32.5157  -36.8071 H         1 UNK         0.0828 
    110 H110       21.8106  -31.4523  -40.0119 H         1 UNK         0.2931 
    111 H111       20.8090  -34.1461  -40.1126 H         1 UNK         0.0412 
    112 H112       18.9721  -35.0576  -39.0465 H         1 UNK         0.3472 
    113 H113       18.1758  -34.2575  -37.7154 H         1 UNK         0.3472 
    114 H114       19.3672  -31.5939  -40.9851 H         1 UNK         0.0970 
    115 H115       20.6722  -32.2902  -41.9084 H         1 UNK         0.0970 
    116 H116       16.6107  -33.1244  -42.9650 H         1 UNK         0.0612 
    117 H117       17.1552  -31.8818  -41.8694 H         1 UNK         0.0612 
@<TRIPOS>BOND
     1    1    2 1    
     2    1   62 1    
     3    1   63 1    
     4    1   64 1    
     5    2    3 2    
     6    2    4 am   BACKBONE|DICT|INTERRES
     7    4    5 1    
     8    4   65 1    
     9    5    6 1    
    10    5   25 1    
    11    5   66 1    
    12    6    7 1    
    13    6   67 1    
    14    6   68 1    
    15    7    8 1    
    16    8    9 1    
    17    8   69 1    
    18    8   70 1    
    19    9   10 ar   
    20    9   14 ar   
    21   10   11 ar   
    22   10   71 1    
    23   11   12 ar   
    24   11   61 1    
    25   12   13 ar   
    26   12   72 1    
    27   13   14 ar   
    28   13   15 1    
    29   14   73 1    
    30   15   16 1    
    31   15   74 1    
    32   15   75 1    
    33   16   17 1    
    34   17   18 1    
    35   17   76 1    
    36   17   77 1    
    37   18   19 1    
    38   18   27 1    
    39   18   78 1    
    40   19   20 am   BACKBONE|DICT|INTERRES
    41   19   79 1    
    42   20   21 2    
    43   20   22 1    
    44   22   23 1    
    45   22   24 1    
    46   22   80 1    
    47   23   81 1    
    48   23   82 1    
    49   23   83 1    
    50   24   25 am   BACKBONE|DICT|INTERRES
    51   24   84 1    
    52   25   26 2    
    53   27   28 2    
    54   27   29 am   BACKBONE|DICT|INTERRES
    55   29   30 1    
    56   29   85 1    
    57   30   31 1    
    58   30   32 1    
    59   30   86 1    
    60   31   87 1    
    61   31   88 1    
    62   31   89 1    
    63   32   33 2    
    64   32   34 am   BACKBONE|DICT|INTERRES
    65   34   35 1    
    66   34   90 1    
    67   35   36 1    
    68   35   37 1    
    69   35   91 1    
    70   36   92 1    
    71   36   93 1    
    72   36   94 1    
    73   37   38 2    
    74   37   39 am   BACKBONE|DICT|INTERRES
    75   39   40 1    
    76   39   95 1    
    77   40   41 1    
    78   40   42 1    
    79   40   96 1    
    80   41   97 1    
    81   41   98 1    
    82   41   99 1    
    83   42   43 2    
    84   42   44 am   BACKBONE|DICT|INTERRES
    85   44   45 1    
    86   44  100 1    
    87   45   46 1    
    88   45   47 1    
    89   45  101 1    
    90   46  102 1    
    91   46  103 1    
    92   46  104 1    
    93   47   48 2    
    94   47   49 am   BACKBONE|DICT|INTERRES
    95   49   50 1    
    96   49  105 1    
    97   50   51 1    
    98   50   52 1    
    99   50  106 1    
   100   51  107 1    
   101   51  108 1    
   102   51  109 1    
   103   52   53 2    
   104   52   54 am   BACKBONE|DICT|INTERRES
   105   54   55 1    
   106   54  110 1    
   107   55   56 1    
   108   55   59 1    
   109   55  111 1    
   110   56   57 am   BACKBONE|DICT|INTERRES
   111   56   58 2    
   112   57  112 1    
   113   57  113 1    
   114   59   60 1    
   115   59  114 1    
   116   59  115 1    
   117   60   61 1    
   118   61  116 1    
   119   61  117 1    
@<TRIPOS>SUBSTRUCTURE
     1 UNK         1 GROUP             0       ****    0 ROOT    
