@<TRIPOS>MOLECULE
3R8
117   119    1
SMALL
USER_CHARGES


@<TRIPOS>ATOM
      1 CA         11.7053  -26.3565  -44.4093 C.3       0 UNK        -0.2013 
      2 C          13.1692  -25.9573  -44.5218 C.2       0 UNK         0.4866 
      3 O          13.5406  -24.8628  -44.0964 O.2       0 UNK        -0.5176 
      4 N          14.0014  -26.8314  -45.0999 N.am      1 UNK        -0.4884 
      5 CA         15.4520  -26.6564  -45.2197 C.3       1 UNK         0.0853 
      6 C6         16.0515  -27.5797  -46.3125 C.3       10 UNK        -0.0849 
      7 S7         15.6682  -29.3532  -46.0804 S.3       10 UNK        -0.2776 
      8 C8         17.1525  -30.1540  -46.7654 C.3       10 UNK         0.0316 
      9 C9         18.4018  -29.9313  -45.9206 C.ar      10 UNK        -0.0863 
     10 C10        18.4824  -30.4447  -44.6221 C.ar      10 UNK        -0.1009 
     11 C11        19.6606  -30.3182  -43.8785 C.ar      10 UNK        -0.0712 
     12 C12        20.7660  -29.6771  -44.4441 C.ar      10 UNK        -0.0894 
     13 C13        20.6874  -29.1332  -45.7296 C.ar      10 UNK        -0.0745 
     14 C14        19.5034  -29.2619  -46.4614 C.ar      10 UNK        -0.0972 
     15 C15        21.8866  -28.4327  -46.3487 C.3       10 UNK         0.0209 
     16 S16        21.8458  -26.6390  -46.0438 S.3       10 UNK        -0.2568 
     17 C17        22.5552  -26.5481  -44.3680 C.3       10 UNK        -0.0983 
     18 CA         21.7476  -25.6361  -43.4145 C.3       3 UNK         0.0876 
     19 N          20.3878  -26.1412  -43.1984 N.am      3 UNK        -0.4424 
     20 C          19.3737  -25.3941  -42.7523 C.2       2 UNK         0.4918 
     21 O          19.4269  -24.1696  -42.6196 O.2       2 UNK        -0.4875 
     22 CA         18.0691  -26.1329  -42.4444 C.3       2 UNK         0.0481 
     23 CB         17.3369  -25.5216  -41.2310 C.3       2 UNK        -0.1831 
     24 N          17.2354  -26.0870  -43.6406 N.am      2 UNK        -0.4498 
     25 C          16.1520  -26.8414  -43.8556 C.2       1 UNK         0.5027 
     26 O          15.7114  -27.6588  -43.0419 O.2       1 UNK        -0.4969 
     27 C          22.4886  -25.4702  -42.0684 C.2       3 UNK         0.5005 
     28 O          22.0251  -25.9549  -41.0335 O.2       3 UNK        -0.5279 
     29 N          23.6526  -24.8079  -42.1081 N.am      4 UNK        -0.4463 
     30 CA         24.5386  -24.6222  -40.9529 C.3       4 UNK         0.0283 
     31 CB         25.5270  -23.4845  -41.2603 C.3       4 UNK        -0.1875 
     32 C          25.3027  -25.8968  -40.5375 C.2       4 UNK         0.4949 
     33 O          25.8405  -25.9336  -39.4304 O.2       4 UNK        -0.5039 
     34 N          25.3633  -26.8981  -41.4233 N.am      5 UNK        -0.4663 
     35 CA         26.0475  -28.1758  -41.2410 C.3       5 UNK         0.0242 
     36 CB         27.5706  -27.9788  -41.4024 C.3       5 UNK        -0.1982 
     37 C          25.4977  -29.1873  -42.2603 C.2       5 UNK         0.5017 
     38 O          24.6600  -28.8178  -43.0863 O.2       5 UNK        -0.5012 
     39 N          26.0220  -30.4200  -42.1983 N.am      6 UNK        -0.4439 
     40 CA         25.7407  -31.5901  -43.0428 C.3       6 UNK         0.0297 
     41 CB         25.8358  -31.2638  -44.5479 C.3       6 UNK        -0.2006 
     42 C          24.4112  -32.2854  -42.7062 C.2       6 UNK         0.4892 
     43 O          23.4415  -31.6381  -42.3079 O.2       6 UNK        -0.5089 
     44 N          24.4031  -33.6153  -42.8839 N.am      7 UNK        -0.4243 
     45 CA         23.3022  -34.5381  -42.5816 C.3       7 UNK         0.0196 
     46 CB         22.1527  -34.3554  -43.6010 C.3       7 UNK        -0.2007 
     47 C          22.8696  -34.4334  -41.1042 C.2       7 UNK         0.5020 
     48 O          23.7313  -34.4124  -40.2232 O.2       7 UNK        -0.5147 
     49 N          21.5585  -34.3414  -40.8507 N.am      8 UNK        -0.4734 
     50 CA         20.9799  -34.1273  -39.5196 C.3       8 UNK         0.0238 
     51 CB         19.4797  -34.4623  -39.5738 C.3       8 UNK        -0.1912 
     52 C          21.1905  -32.7013  -38.9712 C.2       8 UNK         0.5038 
     53 O          20.9632  -32.4819  -37.7807 O.2       8 UNK        -0.5046 
     54 N          21.5955  -31.7647  -39.8374 N.am      9 UNK        -0.4200 
     55 CA         21.8147  -30.3470  -39.5225 C.3       9 UNK         0.0839 
     56 C          23.2573  -30.0397  -39.0277 C.2       9 UNK         0.5513 
     57 N          24.1779  -30.9979  -39.0041 N.am      9 UNK        -0.7519 
     58 O          23.5410  -28.9141  -38.6297 O.2       9 UNK        -0.4960 
     59 C59        21.4045  -29.4336  -40.7096 C.3       10 UNK        -0.0876 
     60 S60        19.6504  -29.6394  -41.1835 S.3       10 UNK        -0.2414 
     61 C61        19.7511  -30.9130  -42.4824 C.3       10 UNK         0.0169 
     62 H62        11.5171  -27.3410  -44.8373 H         1 UNK         0.0903 
     63 H63        11.4022  -26.3782  -43.3628 H         1 UNK         0.0903 
     64 H64        11.0780  -25.6344  -44.9313 H         1 UNK         0.0903 
     65 H65        13.6577  -27.7346  -45.3958 H         1 UNK         0.3096 
     66 H66        15.6254  -25.6248  -45.5357 H         1 UNK         0.1121 
     67 H67        15.6655  -27.2830  -47.2890 H         1 UNK         0.0849 
     68 H68        17.1321  -27.4384  -46.3727 H         1 UNK         0.0849 
     69 H69        16.9672  -31.2267  -46.8368 H         1 UNK         0.0865 
     70 H70        17.3031  -29.8059  -47.7886 H         1 UNK         0.0865 
     71 H71        17.6302  -30.9594  -44.1994 H         1 UNK         0.1346 
     72 H72        21.6887  -29.6106  -43.8842 H         1 UNK         0.1412 
     73 H73        19.4507  -28.8587  -47.4638 H         1 UNK         0.1426 
     74 H74        21.8953  -28.6030  -47.4263 H         1 UNK         0.0716 
     75 H75        22.8192  -28.8556  -45.9703 H         1 UNK         0.0716 
     76 H76        22.6279  -27.5480  -43.9442 H         1 UNK         0.0695 
     77 H77        23.5816  -26.1949  -44.4811 H         1 UNK         0.0695 
     78 H78        21.6773  -24.6448  -43.8686 H         1 UNK         0.0983 
     79 H79        20.2614  -27.1385  -43.2913 H         1 UNK         0.3095 
     80 H80        18.3059  -27.1743  -42.2192 H         1 UNK         0.0454 
     81 H81        17.9963  -25.4757  -40.3634 H         1 UNK         0.0851 
     82 H82        16.9928  -24.5070  -41.4349 H         1 UNK         0.0851 
     83 H83        16.4704  -26.1160  -40.9425 H         1 UNK         0.0851 
     84 H84        17.5454  -25.4424  -44.3560 H         1 UNK         0.2976 
     85 H85        23.9742  -24.4300  -42.9885 H         1 UNK         0.3116 
     86 H86        23.9290  -24.3183  -40.0990 H         1 UNK         0.0646 
     87 H87        26.1778  -23.2915  -40.4062 H         1 UNK         0.0847 
     88 H88        25.0062  -22.5531  -41.4830 H         1 UNK         0.0847 
     89 H89        26.1689  -23.7244  -42.1089 H         1 UNK         0.0847 
     90 H90        24.8459  -26.8327  -42.2907 H         1 UNK         0.3040 
     91 H91        25.8269  -28.5521  -40.2398 H         1 UNK         0.1015 
     92 H92        27.9586  -27.2521  -40.6886 H         1 UNK         0.0786 
     93 H93        27.8239  -27.6284  -42.4038 H         1 UNK         0.0786 
     94 H94        28.1168  -28.9070  -41.2327 H         1 UNK         0.0786 
     95 H95        26.6815  -30.5976  -41.4540 H         1 UNK         0.3172 
     96 H96        26.5413  -32.2954  -42.8133 H         1 UNK         0.0595 
     97 H97        26.7645  -30.7457  -44.7867 H         1 UNK         0.0839 
     98 H98        25.0060  -30.6412  -44.8842 H         1 UNK         0.0839 
     99 H99        25.8102  -32.1755  -45.1457 H         1 UNK         0.0839 
    100 H100       25.2595  -34.0552  -43.1913 H         1 UNK         0.2998 
    101 H101       23.6995  -35.5465  -42.7072 H         1 UNK         0.0822 
    102 H102       22.5209  -34.4570  -44.6221 H         1 UNK         0.0787 
    103 H103       21.3780  -35.1121  -43.4713 H         1 UNK         0.0787 
    104 H104       21.6830  -33.3745  -43.5230 H         1 UNK         0.0787 
    105 H105       20.9155  -34.3692  -41.6291 H         1 UNK         0.3055 
    106 H106       21.4615  -34.8142  -38.8196 H         1 UNK         0.1106 
    107 H107       18.9429  -33.8029  -40.2573 H         1 UNK         0.0828 
    108 H108       19.3124  -35.4905  -39.8952 H         1 UNK         0.0828 
    109 H109       19.0193  -34.3549  -38.5906 H         1 UNK         0.0828 
    110 H110       21.8443  -32.0394  -40.7785 H         1 UNK         0.2931 
    111 H111       21.1628  -30.0844  -38.6871 H         1 UNK         0.0412 
    112 H112       25.0963  -30.7942  -38.6446 H         1 UNK         0.3472 
    113 H113       23.9549  -31.9260  -39.3309 H         1 UNK         0.3472 
    114 H114       22.0511  -29.5921  -41.5729 H         1 UNK         0.0970 
    115 H115       21.5375  -28.3887  -40.4296 H         1 UNK         0.0970 
    116 H116       20.6766  -31.4800  -42.3916 H         1 UNK         0.0612 
    117 H117       18.9436  -31.6291  -42.3231 H         1 UNK         0.0612 
@<TRIPOS>BOND
     1    1    2 1    
     2    1   62 1    
     3    1   63 1    
     4    1   64 1    
     5    2    3 2    
     6    2    4 am   BACKBONE|DICT|INTERRES
     7    4    5 1    
     8    4   65 1    
     9    5    6 1    
    10    5   25 1    
    11    5   66 1    
    12    6    7 1    
    13    6   67 1    
    14    6   68 1    
    15    7    8 1    
    16    8    9 1    
    17    8   69 1    
    18    8   70 1    
    19    9   10 ar   
    20    9   14 ar   
    21   10   11 ar   
    22   10   71 1    
    23   11   12 ar   
    24   11   61 1    
    25   12   13 ar   
    26   12   72 1    
    27   13   14 ar   
    28   13   15 1    
    29   14   73 1    
    30   15   16 1    
    31   15   74 1    
    32   15   75 1    
    33   16   17 1    
    34   17   18 1    
    35   17   76 1    
    36   17   77 1    
    37   18   19 1    
    38   18   27 1    
    39   18   78 1    
    40   19   20 am   BACKBONE|DICT|INTERRES
    41   19   79 1    
    42   20   21 2    
    43   20   22 1    
    44   22   23 1    
    45   22   24 1    
    46   22   80 1    
    47   23   81 1    
    48   23   82 1    
    49   23   83 1    
    50   24   25 am   BACKBONE|DICT|INTERRES
    51   24   84 1    
    52   25   26 2    
    53   27   28 2    
    54   27   29 am   BACKBONE|DICT|INTERRES
    55   29   30 1    
    56   29   85 1    
    57   30   31 1    
    58   30   32 1    
    59   30   86 1    
    60   31   87 1    
    61   31   88 1    
    62   31   89 1    
    63   32   33 2    
    64   32   34 am   BACKBONE|DICT|INTERRES
    65   34   35 1    
    66   34   90 1    
    67   35   36 1    
    68   35   37 1    
    69   35   91 1    
    70   36   92 1    
    71   36   93 1    
    72   36   94 1    
    73   37   38 2    
    74   37   39 am   BACKBONE|DICT|INTERRES
    75   39   40 1    
    76   39   95 1    
    77   40   41 1    
    78   40   42 1    
    79   40   96 1    
    80   41   97 1    
    81   41   98 1    
    82   41   99 1    
    83   42   43 2    
    84   42   44 am   BACKBONE|DICT|INTERRES
    85   44   45 1    
    86   44  100 1    
    87   45   46 1    
    88   45   47 1    
    89   45  101 1    
    90   46  102 1    
    91   46  103 1    
    92   46  104 1    
    93   47   48 2    
    94   47   49 am   BACKBONE|DICT|INTERRES
    95   49   50 1    
    96   49  105 1    
    97   50   51 1    
    98   50   52 1    
    99   50  106 1    
   100   51  107 1    
   101   51  108 1    
   102   51  109 1    
   103   52   53 2    
   104   52   54 am   BACKBONE|DICT|INTERRES
   105   54   55 1    
   106   54  110 1    
   107   55   56 1    
   108   55   59 1    
   109   55  111 1    
   110   56   57 am   BACKBONE|DICT|INTERRES
   111   56   58 2    
   112   57  112 1    
   113   57  113 1    
   114   59   60 1    
   115   59  114 1    
   116   59  115 1    
   117   60   61 1    
   118   61  116 1    
   119   61  117 1    
@<TRIPOS>SUBSTRUCTURE
     1 UNK         1 GROUP             0       ****    0 ROOT    
