@<TRIPOS>MOLECULE
3R8
117   119    1
SMALL
USER_CHARGES


@<TRIPOS>ATOM
      1 CA         16.8931  -23.2889  -46.9985 C.3       0 UNK        -0.2013 
      2 C          17.4161  -24.6338  -46.5163 C.2       0 UNK         0.4866 
      3 O          18.1075  -25.3262  -47.2641 O.2       0 UNK        -0.5176 
      4 N          17.0842  -25.0139  -45.2765 N.am      1 UNK        -0.4884 
      5 CA         17.5412  -26.2476  -44.6317 C.3       1 UNK         0.0853 
      6 C6         16.7550  -26.5350  -43.3296 C.3       10 UNK        -0.0849 
      7 S7         15.0344  -27.0722  -43.6105 S.3       10 UNK        -0.2776 
      8 C8         15.2075  -28.6534  -44.5196 C.3       10 UNK         0.0316 
      9 C9         16.3492  -29.5460  -44.0362 C.ar      10 UNK        -0.0863 
     10 C10        17.2535  -30.0812  -44.9604 C.ar      10 UNK        -0.1009 
     11 C11        18.3068  -30.9049  -44.5489 C.ar      10 UNK        -0.0712 
     12 C12        18.4534  -31.1749  -43.1822 C.ar      10 UNK        -0.0894 
     13 C13        17.5523  -30.6586  -42.2468 C.ar      10 UNK        -0.0745 
     14 C14        16.4933  -29.8582  -42.6808 C.ar      10 UNK        -0.0972 
     15 C15        17.7010  -31.0058  -40.7727 C.3       10 UNK         0.0209 
     16 S16        19.3145  -30.5022  -40.0976 S.3       10 UNK        -0.2568 
     17 C17        19.1041  -28.7063  -39.8698 C.3       10 UNK        -0.0983 
     18 CA         20.3206  -27.9263  -40.4254 C.3       3 UNK         0.0876 
     19 N          20.3437  -27.9142  -41.8942 N.am      3 UNK        -0.4424 
     20 C          21.3818  -27.5321  -42.6533 C.2       2 UNK         0.4918 
     21 O          22.4736  -27.2041  -42.1931 O.2       2 UNK        -0.4875 
     22 CA         21.1654  -27.4656  -44.1734 C.3       2 UNK         0.0481 
     23 CB         21.7335  -28.7272  -44.8310 C.3       2 UNK        -0.1831 
     24 N          19.7567  -27.2977  -44.5465 N.am      2 UNK        -0.4498 
     25 C          19.0446  -26.1864  -44.3078 C.2       1 UNK         0.5027 
     26 O          19.5108  -25.1791  -43.7707 O.2       1 UNK        -0.4969 
     27 C          20.4385  -26.5244  -39.7846 C.2       3 UNK         0.5005 
     28 O          20.7080  -26.4418  -38.5855 O.2       3 UNK        -0.5279 
     29 N          20.2940  -25.4496  -40.5759 N.am      4 UNK        -0.4463 
     30 CA         20.6465  -24.0840  -40.1761 C.3       4 UNK         0.0283 
     31 CB         19.9847  -23.0901  -41.1444 C.3       4 UNK        -0.1875 
     32 C          22.1714  -23.8455  -40.1199 C.2       4 UNK         0.4949 
     33 O          22.5934  -22.8357  -39.5554 O.2       4 UNK        -0.5039 
     34 N          22.9648  -24.7518  -40.7076 N.am      5 UNK        -0.4663 
     35 CA         24.4201  -24.6995  -40.7747 C.3       5 UNK         0.0242 
     36 CB         24.8412  -24.1842  -42.1678 C.3       5 UNK        -0.1982 
     37 C          24.9913  -26.0802  -40.4063 C.2       5 UNK         0.5017 
     38 O          24.9326  -26.4587  -39.2359 O.2       5 UNK        -0.5012 
     39 N          25.5598  -26.7901  -41.3905 N.am      6 UNK        -0.4439 
     40 CA         26.3245  -28.0286  -41.2161 C.3       6 UNK         0.0297 
     41 CB         27.1354  -28.2930  -42.4958 C.3       6 UNK        -0.2006 
     42 C          25.5009  -29.2776  -40.8494 C.2       6 UNK         0.4892 
     43 O          26.0791  -30.2075  -40.2846 O.2       6 UNK        -0.5089 
     44 N          24.2010  -29.2968  -41.1853 N.am      7 UNK        -0.4243 
     45 CA         23.2791  -30.4353  -41.0477 C.3       7 UNK         0.0196 
     46 CB         23.0106  -30.7383  -39.5530 C.3       7 UNK        -0.2007 
     47 C          23.7532  -31.6573  -41.8665 C.2       7 UNK         0.5020 
     48 O          24.1371  -31.4882  -43.0248 O.2       7 UNK        -0.5147 
     49 N          23.7225  -32.8511  -41.2538 N.am      8 UNK        -0.4734 
     50 CA         24.2483  -34.1307  -41.7547 C.3       8 UNK         0.0238 
     51 CB         25.7809  -34.0547  -41.9354 C.3       8 UNK        -0.1912 
     52 C          23.5302  -34.6877  -43.0021 C.2       8 UNK         0.5038 
     53 O          24.1485  -35.4144  -43.7829 O.2       8 UNK        -0.5046 
     54 N          22.2371  -34.3728  -43.1553 N.am      9 UNK        -0.4200 
     55 CA         21.3773  -34.8912  -44.2373 C.3       9 UNK         0.0839 
     56 C          20.8783  -36.3497  -44.0186 C.2       9 UNK         0.5513 
     57 N          21.0678  -36.9548  -42.8518 N.am      9 UNK        -0.7519 
     58 O          20.3131  -36.9470  -44.9311 O.2       9 UNK        -0.4960 
     59 C59        20.1919  -33.9409  -44.5496 C.3       10 UNK        -0.0876 
     60 S60        20.7681  -32.2801  -45.0336 S.3       10 UNK        -0.2414 
     61 C61        19.2305  -31.4881  -45.6238 C.3       10 UNK         0.0169 
     62 H62        16.2804  -23.4222  -47.8896 H         1 UNK         0.0903 
     63 H63        16.2869  -22.7915  -46.2416 H         1 UNK         0.0903 
     64 H64        17.7251  -22.6323  -47.2517 H         1 UNK         0.0903 
     65 H65        16.5217  -24.4028  -44.7018 H         1 UNK         0.3096 
     66 H66        17.3852  -27.0658  -45.3368 H         1 UNK         0.1121 
     67 H67        17.2494  -27.2928  -42.7214 H         1 UNK         0.0849 
     68 H68        16.7316  -25.6438  -42.6990 H         1 UNK         0.0849 
     69 H69        14.2716  -29.2074  -44.4360 H         1 UNK         0.0865 
     70 H70        15.3244  -28.4236  -45.5798 H         1 UNK         0.0865 
     71 H71        17.1305  -29.8672  -46.0139 H         1 UNK         0.1346 
     72 H72        19.2608  -31.7950  -42.8242 H         1 UNK         0.1412 
     73 H73        15.7848  -29.4649  -41.9641 H         1 UNK         0.1426 
     74 H74        17.5988  -32.0858  -40.6591 H         1 UNK         0.0716 
     75 H75        16.9044  -30.5588  -40.1757 H         1 UNK         0.0716 
     76 H76        18.1782  -28.3649  -40.3362 H         1 UNK         0.0695 
     77 H77        18.9831  -28.5418  -38.7972 H         1 UNK         0.0695 
     78 H78        21.2239  -28.4435  -40.1009 H         1 UNK         0.0983 
     79 H79        19.4994  -28.2207  -42.3533 H         1 UNK         0.3095 
     80 H80        21.7200  -26.6043  -44.5516 H         1 UNK         0.0454 
     81 H81        22.8069  -28.8119  -44.6539 H         1 UNK         0.0851 
     82 H82        21.2708  -29.6203  -44.4171 H         1 UNK         0.0851 
     83 H83        21.5802  -28.7287  -45.9101 H         1 UNK         0.0851 
     84 H84        19.3062  -28.0914  -44.9798 H         1 UNK         0.2976 
     85 H85        20.0635  -25.5843  -41.5524 H         1 UNK         0.3116 
     86 H86        20.2470  -23.9008  -39.1763 H         1 UNK         0.0646 
     87 H87        20.1602  -22.0615  -40.8268 H         1 UNK         0.0847 
     88 H88        18.9052  -23.2347  -41.1903 H         1 UNK         0.0847 
     89 H89        20.3803  -23.1881  -42.1561 H         1 UNK         0.0847 
     90 H90        22.5492  -25.5782  -41.1263 H         1 UNK         0.3040 
     91 H91        24.8057  -24.0048  -40.0250 H         1 UNK         0.1015 
     92 H92        24.4867  -23.1653  -42.3257 H         1 UNK         0.0786 
     93 H93        24.4350  -24.7975  -42.9734 H         1 UNK         0.0786 
     94 H94        25.9270  -24.1605  -42.2721 H         1 UNK         0.0786 
     95 H95        25.5244  -26.4093  -42.3249 H         1 UNK         0.3172 
     96 H96        27.0319  -27.8639  -40.4004 H         1 UNK         0.0595 
     97 H97        27.7518  -29.1871  -42.3900 H         1 UNK         0.0839 
     98 H98        27.8079  -27.4651  -42.7213 H         1 UNK         0.0839 
     99 H99        26.4868  -28.4477  -43.3593 H         1 UNK         0.0839 
    100 H100       23.8158  -28.4755  -41.6426 H         1 UNK         0.2998 
    101 H101       22.3358  -30.1279  -41.4991 H         1 UNK         0.0822 
    102 H102       22.7293  -29.8364  -39.0103 H         1 UNK         0.0787 
    103 H103       22.1915  -31.4479  -39.4319 H         1 UNK         0.0787 
    104 H104       23.8871  -31.1516  -39.0524 H         1 UNK         0.0787 
    105 H105       23.3730  -32.8703  -40.3052 H         1 UNK         0.3055 
    106 H106       24.0569  -34.8602  -40.9660 H         1 UNK         0.1106 
    107 H107       26.0583  -33.4020  -42.7637 H         1 UNK         0.0828 
    108 H108       26.2689  -33.6789  -41.0360 H         1 UNK         0.0828 
    109 H109       26.2028  -35.0389  -42.1428 H         1 UNK         0.0828 
    110 H110       21.8008  -33.7632  -42.4809 H         1 UNK         0.2931 
    111 H111       21.9879  -34.9319  -45.1418 H         1 UNK         0.0412 
    112 H112       21.5283  -36.4773  -42.0942 H         1 UNK         0.3472 
    113 H113       20.7423  -37.9010  -42.7283 H         1 UNK         0.3472 
    114 H114       19.5928  -34.3389  -45.3711 H         1 UNK         0.0970 
    115 H115       19.5219  -33.8688  -43.6924 H         1 UNK         0.0970 
    116 H116       18.6688  -32.2033  -46.2259 H         1 UNK         0.0612 
    117 H117       19.5228  -30.6839  -46.3004 H         1 UNK         0.0612 
@<TRIPOS>BOND
     1    1    2 1    
     2    1   62 1    
     3    1   63 1    
     4    1   64 1    
     5    2    3 2    
     6    2    4 am   BACKBONE|DICT|INTERRES
     7    4    5 1    
     8    4   65 1    
     9    5    6 1    
    10    5   25 1    
    11    5   66 1    
    12    6    7 1    
    13    6   67 1    
    14    6   68 1    
    15    7    8 1    
    16    8    9 1    
    17    8   69 1    
    18    8   70 1    
    19    9   10 ar   
    20    9   14 ar   
    21   10   11 ar   
    22   10   71 1    
    23   11   12 ar   
    24   11   61 1    
    25   12   13 ar   
    26   12   72 1    
    27   13   14 ar   
    28   13   15 1    
    29   14   73 1    
    30   15   16 1    
    31   15   74 1    
    32   15   75 1    
    33   16   17 1    
    34   17   18 1    
    35   17   76 1    
    36   17   77 1    
    37   18   19 1    
    38   18   27 1    
    39   18   78 1    
    40   19   20 am   BACKBONE|DICT|INTERRES
    41   19   79 1    
    42   20   21 2    
    43   20   22 1    
    44   22   23 1    
    45   22   24 1    
    46   22   80 1    
    47   23   81 1    
    48   23   82 1    
    49   23   83 1    
    50   24   25 am   BACKBONE|DICT|INTERRES
    51   24   84 1    
    52   25   26 2    
    53   27   28 2    
    54   27   29 am   BACKBONE|DICT|INTERRES
    55   29   30 1    
    56   29   85 1    
    57   30   31 1    
    58   30   32 1    
    59   30   86 1    
    60   31   87 1    
    61   31   88 1    
    62   31   89 1    
    63   32   33 2    
    64   32   34 am   BACKBONE|DICT|INTERRES
    65   34   35 1    
    66   34   90 1    
    67   35   36 1    
    68   35   37 1    
    69   35   91 1    
    70   36   92 1    
    71   36   93 1    
    72   36   94 1    
    73   37   38 2    
    74   37   39 am   BACKBONE|DICT|INTERRES
    75   39   40 1    
    76   39   95 1    
    77   40   41 1    
    78   40   42 1    
    79   40   96 1    
    80   41   97 1    
    81   41   98 1    
    82   41   99 1    
    83   42   43 2    
    84   42   44 am   BACKBONE|DICT|INTERRES
    85   44   45 1    
    86   44  100 1    
    87   45   46 1    
    88   45   47 1    
    89   45  101 1    
    90   46  102 1    
    91   46  103 1    
    92   46  104 1    
    93   47   48 2    
    94   47   49 am   BACKBONE|DICT|INTERRES
    95   49   50 1    
    96   49  105 1    
    97   50   51 1    
    98   50   52 1    
    99   50  106 1    
   100   51  107 1    
   101   51  108 1    
   102   51  109 1    
   103   52   53 2    
   104   52   54 am   BACKBONE|DICT|INTERRES
   105   54   55 1    
   106   54  110 1    
   107   55   56 1    
   108   55   59 1    
   109   55  111 1    
   110   56   57 am   BACKBONE|DICT|INTERRES
   111   56   58 2    
   112   57  112 1    
   113   57  113 1    
   114   59   60 1    
   115   59  114 1    
   116   59  115 1    
   117   60   61 1    
   118   61  116 1    
   119   61  117 1    
@<TRIPOS>SUBSTRUCTURE
     1 UNK         1 GROUP             0       ****    0 ROOT    
