@<TRIPOS>MOLECULE
3R8
117   119    1
SMALL
USER_CHARGES


@<TRIPOS>ATOM
      1 CA         19.5342  -25.8491  -48.8334 C.3       0 UNK        -0.2013 
      2 C          19.2752  -26.7765  -47.6556 C.2       0 UNK         0.4866 
      3 O          19.8151  -27.8825  -47.6165 O.2       0 UNK        -0.5176 
      4 N          18.4477  -26.3391  -46.6984 N.am      1 UNK        -0.4884 
      5 CA         18.1230  -27.0746  -45.4733 C.3       1 UNK         0.0853 
      6 C6         16.8176  -26.5567  -44.8226 C.3       10 UNK        -0.0849 
      7 S7         15.3812  -27.1811  -45.7631 S.3       10 UNK        -0.2776 
      8 C8         14.6109  -28.4059  -44.6448 C.3       10 UNK         0.0316 
      9 C9         15.6052  -29.2379  -43.8392 C.ar      10 UNK        -0.0863 
     10 C10        16.4784  -30.1335  -44.4682 C.ar      10 UNK        -0.1009 
     11 C11        17.3879  -30.8914  -43.7197 C.ar      10 UNK        -0.0712 
     12 C12        17.4031  -30.7468  -42.3260 C.ar      10 UNK        -0.0894 
     13 C13        16.5171  -29.8785  -41.6825 C.ar      10 UNK        -0.0745 
     14 C14        15.6293  -29.1197  -42.4465 C.ar      10 UNK        -0.0972 
     15 C15        16.4617  -29.8111  -40.1609 C.3       10 UNK         0.0209 
     16 S16        18.0850  -29.5327  -39.3882 S.3       10 UNK        -0.2568 
     17 C17        18.3623  -27.7612  -39.7078 C.3       10 UNK        -0.0983 
     18 CA         19.8092  -27.5123  -40.1920 C.3       3 UNK         0.0876 
     19 N          20.0289  -27.9929  -41.5619 N.am      3 UNK        -0.4424 
     20 C          21.2314  -28.0661  -42.1494 C.2       2 UNK         0.4918 
     21 O          22.2828  -27.8611  -41.5458 O.2       2 UNK        -0.4875 
     22 CA         21.2812  -28.3299  -43.6668 C.3       2 UNK         0.0481 
     23 CB         21.8370  -29.7264  -43.9659 C.3       2 UNK        -0.1831 
     24 N          20.0101  -28.1685  -44.3779 N.am      2 UNK        -0.4498 
     25 C          19.3184  -27.0286  -44.5069 C.2       1 UNK         0.5027 
     26 O          19.5962  -25.9813  -43.9194 O.2       1 UNK        -0.4969 
     27 C          20.2286  -26.0366  -39.9900 C.2       3 UNK         0.5005 
     28 O          20.4636  -25.6376  -38.8474 O.2       3 UNK        -0.5279 
     29 N          20.3913  -25.2636  -41.0767 N.am      4 UNK        -0.4463 
     30 CA         21.0288  -23.9440  -41.0917 C.3       4 UNK         0.0283 
     31 CB         20.6224  -23.2067  -42.3811 C.3       4 UNK        -0.1875 
     32 C          22.5636  -24.0380  -40.9214 C.2       4 UNK         0.4949 
     33 O          23.3112  -23.6041  -41.7990 O.2       4 UNK        -0.5039 
     34 N          22.9933  -24.5933  -39.7798 N.am      5 UNK        -0.4663 
     35 CA         24.3712  -24.7044  -39.2848 C.3       5 UNK         0.0242 
     36 CB         24.9255  -23.3054  -38.9363 C.3       5 UNK        -0.1982 
     37 C          25.3229  -25.5181  -40.1883 C.2       5 UNK         0.5017 
     38 O          26.4748  -25.1181  -40.3732 O.2       5 UNK        -0.5012 
     39 N          24.8484  -26.6572  -40.7069 N.am      6 UNK        -0.4439 
     40 CA         25.6461  -27.6454  -41.4366 C.3       6 UNK         0.0297 
     41 CB         25.3467  -27.5405  -42.9465 C.3       6 UNK        -0.2006 
     42 C          25.4044  -29.0499  -40.8476 C.2       6 UNK         0.4892 
     43 O          25.0099  -29.1680  -39.6841 O.2       6 UNK        -0.5089 
     44 N          25.7030  -30.0892  -41.6384 N.am      7 UNK        -0.4243 
     45 CA         25.5850  -31.5059  -41.2763 C.3       7 UNK         0.0196 
     46 CB         26.3803  -32.3300  -42.3060 C.3       7 UNK        -0.2007 
     47 C          24.1254  -31.9944  -41.2013 C.2       7 UNK         0.5020 
     48 O          23.2011  -31.2731  -41.5759 O.2       7 UNK        -0.5147 
     49 N          23.9357  -33.2483  -40.7697 N.am      8 UNK        -0.4734 
     50 CA         22.6389  -33.9365  -40.7059 C.3       8 UNK         0.0238 
     51 CB         22.7486  -35.1123  -39.7165 C.3       8 UNK        -0.1912 
     52 C          22.1365  -34.3785  -42.0988 C.2       8 UNK         0.5038 
     53 O          21.9679  -35.5740  -42.3458 O.2       8 UNK        -0.5046 
     54 N          21.9346  -33.3964  -42.9851 N.am      9 UNK        -0.4200 
     55 CA         21.4819  -33.5280  -44.3827 C.3       9 UNK         0.0839 
     56 C          22.5063  -34.2087  -45.3407 C.2       9 UNK         0.5513 
     57 N          23.7679  -34.3671  -44.9584 N.am      9 UNK        -0.7519 
     58 O          22.1632  -34.5696  -46.4636 O.2       9 UNK        -0.4960 
     59 C59        20.0467  -34.1168  -44.5297 C.3       10 UNK        -0.0876 
     60 S60        18.8031  -33.3171  -43.4592 S.3       10 UNK        -0.2414 
     61 C61        18.3504  -31.8415  -44.4368 C.3       10 UNK         0.0169 
     62 H62        20.5966  -25.6163  -48.9005 H         1 UNK         0.0903 
     63 H63        18.9864  -24.9113  -48.7430 H         1 UNK         0.0903 
     64 H64        19.2313  -26.3303  -49.7629 H         1 UNK         0.0903 
     65 H65        18.0410  -25.4176  -46.7751 H         1 UNK         0.3096 
     66 H66        17.9677  -28.1203  -45.7469 H         1 UNK         0.1121 
     67 H67        16.7933  -25.4655  -44.8122 H         1 UNK         0.0849 
     68 H68        16.7385  -26.8570  -43.7772 H         1 UNK         0.0849 
     69 H69        13.9300  -27.8742  -43.9781 H         1 UNK         0.0865 
     70 H70        13.9847  -29.0752  -45.2363 H         1 UNK         0.0865 
     71 H71        16.4520  -30.2319  -45.5452 H         1 UNK         0.1346 
     72 H72        18.0929  -31.3241  -41.7266 H         1 UNK         0.1412 
     73 H73        14.9397  -28.4482  -41.9528 H         1 UNK         0.1426 
     74 H74        15.7709  -29.0367  -39.8236 H         1 UNK         0.0716 
     75 H75        16.0628  -30.7568  -39.7919 H         1 UNK         0.0716 
     76 H76        18.1624  -27.2360  -38.7715 H         1 UNK         0.0695 
     77 H77        17.6399  -27.3821  -40.4330 H         1 UNK         0.0695 
     78 H78        20.4800  -28.0852  -39.5470 H         1 UNK         0.0983 
     79 H79        19.2063  -28.1978  -42.1086 H         1 UNK         0.3095 
     80 H80        21.9715  -27.5983  -44.0914 H         1 UNK         0.0454 
     81 H81        21.8371  -29.9435  -45.0341 H         1 UNK         0.0851 
     82 H82        21.2599  -30.4979  -43.4562 H         1 UNK         0.0851 
     83 H83        22.8696  -29.8074  -43.6273 H         1 UNK         0.0851 
     84 H84        19.7098  -28.9635  -44.9228 H         1 UNK         0.2976 
     85 H85        20.1774  -25.6582  -41.9877 H         1 UNK         0.3116 
     86 H86        20.6455  -23.3652  -40.2487 H         1 UNK         0.0646 
     87 H87        19.5390  -23.1248  -42.4686 H         1 UNK         0.0847 
     88 H88        21.0263  -22.1937  -42.3957 H         1 UNK         0.0847 
     89 H89        20.9917  -23.7174  -43.2714 H         1 UNK         0.0847 
     90 H90        22.2708  -24.9522  -39.1603 H         1 UNK         0.3040 
     91 H91        24.3087  -25.2667  -38.3517 H         1 UNK         0.1015 
     92 H92        25.0599  -22.6909  -39.8272 H         1 UNK         0.0786 
     93 H93        25.8952  -23.3784  -38.4420 H         1 UNK         0.0786 
     94 H94        24.2596  -22.7719  -38.2580 H         1 UNK         0.0786 
     95 H95        23.8880  -26.9350  -40.5311 H         1 UNK         0.3172 
     96 H96        26.7091  -27.4436  -41.2907 H         1 UNK         0.0595 
     97 H97        26.0442  -28.1349  -43.5369 H         1 UNK         0.0839 
     98 H98        25.4392  -26.5111  -43.2935 H         1 UNK         0.0839 
     99 H99        24.3394  -27.8782  -43.1852 H         1 UNK         0.0839 
    100 H100       25.9977  -29.8954  -42.5835 H         1 UNK         0.2998 
    101 H101       26.0338  -31.6439  -40.2903 H         1 UNK         0.0822 
    102 H102       27.4190  -32.0024  -42.3578 H         1 UNK         0.0787 
    103 H103       26.3967  -33.3893  -42.0474 H         1 UNK         0.0787 
    104 H104       25.9532  -32.2452  -43.3064 H         1 UNK         0.0787 
    105 H105       24.7434  -33.7950  -40.5062 H         1 UNK         0.3055 
    106 H106       21.8953  -33.2409  -40.3090 H         1 UNK         0.1106 
    107 H107       23.0350  -34.7694  -38.7221 H         1 UNK         0.0828 
    108 H108       21.7926  -35.6278  -39.6150 H         1 UNK         0.0828 
    109 H109       23.4833  -35.8495  -40.0428 H         1 UNK         0.0828 
    110 H110       22.1688  -32.4566  -42.6783 H         1 UNK         0.2931 
    111 H111       21.4315  -32.5043  -44.7505 H         1 UNK         0.0412 
    112 H112       24.0619  -34.0803  -44.0396 H         1 UNK         0.3472 
    113 H113       24.4246  -34.7983  -45.5900 H         1 UNK         0.3472 
    114 H114       19.7060  -34.0460  -45.5643 H         1 UNK         0.0970 
    115 H115       20.0549  -35.1818  -44.2922 H         1 UNK         0.0970 
    116 H116       19.2551  -31.2904  -44.6917 H         1 UNK         0.0612 
    117 H117       17.9109  -32.1769  -45.3775 H         1 UNK         0.0612 
@<TRIPOS>BOND
     1    1    2 1    
     2    1   62 1    
     3    1   63 1    
     4    1   64 1    
     5    2    3 2    
     6    2    4 am   BACKBONE|DICT|INTERRES
     7    4    5 1    
     8    4   65 1    
     9    5    6 1    
    10    5   25 1    
    11    5   66 1    
    12    6    7 1    
    13    6   67 1    
    14    6   68 1    
    15    7    8 1    
    16    8    9 1    
    17    8   69 1    
    18    8   70 1    
    19    9   10 ar   
    20    9   14 ar   
    21   10   11 ar   
    22   10   71 1    
    23   11   12 ar   
    24   11   61 1    
    25   12   13 ar   
    26   12   72 1    
    27   13   14 ar   
    28   13   15 1    
    29   14   73 1    
    30   15   16 1    
    31   15   74 1    
    32   15   75 1    
    33   16   17 1    
    34   17   18 1    
    35   17   76 1    
    36   17   77 1    
    37   18   19 1    
    38   18   27 1    
    39   18   78 1    
    40   19   20 am   BACKBONE|DICT|INTERRES
    41   19   79 1    
    42   20   21 2    
    43   20   22 1    
    44   22   23 1    
    45   22   24 1    
    46   22   80 1    
    47   23   81 1    
    48   23   82 1    
    49   23   83 1    
    50   24   25 am   BACKBONE|DICT|INTERRES
    51   24   84 1    
    52   25   26 2    
    53   27   28 2    
    54   27   29 am   BACKBONE|DICT|INTERRES
    55   29   30 1    
    56   29   85 1    
    57   30   31 1    
    58   30   32 1    
    59   30   86 1    
    60   31   87 1    
    61   31   88 1    
    62   31   89 1    
    63   32   33 2    
    64   32   34 am   BACKBONE|DICT|INTERRES
    65   34   35 1    
    66   34   90 1    
    67   35   36 1    
    68   35   37 1    
    69   35   91 1    
    70   36   92 1    
    71   36   93 1    
    72   36   94 1    
    73   37   38 2    
    74   37   39 am   BACKBONE|DICT|INTERRES
    75   39   40 1    
    76   39   95 1    
    77   40   41 1    
    78   40   42 1    
    79   40   96 1    
    80   41   97 1    
    81   41   98 1    
    82   41   99 1    
    83   42   43 2    
    84   42   44 am   BACKBONE|DICT|INTERRES
    85   44   45 1    
    86   44  100 1    
    87   45   46 1    
    88   45   47 1    
    89   45  101 1    
    90   46  102 1    
    91   46  103 1    
    92   46  104 1    
    93   47   48 2    
    94   47   49 am   BACKBONE|DICT|INTERRES
    95   49   50 1    
    96   49  105 1    
    97   50   51 1    
    98   50   52 1    
    99   50  106 1    
   100   51  107 1    
   101   51  108 1    
   102   51  109 1    
   103   52   53 2    
   104   52   54 am   BACKBONE|DICT|INTERRES
   105   54   55 1    
   106   54  110 1    
   107   55   56 1    
   108   55   59 1    
   109   55  111 1    
   110   56   57 am   BACKBONE|DICT|INTERRES
   111   56   58 2    
   112   57  112 1    
   113   57  113 1    
   114   59   60 1    
   115   59  114 1    
   116   59  115 1    
   117   60   61 1    
   118   61  116 1    
   119   61  117 1    
@<TRIPOS>SUBSTRUCTURE
     1 UNK         1 GROUP             0       ****    0 ROOT    
