@<TRIPOS>MOLECULE
3R8
117   119    1
SMALL
USER_CHARGES


@<TRIPOS>ATOM
      1 CA         15.1910  -21.7997  -45.2202 C.3       0 UNK        -0.2013 
      2 C          15.8760  -23.0331  -45.7896 C.2       0 UNK         0.4866 
      3 O          16.1078  -23.1004  -46.9968 O.2       0 UNK        -0.5176 
      4 N          16.1954  -24.0102  -44.9301 N.am      1 UNK        -0.4884 
      5 CA         16.8663  -25.2653  -45.2925 C.3       1 UNK         0.0853 
      6 C6         16.8450  -26.2822  -44.1193 C.3       10 UNK        -0.0849 
      7 S7         15.3356  -27.3058  -44.1297 S.3       10 UNK        -0.2776 
      8 C8         15.7006  -28.5639  -42.8462 C.3       10 UNK         0.0316 
      9 C9         16.9844  -29.3729  -43.0547 C.ar      10 UNK        -0.0863 
     10 C10        17.6686  -29.8647  -41.9365 C.ar      10 UNK        -0.1009 
     11 C11        18.8761  -30.5555  -42.0842 C.ar      10 UNK        -0.0712 
     12 C12        19.4013  -30.7593  -43.3615 C.ar      10 UNK        -0.0894 
     13 C13        18.7282  -30.2828  -44.4869 C.ar      10 UNK        -0.0745 
     14 C14        17.5064  -29.6225  -44.3304 C.ar      10 UNK        -0.0972 
     15 C15        19.3296  -30.4467  -45.8723 C.3       10 UNK         0.0209 
     16 S16        19.9104  -28.8514  -46.5341 S.3       10 UNK        -0.2568 
     17 C17        21.5830  -28.6679  -45.8177 C.3       10 UNK        -0.0983 
     18 CA         21.7684  -27.4943  -44.8112 C.3       3 UNK         0.0876 
     19 N          21.1180  -26.2508  -45.2499 N.am      3 UNK        -0.4424 
     20 C          21.4254  -25.0128  -44.8399 C.2       2 UNK         0.4918 
     21 O          22.3616  -24.7683  -44.0791 O.2       2 UNK        -0.4875 
     22 CA         20.4952  -23.8631  -45.2791 C.3       2 UNK         0.0481 
     23 CB         20.8316  -23.3796  -46.7030 C.3       2 UNK        -0.1831 
     24 N          19.0603  -24.1585  -45.1138 N.am      2 UNK        -0.4498 
     25 C          18.3111  -25.0472  -45.7859 C.2       1 UNK         0.5027 
     26 O          18.7289  -25.7158  -46.7303 O.2       1 UNK        -0.4969 
     27 C          21.4398  -27.8893  -43.3514 C.2       3 UNK         0.5005 
     28 O          21.9991  -28.8686  -42.8617 O.2       3 UNK        -0.5279 
     29 N          20.5934  -27.1074  -42.6610 N.am      4 UNK        -0.4463 
     30 CA         20.2510  -27.2571  -41.2423 C.3       4 UNK         0.0283 
     31 CB         19.0691  -26.3376  -40.8990 C.3       4 UNK        -0.1875 
     32 C          21.4198  -27.0343  -40.2653 C.2       4 UNK         0.4949 
     33 O          21.3188  -27.4480  -39.1090 O.2       4 UNK        -0.5039 
     34 N          22.5086  -26.4037  -40.7259 N.am      5 UNK        -0.4663 
     35 CA         23.7570  -26.2104  -39.9846 C.3       5 UNK         0.0242 
     36 CB         24.5632  -25.0899  -40.6678 C.3       5 UNK        -0.1982 
     37 C          24.5542  -27.5270  -39.8641 C.2       5 UNK         0.5017 
     38 O          25.6190  -27.6575  -40.4708 O.2       5 UNK        -0.5012 
     39 N          24.0046  -28.4780  -39.0940 N.am      6 UNK        -0.4439 
     40 CA         24.4650  -29.8557  -38.8922 C.3       6 UNK         0.0297 
     41 CB         25.8390  -29.9019  -38.1854 C.3       6 UNK        -0.2006 
     42 C          24.4008  -30.6485  -40.2092 C.2       6 UNK         0.4892 
     43 O          23.3072  -31.0682  -40.5882 O.2       6 UNK        -0.5089 
     44 N          25.5540  -30.8293  -40.8720 N.am      7 UNK        -0.4243 
     45 CA         25.7396  -31.4583  -42.1848 C.3       7 UNK         0.0196 
     46 CB         25.2817  -30.4890  -43.2986 C.3       7 UNK        -0.2007 
     47 C          25.0889  -32.8527  -42.2597 C.2       7 UNK         0.5020 
     48 O          25.5349  -33.7612  -41.5575 O.2       7 UNK        -0.5147 
     49 N          24.0347  -32.9927  -43.0748 N.am      8 UNK        -0.4734 
     50 CA         23.2553  -34.2212  -43.2548 C.3       8 UNK         0.0238 
     51 CB         22.2445  -34.0130  -44.3948 C.3       8 UNK        -0.1912 
     52 C          22.5373  -34.7111  -41.9829 C.2       8 UNK         0.5038 
     53 O          22.2624  -35.9081  -41.8852 O.2       8 UNK        -0.5046 
     54 N          22.2603  -33.8011  -41.0396 N.am      9 UNK        -0.4200 
     55 CA         21.6908  -34.1155  -39.7203 C.3       9 UNK         0.0839 
     56 C          22.7721  -34.4101  -38.6393 C.2       9 UNK         0.5513 
     57 N          24.0650  -34.3673  -38.9443 N.am      9 UNK        -0.7519 
     58 O          22.4300  -34.6990  -37.4955 O.2       9 UNK        -0.4960 
     59 C59        20.6883  -33.0315  -39.2413 C.3       10 UNK        -0.0876 
     60 S60        19.3361  -32.7379  -40.4356 S.3       10 UNK        -0.2414 
     61 C61        19.6677  -31.0064  -40.8673 C.3       10 UNK         0.0169 
     62 H62        15.0426  -21.8747  -44.1431 H         1 UNK         0.0903 
     63 H63        15.7913  -20.9122  -45.4186 H         1 UNK         0.0903 
     64 H64        14.2161  -21.6630  -45.6876 H         1 UNK         0.0903 
     65 H65        15.9498  -23.9070  -43.9554 H         1 UNK         0.3096 
     66 H66        16.3274  -25.6937  -46.1414 H         1 UNK         0.1121 
     67 H67        17.7031  -26.9549  -44.1628 H         1 UNK         0.0849 
     68 H68        16.9206  -25.7708  -43.1593 H         1 UNK         0.0849 
     69 H69        15.7380  -28.0556  -41.8813 H         1 UNK         0.0865 
     70 H70        14.8612  -29.2583  -42.7936 H         1 UNK         0.0865 
     71 H71        17.2783  -29.6840  -40.9442 H         1 UNK         0.1346 
     72 H72        20.3559  -31.2543  -43.4713 H         1 UNK         0.1412 
     73 H73        16.9927  -29.2582  -45.2092 H         1 UNK         0.1426 
     74 H74        18.5681  -30.8467  -46.5433 H         1 UNK         0.0716 
     75 H75        20.1451  -31.1716  -45.8706 H         1 UNK         0.0716 
     76 H76        22.2532  -28.5011  -46.6621 H         1 UNK         0.0695 
     77 H77        21.9094  -29.6171  -45.3886 H         1 UNK         0.0695 
     78 H78        22.8407  -27.2867  -44.7888 H         1 UNK         0.0983 
     79 H79        20.3292  -26.3610  -45.8829 H         1 UNK         0.3095 
     80 H80        20.6941  -23.0288  -44.6045 H         1 UNK         0.0454 
     81 H81        20.7107  -24.1669  -47.4474 H         1 UNK         0.0851 
     82 H82        21.8666  -23.0405  -46.7613 H         1 UNK         0.0851 
     83 H83        20.1994  -22.5417  -46.9964 H         1 UNK         0.0851 
     84 H84        18.6067  -23.6586  -44.3612 H         1 UNK         0.2976 
     85 H85        20.1958  -26.3156  -43.1414 H         1 UNK         0.3116 
     86 H86        19.9276  -28.2830  -41.0895 H         1 UNK         0.0646 
     87 H87        18.8341  -26.3803  -39.8344 H         1 UNK         0.0847 
     88 H88        18.1698  -26.6456  -41.4296 H         1 UNK         0.0847 
     89 H89        19.2768  -25.2958  -41.1450 H         1 UNK         0.0847 
     90 H90        22.5114  -26.1125  -41.6935 H         1 UNK         0.3040 
     91 H91        23.5177  -25.8788  -38.9715 H         1 UNK         0.1015 
     92 H92        24.0079  -24.1518  -40.6784 H         1 UNK         0.0786 
     93 H93        24.8127  -25.3420  -41.6996 H         1 UNK         0.0786 
     94 H94        25.5000  -24.9049  -40.1403 H         1 UNK         0.0786 
     95 H95        23.0738  -28.2745  -38.7392 H         1 UNK         0.3172 
     96 H96        23.7421  -30.3234  -38.2218 H         1 UNK         0.0595 
     97 H97        26.6231  -29.3945  -38.7474 H         1 UNK         0.0839 
     98 H98        26.1610  -30.9322  -38.0270 H         1 UNK         0.0839 
     99 H99        25.7859  -29.4309  -37.2039 H         1 UNK         0.0839 
    100 H100       26.3889  -30.4451  -40.4534 H         1 UNK         0.2998 
    101 H101       26.8122  -31.6176  -42.3056 H         1 UNK         0.0822 
    102 H102       24.2228  -30.2429  -43.2187 H         1 UNK         0.0787 
    103 H103       25.8349  -29.5509  -43.2480 H         1 UNK         0.0787 
    104 H104       25.4568  -30.9094  -44.2898 H         1 UNK         0.0787 
    105 H105       23.7195  -32.1761  -43.5785 H         1 UNK         0.3055 
    106 H106       23.9503  -35.0101  -43.5511 H         1 UNK         0.1106 
    107 H107       21.5273  -33.2264  -44.1597 H         1 UNK         0.0828 
    108 H108       22.7432  -33.7481  -45.3273 H         1 UNK         0.0828 
    109 H109       21.6754  -34.9247  -44.5824 H         1 UNK         0.0828 
    110 H110       22.5642  -32.8406  -41.1677 H         1 UNK         0.2931 
    111 H111       21.1187  -35.0410  -39.8081 H         1 UNK         0.0412 
    112 H112       24.3779  -34.1533  -39.8840 H         1 UNK         0.3472 
    113 H113       24.7430  -34.5722  -38.2277 H         1 UNK         0.3472 
    114 H114       20.2286  -33.3317  -38.2979 H         1 UNK         0.0970 
    115 H115       21.2136  -32.0977  -39.0318 H         1 UNK         0.0970 
    116 H116       20.7317  -30.8769  -41.0688 H         1 UNK         0.0612 
    117 H117       19.4395  -30.3765  -40.0062 H         1 UNK         0.0612 
@<TRIPOS>BOND
     1    1    2 1    
     2    1   62 1    
     3    1   63 1    
     4    1   64 1    
     5    2    3 2    
     6    2    4 am   BACKBONE|DICT|INTERRES
     7    4    5 1    
     8    4   65 1    
     9    5    6 1    
    10    5   25 1    
    11    5   66 1    
    12    6    7 1    
    13    6   67 1    
    14    6   68 1    
    15    7    8 1    
    16    8    9 1    
    17    8   69 1    
    18    8   70 1    
    19    9   10 ar   
    20    9   14 ar   
    21   10   11 ar   
    22   10   71 1    
    23   11   12 ar   
    24   11   61 1    
    25   12   13 ar   
    26   12   72 1    
    27   13   14 ar   
    28   13   15 1    
    29   14   73 1    
    30   15   16 1    
    31   15   74 1    
    32   15   75 1    
    33   16   17 1    
    34   17   18 1    
    35   17   76 1    
    36   17   77 1    
    37   18   19 1    
    38   18   27 1    
    39   18   78 1    
    40   19   20 am   BACKBONE|DICT|INTERRES
    41   19   79 1    
    42   20   21 2    
    43   20   22 1    
    44   22   23 1    
    45   22   24 1    
    46   22   80 1    
    47   23   81 1    
    48   23   82 1    
    49   23   83 1    
    50   24   25 am   BACKBONE|DICT|INTERRES
    51   24   84 1    
    52   25   26 2    
    53   27   28 2    
    54   27   29 am   BACKBONE|DICT|INTERRES
    55   29   30 1    
    56   29   85 1    
    57   30   31 1    
    58   30   32 1    
    59   30   86 1    
    60   31   87 1    
    61   31   88 1    
    62   31   89 1    
    63   32   33 2    
    64   32   34 am   BACKBONE|DICT|INTERRES
    65   34   35 1    
    66   34   90 1    
    67   35   36 1    
    68   35   37 1    
    69   35   91 1    
    70   36   92 1    
    71   36   93 1    
    72   36   94 1    
    73   37   38 2    
    74   37   39 am   BACKBONE|DICT|INTERRES
    75   39   40 1    
    76   39   95 1    
    77   40   41 1    
    78   40   42 1    
    79   40   96 1    
    80   41   97 1    
    81   41   98 1    
    82   41   99 1    
    83   42   43 2    
    84   42   44 am   BACKBONE|DICT|INTERRES
    85   44   45 1    
    86   44  100 1    
    87   45   46 1    
    88   45   47 1    
    89   45  101 1    
    90   46  102 1    
    91   46  103 1    
    92   46  104 1    
    93   47   48 2    
    94   47   49 am   BACKBONE|DICT|INTERRES
    95   49   50 1    
    96   49  105 1    
    97   50   51 1    
    98   50   52 1    
    99   50  106 1    
   100   51  107 1    
   101   51  108 1    
   102   51  109 1    
   103   52   53 2    
   104   52   54 am   BACKBONE|DICT|INTERRES
   105   54   55 1    
   106   54  110 1    
   107   55   56 1    
   108   55   59 1    
   109   55  111 1    
   110   56   57 am   BACKBONE|DICT|INTERRES
   111   56   58 2    
   112   57  112 1    
   113   57  113 1    
   114   59   60 1    
   115   59  114 1    
   116   59  115 1    
   117   60   61 1    
   118   61  116 1    
   119   61  117 1    
@<TRIPOS>SUBSTRUCTURE
     1 UNK         1 GROUP             0       ****    0 ROOT    
