@<TRIPOS>MOLECULE
3R8
117   119    1
SMALL
USER_CHARGES


@<TRIPOS>ATOM
      1 CA         22.5849  -26.7534  -48.0082 C.3       0 UNK        -0.2013 
      2 C          21.5359  -26.9382  -46.9229 C.2       0 UNK         0.4866 
      3 O          21.8721  -26.9393  -45.7394 O.2       0 UNK        -0.5176 
      4 N          20.2617  -27.0776  -47.3101 N.am      1 UNK        -0.4884 
      5 CA         19.1127  -27.3285  -46.4260 C.3       1 UNK         0.0853 
      6 C6         17.9759  -28.0704  -47.1738 C.3       10 UNK        -0.0849 
      7 S7         18.4898  -29.7673  -47.6033 S.3       10 UNK        -0.2776 
      8 C8         17.4478  -30.7717  -46.4935 C.3       10 UNK         0.0316 
      9 C9         17.6240  -30.4267  -45.0177 C.ar      10 UNK        -0.0863 
     10 C10        18.8208  -30.7210  -44.3563 C.ar      10 UNK        -0.1009 
     11 C11        18.9548  -30.4696  -42.9861 C.ar      10 UNK        -0.0712 
     12 C12        17.8833  -29.9171  -42.2796 C.ar      10 UNK        -0.0894 
     13 C13        16.6965  -29.5816  -42.9356 C.ar      10 UNK        -0.0745 
     14 C14        16.5714  -29.8438  -44.3033 C.ar      10 UNK        -0.0972 
     15 C15        15.5415  -28.9539  -42.1678 C.3       10 UNK         0.0209 
     16 S16        15.6554  -27.1348  -42.1397 S.3       10 UNK        -0.2568 
     17 C17        16.7453  -26.8281  -40.7051 C.3       10 UNK        -0.0983 
     18 CA         18.2196  -26.5685  -41.1013 C.3       3 UNK         0.0876 
     19 N          18.3496  -25.4838  -42.0865 N.am      3 UNK        -0.4424 
     20 C          19.4761  -25.1757  -42.7390 C.2       2 UNK         0.4918 
     21 O          20.5909  -25.5821  -42.4153 O.2       2 UNK        -0.4875 
     22 CA         19.3330  -24.3621  -44.0278 C.3       2 UNK         0.0481 
     23 CB         20.3703  -23.2295  -44.1056 C.3       2 UNK        -0.1831 
     24 N          19.5730  -25.3164  -45.1034 N.am      2 UNK        -0.4498 
     25 C          18.6277  -26.0558  -45.6936 C.2       1 UNK         0.5027 
     26 O          17.4269  -25.7835  -45.6409 O.2       1 UNK        -0.4969 
     27 C          19.1195  -26.4629  -39.8490 C.2       3 UNK         0.5005 
     28 O          19.3131  -27.4729  -39.1704 O.2       3 UNK        -0.5279 
     29 N          19.6786  -25.2753  -39.5746 N.am      4 UNK        -0.4463 
     30 CA         20.7137  -25.0580  -38.5598 C.3       4 UNK         0.0283 
     31 CB         20.9233  -23.5482  -38.3638 C.3       4 UNK        -0.1875 
     32 C          22.0528  -25.7456  -38.8967 C.2       4 UNK         0.4949 
     33 O          22.7907  -26.1057  -37.9785 O.2       4 UNK        -0.5039 
     34 N          22.3466  -25.9370  -40.1912 N.am      5 UNK        -0.4663 
     35 CA         23.5308  -26.6351  -40.6913 C.3       5 UNK         0.0242 
     36 CB         23.8747  -26.1114  -42.0989 C.3       5 UNK        -0.1982 
     37 C          23.2993  -28.1550  -40.6713 C.2       5 UNK         0.5017 
     38 O          23.1792  -28.7807  -41.7257 O.2       5 UNK        -0.5012 
     39 N          23.2464  -28.7266  -39.4600 N.am      6 UNK        -0.4439 
     40 CA         23.0088  -30.1514  -39.1921 C.3       6 UNK         0.0297 
     41 CB         22.9974  -30.3882  -37.6744 C.3       6 UNK        -0.2006 
     42 C          24.0006  -31.1098  -39.8785 C.2       6 UNK         0.4892 
     43 O          23.6365  -32.2484  -40.1673 O.2       6 UNK        -0.5089 
     44 N          25.2144  -30.6279  -40.1812 N.am      7 UNK        -0.4243 
     45 CA         26.2383  -31.3364  -40.9553 C.3       7 UNK         0.0196 
     46 CB         27.5159  -30.4821  -40.9917 C.3       7 UNK        -0.2007 
     47 C          25.8053  -31.7151  -42.3869 C.2       7 UNK         0.5020 
     48 O          26.3849  -32.6388  -42.9579 O.2       7 UNK        -0.5147 
     49 N          24.7976  -31.0233  -42.9403 N.am      8 UNK        -0.4734 
     50 CA         24.2169  -31.3171  -44.2528 C.3       8 UNK         0.0238 
     51 CB         23.5764  -30.0364  -44.8198 C.3       8 UNK        -0.1912 
     52 C          23.2063  -32.4825  -44.2409 C.2       8 UNK         0.5038 
     53 O          22.7490  -32.8641  -45.3195 O.2       8 UNK        -0.5046 
     54 N          22.8580  -33.0208  -43.0626 N.am      9 UNK        -0.4200 
     55 CA         21.8684  -34.1006  -42.9041 C.3       9 UNK         0.0839 
     56 C          22.2163  -35.1573  -41.8205 C.2       9 UNK         0.5513 
     57 N          23.0919  -34.8843  -40.8631 N.am      9 UNK        -0.7519 
     58 O          21.6991  -36.2706  -41.8697 O.2       9 UNK        -0.4960 
     59 C59        20.4191  -33.5601  -42.7699 C.3       10 UNK        -0.0876 
     60 S60        20.1927  -32.3768  -41.3931 S.3       10 UNK        -0.2414 
     61 C61        20.2559  -30.7772  -42.2606 C.3       10 UNK         0.0169 
     62 H62        22.1485  -26.7774  -49.0065 H         1 UNK         0.0903 
     63 H63        23.0915  -25.7971  -47.8810 H         1 UNK         0.0903 
     64 H64        23.3307  -27.5453  -47.9448 H         1 UNK         0.0903 
     65 H65        20.0439  -27.0474  -48.2961 H         1 UNK         0.3096 
     66 H66        19.4492  -27.9909  -45.6238 H         1 UNK         0.1121 
     67 H67        17.0669  -28.1231  -46.5725 H         1 UNK         0.0849 
     68 H68        17.6994  -27.5375  -48.0850 H         1 UNK         0.0849 
     69 H69        16.4048  -30.6607  -46.7946 H         1 UNK         0.0865 
     70 H70        17.6920  -31.8245  -46.6424 H         1 UNK         0.0865 
     71 H71        19.6437  -31.1517  -44.9106 H         1 UNK         0.1346 
     72 H72        17.9813  -29.7346  -41.2179 H         1 UNK         0.1412 
     73 H73        15.6462  -29.6018  -44.8088 H         1 UNK         0.1426 
     74 H74        15.4957  -29.3484  -41.1517 H         1 UNK         0.0716 
     75 H75        14.5968  -29.2323  -42.6372 H         1 UNK         0.0716 
     76 H76        16.6716  -27.6733  -40.0182 H         1 UNK         0.0695 
     77 H77        16.3477  -25.9682  -40.1631 H         1 UNK         0.0695 
     78 H78        18.5828  -27.4555  -41.6191 H         1 UNK         0.0983 
     79 H79        17.4753  -25.1220  -42.4411 H         1 UNK         0.3095 
     80 H80        18.3316  -23.9320  -44.0959 H         1 UNK         0.0454 
     81 H81        21.3928  -23.6051  -44.0434 H         1 UNK         0.0851 
     82 H82        20.2329  -22.5195  -43.2893 H         1 UNK         0.0851 
     83 H83        20.2771  -22.6740  -45.0388 H         1 UNK         0.0851 
     84 H84        20.5242  -25.6710  -45.1724 H         1 UNK         0.2976 
     85 H85        19.4657  -24.5006  -40.1863 H         1 UNK         0.3116 
     86 H86        20.3560  -25.4786  -37.6175 H         1 UNK         0.0646 
     87 H87        20.0028  -23.0557  -38.0498 H         1 UNK         0.0847 
     88 H88        21.2695  -23.0654  -39.2786 H         1 UNK         0.0847 
     89 H89        21.6703  -23.3560  -37.5922 H         1 UNK         0.0847 
     90 H90        21.6591  -25.6824  -40.8977 H         1 UNK         0.3040 
     91 H91        24.3813  -26.4168  -40.0414 H         1 UNK         0.1015 
     92 H92        24.7885  -26.5748  -42.4729 H         1 UNK         0.0786 
     93 H93        24.0346  -25.0332  -42.0943 H         1 UNK         0.0786 
     94 H94        23.0857  -26.3293  -42.8203 H         1 UNK         0.0786 
     95 H95        23.3064  -28.1119  -38.6559 H         1 UNK         0.3172 
     96 H96        22.0162  -30.3889  -39.5795 H         1 UNK         0.0595 
     97 H97        22.7939  -31.4353  -37.4448 H         1 UNK         0.0839 
     98 H98        22.2234  -29.7959  -37.1858 H         1 UNK         0.0839 
     99 H99        23.9551  -30.1343  -37.2183 H         1 UNK         0.0839 
    100 H100       25.4266  -29.6797  -39.9086 H         1 UNK         0.2998 
    101 H101       26.4607  -32.2676  -40.4300 H         1 UNK         0.0822 
    102 H102       27.8896  -30.2817  -39.9873 H         1 UNK         0.0787 
    103 H103       28.3122  -30.9931  -41.5350 H         1 UNK         0.0787 
    104 H104       27.3465  -29.5247  -41.4865 H         1 UNK         0.0787 
    105 H105       24.3552  -30.2772  -42.4101 H         1 UNK         0.3055 
    106 H106       25.0218  -31.6112  -44.9303 H         1 UNK         0.1106 
    107 H107       24.3024  -29.2265  -44.8910 H         1 UNK         0.0828 
    108 H108       23.1822  -30.2029  -45.8231 H         1 UNK         0.0828 
    109 H109       22.7494  -29.6832  -44.2042 H         1 UNK         0.0828 
    110 H110       23.2639  -32.6614  -42.2072 H         1 UNK         0.2931 
    111 H111       21.8876  -34.6861  -43.8256 H         1 UNK         0.0412 
    112 H112       23.4191  -33.9343  -40.7037 H         1 UNK         0.3472 
    113 H113       23.3087  -35.5996  -40.1879 H         1 UNK         0.3472 
    114 H114       19.7148  -34.3827  -42.6332 H         1 UNK         0.0970 
    115 H115       20.1240  -33.0913  -43.7071 H         1 UNK         0.0970 
    116 H116       20.4595  -29.9908  -41.5320 H         1 UNK         0.0612 
    117 H117       21.0953  -30.7661  -42.9543 H         1 UNK         0.0612 
@<TRIPOS>BOND
     1    1    2 1    
     2    1   62 1    
     3    1   63 1    
     4    1   64 1    
     5    2    3 2    
     6    2    4 am   BACKBONE|DICT|INTERRES
     7    4    5 1    
     8    4   65 1    
     9    5    6 1    
    10    5   25 1    
    11    5   66 1    
    12    6    7 1    
    13    6   67 1    
    14    6   68 1    
    15    7    8 1    
    16    8    9 1    
    17    8   69 1    
    18    8   70 1    
    19    9   10 ar   
    20    9   14 ar   
    21   10   11 ar   
    22   10   71 1    
    23   11   12 ar   
    24   11   61 1    
    25   12   13 ar   
    26   12   72 1    
    27   13   14 ar   
    28   13   15 1    
    29   14   73 1    
    30   15   16 1    
    31   15   74 1    
    32   15   75 1    
    33   16   17 1    
    34   17   18 1    
    35   17   76 1    
    36   17   77 1    
    37   18   19 1    
    38   18   27 1    
    39   18   78 1    
    40   19   20 am   BACKBONE|DICT|INTERRES
    41   19   79 1    
    42   20   21 2    
    43   20   22 1    
    44   22   23 1    
    45   22   24 1    
    46   22   80 1    
    47   23   81 1    
    48   23   82 1    
    49   23   83 1    
    50   24   25 am   BACKBONE|DICT|INTERRES
    51   24   84 1    
    52   25   26 2    
    53   27   28 2    
    54   27   29 am   BACKBONE|DICT|INTERRES
    55   29   30 1    
    56   29   85 1    
    57   30   31 1    
    58   30   32 1    
    59   30   86 1    
    60   31   87 1    
    61   31   88 1    
    62   31   89 1    
    63   32   33 2    
    64   32   34 am   BACKBONE|DICT|INTERRES
    65   34   35 1    
    66   34   90 1    
    67   35   36 1    
    68   35   37 1    
    69   35   91 1    
    70   36   92 1    
    71   36   93 1    
    72   36   94 1    
    73   37   38 2    
    74   37   39 am   BACKBONE|DICT|INTERRES
    75   39   40 1    
    76   39   95 1    
    77   40   41 1    
    78   40   42 1    
    79   40   96 1    
    80   41   97 1    
    81   41   98 1    
    82   41   99 1    
    83   42   43 2    
    84   42   44 am   BACKBONE|DICT|INTERRES
    85   44   45 1    
    86   44  100 1    
    87   45   46 1    
    88   45   47 1    
    89   45  101 1    
    90   46  102 1    
    91   46  103 1    
    92   46  104 1    
    93   47   48 2    
    94   47   49 am   BACKBONE|DICT|INTERRES
    95   49   50 1    
    96   49  105 1    
    97   50   51 1    
    98   50   52 1    
    99   50  106 1    
   100   51  107 1    
   101   51  108 1    
   102   51  109 1    
   103   52   53 2    
   104   52   54 am   BACKBONE|DICT|INTERRES
   105   54   55 1    
   106   54  110 1    
   107   55   56 1    
   108   55   59 1    
   109   55  111 1    
   110   56   57 am   BACKBONE|DICT|INTERRES
   111   56   58 2    
   112   57  112 1    
   113   57  113 1    
   114   59   60 1    
   115   59  114 1    
   116   59  115 1    
   117   60   61 1    
   118   61  116 1    
   119   61  117 1    
@<TRIPOS>SUBSTRUCTURE
     1 UNK         1 GROUP             0       ****    0 ROOT    
