@<TRIPOS>MOLECULE
3R8
117   119    1
SMALL
USER_CHARGES


@<TRIPOS>ATOM
      1 CA         15.9041  -25.8808  -40.0659 C.3       0 UNK        -0.2013 
      2 C          15.9973  -25.7913  -41.5819 C.2       0 UNK         0.4866 
      3 O          15.6236  -24.7680  -42.1570 O.2       0 UNK        -0.5176 
      4 N          16.4845  -26.8542  -42.2332 N.am      1 UNK        -0.4884 
      5 CA         16.7310  -26.9007  -43.6775 C.3       1 UNK         0.0853 
      6 C6         16.6971  -28.3556  -44.2080 C.3       10 UNK        -0.0849 
      7 S7         16.2939  -28.4204  -45.9892 S.3       10 UNK        -0.2776 
      8 C8         16.1200  -30.2107  -46.2703 C.3       10 UNK         0.0316 
      9 C9         17.4019  -30.9590  -45.9393 C.ar      10 UNK        -0.0863 
     10 C10        17.4602  -31.7880  -44.8162 C.ar      10 UNK        -0.1009 
     11 C11        18.6435  -32.4547  -44.4882 C.ar      10 UNK        -0.0712 
     12 C12        19.7743  -32.2877  -45.2933 C.ar      10 UNK        -0.0894 
     13 C13        19.7306  -31.4532  -46.4140 C.ar      10 UNK        -0.0745 
     14 C14        18.5356  -30.8056  -46.7422 C.ar      10 UNK        -0.0972 
     15 C15        20.9782  -31.2409  -47.2604 C.3       10 UNK         0.0209 
     16 S16        21.5083  -29.4972  -47.2906 S.3       10 UNK        -0.2568 
     17 C17        21.9335  -29.1989  -45.5409 C.3       10 UNK        -0.0983 
     18 CA         22.0508  -27.6907  -45.2235 C.3       3 UNK         0.0876 
     19 N          20.8086  -26.9632  -45.5165 N.am      3 UNK        -0.4424 
     20 C          20.7232  -25.6335  -45.6603 C.2       2 UNK         0.4918 
     21 O          21.6960  -24.8796  -45.6260 O.2       2 UNK        -0.4875 
     22 CA         19.3203  -25.0285  -45.8592 C.3       2 UNK         0.0481 
     23 CB         19.0597  -24.7801  -47.3534 C.3       2 UNK        -0.1831 
     24 N          18.2066  -25.8079  -45.3033 N.am      2 UNK        -0.4498 
     25 C          18.0565  -26.1875  -44.0258 C.2       1 UNK         0.5027 
     26 O          18.9175  -26.0197  -43.1583 O.2       1 UNK        -0.4969 
     27 C          22.5537  -27.4546  -43.7792 C.2       3 UNK         0.5005 
     28 O          23.7441  -27.6481  -43.5241 O.2       3 UNK        -0.5279 
     29 N          21.6593  -27.0031  -42.8831 N.am      4 UNK        -0.4463 
     30 CA         21.9192  -26.4624  -41.5465 C.3       4 UNK         0.0283 
     31 CB         22.4598  -25.0206  -41.6818 C.3       4 UNK        -0.1875 
     32 C          22.7838  -27.3729  -40.6520 C.2       4 UNK         0.4949 
     33 O          22.6128  -28.5935  -40.6719 O.2       4 UNK        -0.5039 
     34 N          23.6851  -26.7670  -39.8680 N.am      5 UNK        -0.4663 
     35 CA         24.5668  -27.4294  -38.9038 C.3       5 UNK         0.0242 
     36 CB         25.2387  -26.3595  -38.0277 C.3       5 UNK        -0.1982 
     37 C          25.6276  -28.3496  -39.5329 C.2       5 UNK         0.5017 
     38 O          26.1537  -29.2087  -38.8260 O.2       5 UNK        -0.5012 
     39 N          25.9185  -28.1749  -40.8313 N.am      6 UNK        -0.4439 
     40 CA         26.8480  -29.0203  -41.5862 C.3       6 UNK         0.0297 
     41 CB         27.1900  -28.3587  -42.9307 C.3       6 UNK        -0.2006 
     42 C          26.3027  -30.4432  -41.7945 C.2       6 UNK         0.4892 
     43 O          27.0638  -31.4034  -41.6712 O.2       6 UNK        -0.5089 
     44 N          24.9959  -30.5505  -42.0724 N.am      7 UNK        -0.4243 
     45 CA         24.2743  -31.8245  -42.1503 C.3       7 UNK         0.0196 
     46 CB         23.1997  -31.7218  -43.2426 C.3       7 UNK        -0.2007 
     47 C          23.6386  -32.2279  -40.8070 C.2       7 UNK         0.5020 
     48 O          23.2535  -33.3872  -40.6579 O.2       7 UNK        -0.5147 
     49 N          23.5301  -31.2705  -39.8727 N.am      8 UNK        -0.4734 
     50 CA         22.7908  -31.3249  -38.6039 C.3       8 UNK         0.0238 
     51 CB         23.3323  -32.4268  -37.6677 C.3       8 UNK        -0.1912 
     52 C          21.2699  -31.4043  -38.8417 C.2       8 UNK         0.5038 
     53 O          20.5751  -32.1695  -38.1698 O.2       8 UNK        -0.5046 
     54 N          20.7975  -30.6048  -39.8057 N.am      9 UNK        -0.4200 
     55 CA         19.4077  -30.5382  -40.2829 C.3       9 UNK         0.0839 
     56 C          18.7674  -29.1357  -40.0791 C.2       9 UNK         0.5513 
     57 N          19.3796  -28.2259  -39.3304 N.am      9 UNK        -0.7519 
     58 O          17.6882  -28.8682  -40.6015 O.2       9 UNK        -0.4960 
     59 C59        19.2946  -31.0022  -41.7593 C.3       10 UNK        -0.0876 
     60 S60        19.8791  -32.7135  -42.0138 S.3       10 UNK        -0.2414 
     61 C61        18.7010  -33.3399  -43.2511 C.3       10 UNK         0.0169 
     62 H62        14.9069  -25.5944  -39.7327 H         1 UNK         0.0903 
     63 H63        16.1015  -26.8895  -39.7041 H         1 UNK         0.0903 
     64 H64        16.6251  -25.2056  -39.6058 H         1 UNK         0.0903 
     65 H65        16.8476  -27.6388  -41.6937 H         1 UNK         0.3096 
     66 H66        15.9239  -26.3434  -44.1596 H         1 UNK         0.1121 
     67 H67        17.6397  -28.8724  -44.0151 H         1 UNK         0.0849 
     68 H68        15.9291  -28.9265  -43.6830 H         1 UNK         0.0849 
     69 H69        15.2823  -30.5878  -45.6814 H         1 UNK         0.0865 
     70 H70        15.8606  -30.3838  -47.3158 H         1 UNK         0.0865 
     71 H71        16.5868  -31.9046  -44.1892 H         1 UNK         0.1346 
     72 H72        20.6932  -32.7935  -45.0305 H         1 UNK         0.1412 
     73 H73        18.4974  -30.1552  -47.6058 H         1 UNK         0.1426 
     74 H74        20.7732  -31.5654  -48.2814 H         1 UNK         0.0716 
     75 H75        21.8053  -31.8553  -46.9011 H         1 UNK         0.0716 
     76 H76        21.1902  -29.6678  -44.8938 H         1 UNK         0.0695 
     77 H77        22.8832  -29.6982  -45.3479 H         1 UNK         0.0695 
     78 H78        22.8253  -27.2821  -45.8768 H         1 UNK         0.0983 
     79 H79        19.9689  -27.5168  -45.5982 H         1 UNK         0.3095 
     80 H80        19.3159  -24.0628  -45.3499 H         1 UNK         0.0454 
     81 H81        19.0102  -25.7142  -47.9147 H         1 UNK         0.0851 
     82 H82        18.1250  -24.2420  -47.5114 H         1 UNK         0.0851 
     83 H83        19.8547  -24.1772  -47.7949 H         1 UNK         0.0851 
     84 H84        17.4670  -26.0456  -45.9506 H         1 UNK         0.2976 
     85 H85        20.7003  -26.8787  -43.1930 H         1 UNK         0.3116 
     86 H86        20.9459  -26.4042  -41.0576 H         1 UNK         0.0646 
     87 H87        22.4913  -24.5073  -40.7202 H         1 UNK         0.0847 
     88 H88        21.8163  -24.4246  -42.3299 H         1 UNK         0.0847 
     89 H89        23.4624  -25.0009  -42.1116 H         1 UNK         0.0847 
     90 H90        23.7579  -25.7611  -39.9219 H         1 UNK         0.3040 
     91 H91        23.9443  -28.0539  -38.2597 H         1 UNK         0.1015 
     92 H92        24.5000  -25.7567  -37.4989 H         1 UNK         0.0786 
     93 H93        25.8626  -25.6871  -38.6181 H         1 UNK         0.0786 
     94 H94        25.8787  -26.8176  -37.2720 H         1 UNK         0.0786 
     95 H95        25.4187  -27.4631  -41.3467 H         1 UNK         0.3172 
     96 H96        27.7719  -29.1001  -41.0090 H         1 UNK         0.0595 
     97 H97        27.6246  -27.3693  -42.7882 H         1 UNK         0.0839 
     98 H98        26.3124  -28.2516  -43.5684 H         1 UNK         0.0839 
     99 H99        27.9187  -28.9551  -43.4815 H         1 UNK         0.0839 
    100 H100       24.4503  -29.7039  -42.1786 H         1 UNK         0.2998 
    101 H101       24.9630  -32.6233  -42.4341 H         1 UNK         0.0822 
    102 H102       23.6508  -31.5403  -44.2173 H         1 UNK         0.0787 
    103 H103       22.6347  -32.6512  -43.3218 H         1 UNK         0.0787 
    104 H104       22.4873  -30.9222  -43.0352 H         1 UNK         0.0787 
    105 H105       23.8410  -30.3460  -40.1405 H         1 UNK         0.3055 
    106 H106       22.9651  -30.3685  -38.1092 H         1 UNK         0.1106 
    107 H107       23.1174  -33.4268  -38.0446 H         1 UNK         0.0828 
    108 H108       24.4108  -32.3404  -37.5367 H         1 UNK         0.0828 
    109 H109       22.8784  -32.3524  -36.6789 H         1 UNK         0.0828 
    110 H110       21.4471  -29.9702  -40.2644 H         1 UNK         0.2931 
    111 H111       18.7918  -31.2110  -39.6841 H         1 UNK         0.0412 
    112 H112       20.2519  -28.4428  -38.8770 H         1 UNK         0.3472 
    113 H113       18.9485  -27.3260  -39.1964 H         1 UNK         0.3472 
    114 H114       18.2568  -30.9404  -42.0912 H         1 UNK         0.0970 
    115 H115       19.8643  -30.3419  -42.4158 H         1 UNK         0.0970 
    116 H116       18.9979  -34.3477  -43.5440 H         1 UNK         0.0612 
    117 H117       17.7175  -33.4294  -42.7871 H         1 UNK         0.0612 
@<TRIPOS>BOND
     1    1    2 1    
     2    1   62 1    
     3    1   63 1    
     4    1   64 1    
     5    2    3 2    
     6    2    4 am   BACKBONE|DICT|INTERRES
     7    4    5 1    
     8    4   65 1    
     9    5    6 1    
    10    5   25 1    
    11    5   66 1    
    12    6    7 1    
    13    6   67 1    
    14    6   68 1    
    15    7    8 1    
    16    8    9 1    
    17    8   69 1    
    18    8   70 1    
    19    9   10 ar   
    20    9   14 ar   
    21   10   11 ar   
    22   10   71 1    
    23   11   12 ar   
    24   11   61 1    
    25   12   13 ar   
    26   12   72 1    
    27   13   14 ar   
    28   13   15 1    
    29   14   73 1    
    30   15   16 1    
    31   15   74 1    
    32   15   75 1    
    33   16   17 1    
    34   17   18 1    
    35   17   76 1    
    36   17   77 1    
    37   18   19 1    
    38   18   27 1    
    39   18   78 1    
    40   19   20 am   BACKBONE|DICT|INTERRES
    41   19   79 1    
    42   20   21 2    
    43   20   22 1    
    44   22   23 1    
    45   22   24 1    
    46   22   80 1    
    47   23   81 1    
    48   23   82 1    
    49   23   83 1    
    50   24   25 am   BACKBONE|DICT|INTERRES
    51   24   84 1    
    52   25   26 2    
    53   27   28 2    
    54   27   29 am   BACKBONE|DICT|INTERRES
    55   29   30 1    
    56   29   85 1    
    57   30   31 1    
    58   30   32 1    
    59   30   86 1    
    60   31   87 1    
    61   31   88 1    
    62   31   89 1    
    63   32   33 2    
    64   32   34 am   BACKBONE|DICT|INTERRES
    65   34   35 1    
    66   34   90 1    
    67   35   36 1    
    68   35   37 1    
    69   35   91 1    
    70   36   92 1    
    71   36   93 1    
    72   36   94 1    
    73   37   38 2    
    74   37   39 am   BACKBONE|DICT|INTERRES
    75   39   40 1    
    76   39   95 1    
    77   40   41 1    
    78   40   42 1    
    79   40   96 1    
    80   41   97 1    
    81   41   98 1    
    82   41   99 1    
    83   42   43 2    
    84   42   44 am   BACKBONE|DICT|INTERRES
    85   44   45 1    
    86   44  100 1    
    87   45   46 1    
    88   45   47 1    
    89   45  101 1    
    90   46  102 1    
    91   46  103 1    
    92   46  104 1    
    93   47   48 2    
    94   47   49 am   BACKBONE|DICT|INTERRES
    95   49   50 1    
    96   49  105 1    
    97   50   51 1    
    98   50   52 1    
    99   50  106 1    
   100   51  107 1    
   101   51  108 1    
   102   51  109 1    
   103   52   53 2    
   104   52   54 am   BACKBONE|DICT|INTERRES
   105   54   55 1    
   106   54  110 1    
   107   55   56 1    
   108   55   59 1    
   109   55  111 1    
   110   56   57 am   BACKBONE|DICT|INTERRES
   111   56   58 2    
   112   57  112 1    
   113   57  113 1    
   114   59   60 1    
   115   59  114 1    
   116   59  115 1    
   117   60   61 1    
   118   61  116 1    
   119   61  117 1    
@<TRIPOS>SUBSTRUCTURE
     1 UNK         1 GROUP             0       ****    0 ROOT    
