@<TRIPOS>MOLECULE
3R8
117   119    1
SMALL
USER_CHARGES


@<TRIPOS>ATOM
      1 CA         14.1100  -23.5172  -47.2070 C.3       0 UNK        -0.2013 
      2 C          15.4781  -23.1692  -46.6404 C.2       0 UNK         0.4866 
      3 O          15.6300  -22.1293  -45.9994 O.2       0 UNK        -0.5176 
      4 N          16.4765  -24.0323  -46.8692 N.am      1 UNK        -0.4884 
      5 CA         17.8580  -23.8654  -46.3953 C.3       1 UNK         0.0853 
      6 C6         18.8582  -24.6689  -47.2679 C.3       10 UNK        -0.0849 
      7 S7         18.5226  -26.4655  -47.3277 S.3       10 UNK        -0.2776 
      8 C8         19.8563  -27.0892  -46.2468 C.3       10 UNK         0.0316 
      9 C9         19.6855  -28.5310  -45.7689 C.ar      10 UNK        -0.0863 
     10 C10        20.8178  -29.2326  -45.3450 C.ar      10 UNK        -0.1009 
     11 C11        20.7081  -30.5228  -44.8190 C.ar      10 UNK        -0.0712 
     12 C12        19.4509  -31.1240  -44.7252 C.ar      10 UNK        -0.0894 
     13 C13        18.3066  -30.4330  -45.1324 C.ar      10 UNK        -0.0745 
     14 C14        18.4309  -29.1456  -45.6652 C.ar      10 UNK        -0.0972 
     15 C15        16.9289  -31.0485  -44.9357 C.3       10 UNK         0.0209 
     16 S16        15.9171  -30.0829  -43.7644 S.3       10 UNK        -0.2568 
     17 C17        16.9091  -30.1545  -42.2297 C.3       10 UNK        -0.0983 
     18 CA         17.9071  -28.9713  -42.0748 C.3       3 UNK         0.0876 
     19 N          17.2580  -27.6681  -42.2643 N.am      3 UNK        -0.4424 
     20 C          17.8662  -26.5466  -42.6687 C.2       2 UNK         0.4918 
     21 O          19.0844  -26.4553  -42.8306 O.2       2 UNK        -0.4875 
     22 CA         16.9551  -25.3301  -42.8999 C.3       2 UNK         0.0481 
     23 CB         17.2088  -24.2260  -41.8546 C.3       2 UNK        -0.1831 
     24 N          17.0396  -24.8308  -44.2784 N.am      2 UNK        -0.4498 
     25 C          18.0342  -24.1612  -44.8861 C.2       1 UNK         0.5027 
     26 O          19.0569  -23.7668  -44.3247 O.2       1 UNK        -0.4969 
     27 C          18.7041  -29.0340  -40.7528 C.2       3 UNK         0.5005 
     28 O          18.4418  -29.8919  -39.9079 O.2       3 UNK        -0.5279 
     29 N          19.6623  -28.1155  -40.5978 N.am      4 UNK        -0.4463 
     30 CA         20.5597  -27.9871  -39.4519 C.3       4 UNK         0.0283 
     31 CB         19.8614  -27.2131  -38.3159 C.3       4 UNK        -0.1875 
     32 C          21.8815  -27.3425  -39.8990 C.2       4 UNK         0.4949 
     33 O          22.4242  -26.4920  -39.1930 O.2       4 UNK        -0.5039 
     34 N          22.3680  -27.7371  -41.0839 N.am      5 UNK        -0.4663 
     35 CA         23.5690  -27.1840  -41.7189 C.3       5 UNK         0.0242 
     36 CB         23.4374  -27.3295  -43.2456 C.3       5 UNK        -0.1982 
     37 C          24.8852  -27.8087  -41.2158 C.2       5 UNK         0.5017 
     38 O          25.9473  -27.3946  -41.6798 O.2       5 UNK        -0.5012 
     39 N          24.8029  -28.7973  -40.3109 N.am      6 UNK        -0.4439 
     40 CA         25.8964  -29.5651  -39.6956 C.3       6 UNK         0.0297 
     41 CB         26.9479  -28.6541  -39.0276 C.3       6 UNK        -0.2006 
     42 C          26.5394  -30.6131  -40.6230 C.2       6 UNK         0.4892 
     43 O          27.4201  -31.3493  -40.1743 O.2       6 UNK        -0.5089 
     44 N          26.0636  -30.7242  -41.8704 N.am      7 UNK        -0.4243 
     45 CA         26.4211  -31.7744  -42.8251 C.3       7 UNK         0.0196 
     46 CB         26.2067  -31.2410  -44.2532 C.3       7 UNK        -0.2007 
     47 C          25.5877  -33.0322  -42.5267 C.2       7 UNK         0.5020 
     48 O          24.6870  -33.3752  -43.2926 O.2       7 UNK        -0.5147 
     49 N          25.8396  -33.6318  -41.3546 N.am      8 UNK        -0.4734 
     50 CA         25.0876  -34.6996  -40.6739 C.3       8 UNK         0.0238 
     51 CB         24.9609  -35.9670  -41.5422 C.3       8 UNK        -0.1912 
     52 C          23.7161  -34.2487  -40.1319 C.2       8 UNK         0.5038 
     53 O          23.3349  -34.6781  -39.0425 O.2       8 UNK        -0.5046 
     54 N          23.0148  -33.3885  -40.8775 N.am      9 UNK        -0.4200 
     55 CA         21.7793  -32.7023  -40.4861 C.3       9 UNK         0.0839 
     56 C          21.9866  -31.7403  -39.2831 C.2       9 UNK         0.5513 
     57 N          21.1496  -31.8317  -38.2596 N.am      9 UNK        -0.7519 
     58 O          22.8709  -30.8867  -39.2898 O.2       9 UNK        -0.4960 
     59 C59        21.1344  -31.9810  -41.6992 C.3       10 UNK        -0.0876 
     60 S60        22.2672  -30.8397  -42.5739 S.3       10 UNK        -0.2414 
     61 C61        21.9482  -31.2443  -44.3180 C.3       10 UNK         0.0169 
     62 H62        13.3792  -23.5954  -46.4024 H         1 UNK         0.0903 
     63 H63        13.7792  -22.7378  -47.8930 H         1 UNK         0.0903 
     64 H64        14.1207  -24.4629  -47.7487 H         1 UNK         0.0903 
     65 H65        16.3049  -24.8719  -47.4064 H         1 UNK         0.3096 
     66 H66        18.1154  -22.8099  -46.5141 H         1 UNK         0.1121 
     67 H67        18.8192  -24.2948  -48.2922 H         1 UNK         0.0849 
     68 H68        19.8843  -24.4906  -46.9398 H         1 UNK         0.0849 
     69 H69        20.8018  -26.9874  -46.7818 H         1 UNK         0.0865 
     70 H70        19.9318  -26.4534  -45.3643 H         1 UNK         0.0865 
     71 H71        21.7901  -28.7625  -45.3988 H         1 UNK         0.1346 
     72 H72        19.3606  -32.1155  -44.3040 H         1 UNK         0.1412 
     73 H73        17.5350  -28.6119  -45.9492 H         1 UNK         0.1426 
     74 H74        17.0040  -32.0772  -44.5796 H         1 UNK         0.0716 
     75 H75        16.4157  -31.0908  -45.8973 H         1 UNK         0.0716 
     76 H76        16.2086  -30.1697  -41.3927 H         1 UNK         0.0695 
     77 H77        17.4394  -31.1082  -42.1972 H         1 UNK         0.0695 
     78 H78        18.6592  -29.0760  -42.8567 H         1 UNK         0.0983 
     79 H79        16.2575  -27.6595  -42.1296 H         1 UNK         0.3095 
     80 H80        15.9203  -25.6542  -42.7773 H         1 UNK         0.0454 
     81 H81        16.9895  -24.5883  -40.8496 H         1 UNK         0.0851 
     82 H82        18.2468  -23.8923  -41.8529 H         1 UNK         0.0851 
     83 H83        16.5761  -23.3566  -42.0322 H         1 UNK         0.0851 
     84 H84        16.2667  -25.0955  -44.8726 H         1 UNK         0.2976 
     85 H85        19.7802  -27.4303  -41.3428 H         1 UNK         0.3116 
     86 H86        20.8095  -28.9833  -39.0844 H         1 UNK         0.0646 
     87 H87        20.5071  -27.1333  -37.4405 H         1 UNK         0.0847 
     88 H88        18.9482  -27.7142  -37.9952 H         1 UNK         0.0847 
     89 H89        19.5985  -26.2006  -38.6241 H         1 UNK         0.0847 
     90 H90        21.8906  -28.4744  -41.5859 H         1 UNK         0.3040 
     91 H91        23.6213  -26.1169  -41.4910 H         1 UNK         0.1015 
     92 H92        22.5020  -26.9011  -43.6073 H         1 UNK         0.0786 
     93 H93        23.4757  -28.3718  -43.5605 H         1 UNK         0.0786 
     94 H94        24.2481  -26.8096  -43.7577 H         1 UNK         0.0786 
     95 H95        23.8762  -29.1080  -40.0376 H         1 UNK         0.3172 
     96 H96        25.4251  -30.1386  -38.8965 H         1 UNK         0.0595 
     97 H97        27.6401  -29.2406  -38.4223 H         1 UNK         0.0839 
     98 H98        26.4802  -27.9243  -38.3668 H         1 UNK         0.0839 
     99 H99        27.5464  -28.1124  -39.7602 H         1 UNK         0.0839 
    100 H100       25.3098  -30.1091  -42.1393 H         1 UNK         0.2998 
    101 H101       27.4766  -32.0326  -42.7141 H         1 UNK         0.0822 
    102 H102       25.1735  -30.9360  -44.4210 H         1 UNK         0.0787 
    103 H103       26.8450  -30.3802  -44.4533 H         1 UNK         0.0787 
    104 H104       26.4477  -32.0036  -44.9950 H         1 UNK         0.0787 
    105 H105       26.5651  -33.2004  -40.7898 H         1 UNK         0.3055 
    106 H106       25.6864  -34.9645  -39.8005 H         1 UNK         0.1106 
    107 H107       24.3246  -35.8081  -42.4131 H         1 UNK         0.0828 
    108 H108       25.9349  -36.3061  -41.8946 H         1 UNK         0.0828 
    109 H109       24.5208  -36.7845  -40.9696 H         1 UNK         0.0828 
    110 H110       23.4119  -33.1102  -41.7681 H         1 UNK         0.2931 
    111 H111       21.0818  -33.4814  -40.1714 H         1 UNK         0.0412 
    112 H112       21.2637  -31.2080  -37.4768 H         1 UNK         0.3472 
    113 H113       20.4081  -32.5145  -38.2514 H         1 UNK         0.3472 
    114 H114       20.7789  -32.7365  -42.4002 H         1 UNK         0.0970 
    115 H115       20.2439  -31.4322  -41.3930 H         1 UNK         0.0970 
    116 H116       22.8119  -30.9421  -44.9111 H         1 UNK         0.0612 
    117 H117       21.8560  -32.3235  -44.4480 H         1 UNK         0.0612 
@<TRIPOS>BOND
     1    1    2 1    
     2    1   62 1    
     3    1   63 1    
     4    1   64 1    
     5    2    3 2    
     6    2    4 am   BACKBONE|DICT|INTERRES
     7    4    5 1    
     8    4   65 1    
     9    5    6 1    
    10    5   25 1    
    11    5   66 1    
    12    6    7 1    
    13    6   67 1    
    14    6   68 1    
    15    7    8 1    
    16    8    9 1    
    17    8   69 1    
    18    8   70 1    
    19    9   10 ar   
    20    9   14 ar   
    21   10   11 ar   
    22   10   71 1    
    23   11   12 ar   
    24   11   61 1    
    25   12   13 ar   
    26   12   72 1    
    27   13   14 ar   
    28   13   15 1    
    29   14   73 1    
    30   15   16 1    
    31   15   74 1    
    32   15   75 1    
    33   16   17 1    
    34   17   18 1    
    35   17   76 1    
    36   17   77 1    
    37   18   19 1    
    38   18   27 1    
    39   18   78 1    
    40   19   20 am   BACKBONE|DICT|INTERRES
    41   19   79 1    
    42   20   21 2    
    43   20   22 1    
    44   22   23 1    
    45   22   24 1    
    46   22   80 1    
    47   23   81 1    
    48   23   82 1    
    49   23   83 1    
    50   24   25 am   BACKBONE|DICT|INTERRES
    51   24   84 1    
    52   25   26 2    
    53   27   28 2    
    54   27   29 am   BACKBONE|DICT|INTERRES
    55   29   30 1    
    56   29   85 1    
    57   30   31 1    
    58   30   32 1    
    59   30   86 1    
    60   31   87 1    
    61   31   88 1    
    62   31   89 1    
    63   32   33 2    
    64   32   34 am   BACKBONE|DICT|INTERRES
    65   34   35 1    
    66   34   90 1    
    67   35   36 1    
    68   35   37 1    
    69   35   91 1    
    70   36   92 1    
    71   36   93 1    
    72   36   94 1    
    73   37   38 2    
    74   37   39 am   BACKBONE|DICT|INTERRES
    75   39   40 1    
    76   39   95 1    
    77   40   41 1    
    78   40   42 1    
    79   40   96 1    
    80   41   97 1    
    81   41   98 1    
    82   41   99 1    
    83   42   43 2    
    84   42   44 am   BACKBONE|DICT|INTERRES
    85   44   45 1    
    86   44  100 1    
    87   45   46 1    
    88   45   47 1    
    89   45  101 1    
    90   46  102 1    
    91   46  103 1    
    92   46  104 1    
    93   47   48 2    
    94   47   49 am   BACKBONE|DICT|INTERRES
    95   49   50 1    
    96   49  105 1    
    97   50   51 1    
    98   50   52 1    
    99   50  106 1    
   100   51  107 1    
   101   51  108 1    
   102   51  109 1    
   103   52   53 2    
   104   52   54 am   BACKBONE|DICT|INTERRES
   105   54   55 1    
   106   54  110 1    
   107   55   56 1    
   108   55   59 1    
   109   55  111 1    
   110   56   57 am   BACKBONE|DICT|INTERRES
   111   56   58 2    
   112   57  112 1    
   113   57  113 1    
   114   59   60 1    
   115   59  114 1    
   116   59  115 1    
   117   60   61 1    
   118   61  116 1    
   119   61  117 1    
@<TRIPOS>SUBSTRUCTURE
     1 UNK         1 GROUP             0       ****    0 ROOT    
