@<TRIPOS>MOLECULE
3R8
117   119    1
SMALL
USER_CHARGES


@<TRIPOS>ATOM
      1 CA         16.6066  -21.7413  -46.0625 C.3       0 UNK        -0.2013 
      2 C          17.6561  -22.8361  -46.1819 C.2       0 UNK         0.4866 
      3 O          18.8306  -22.5355  -46.3956 O.2       0 UNK        -0.5176 
      4 N          17.2404  -24.1034  -46.0503 N.am      1 UNK        -0.4884 
      5 CA         18.1146  -25.2845  -46.1087 C.3       1 UNK         0.0853 
      6 C6         17.2941  -26.5955  -46.2592 C.3       10 UNK        -0.0849 
      7 S7         17.8055  -27.6396  -47.6708 S.3       10 UNK        -0.2776 
      8 C8         19.3355  -28.4684  -47.0957 C.3       10 UNK         0.0316 
      9 C9         19.2081  -29.4440  -45.9217 C.ar      10 UNK        -0.0863 
     10 C10        20.3758  -30.0359  -45.4276 C.ar      10 UNK        -0.1009 
     11 C11        20.3370  -30.8867  -44.3186 C.ar      10 UNK        -0.0712 
     12 C12        19.1198  -31.1324  -43.6803 C.ar      10 UNK        -0.0894 
     13 C13        17.9493  -30.5377  -44.1526 C.ar      10 UNK        -0.0745 
     14 C14        17.9901  -29.7424  -45.2990 C.ar      10 UNK        -0.0972 
     15 C15        16.6479  -30.6727  -43.3844 C.3       10 UNK         0.0209 
     16 S16        16.3424  -29.1598  -42.4137 S.3       10 UNK        -0.2568 
     17 C17        17.4805  -29.3725  -41.0001 C.3       10 UNK        -0.0983 
     18 CA         18.8555  -28.6469  -41.1185 C.3       3 UNK         0.0876 
     19 N          18.7021  -27.2386  -41.5263 N.am      3 UNK        -0.4424 
     20 C          19.6506  -26.3938  -41.9585 C.2       2 UNK         0.4918 
     21 O          20.8541  -26.6673  -42.0083 O.2       2 UNK        -0.4875 
     22 CA         19.1538  -24.9998  -42.3860 C.3       2 UNK         0.0481 
     23 CB         20.2624  -23.9307  -42.3334 C.3       2 UNK        -0.1831 
     24 N          18.5123  -25.0170  -43.7047 N.am      2 UNK        -0.4498 
     25 C          19.0543  -25.3642  -44.8851 C.2       1 UNK         0.5027 
     26 O          20.2224  -25.7160  -45.0421 O.2       1 UNK        -0.4969 
     27 C          19.7020  -28.8619  -39.8317 C.2       3 UNK         0.5005 
     28 O          19.3347  -29.6773  -38.9824 O.2       3 UNK        -0.5279 
     29 N          20.8099  -28.1299  -39.6958 N.am      4 UNK        -0.4463 
     30 CA         21.7857  -28.2110  -38.6112 C.3       4 UNK         0.0283 
     31 CB         21.2200  -27.6315  -37.2997 C.3       4 UNK        -0.1875 
     32 C          23.0742  -27.4862  -39.0142 C.2       4 UNK         0.4949 
     33 O          24.1618  -28.0180  -38.7933 O.2       4 UNK        -0.5039 
     34 N          22.9335  -26.2866  -39.6002 N.am      5 UNK        -0.4663 
     35 CA         24.0569  -25.4604  -40.0517 C.3       5 UNK         0.0242 
     36 CB         23.5937  -24.0089  -40.2495 C.3       5 UNK        -0.1982 
     37 C          24.7137  -25.9951  -41.3335 C.2       5 UNK         0.5017 
     38 O          25.9315  -25.8748  -41.4712 O.2       5 UNK        -0.5012 
     39 N          23.9105  -26.5758  -42.2394 N.am      6 UNK        -0.4439 
     40 CA         24.3924  -27.2348  -43.4570 C.3       6 UNK         0.0297 
     41 CB         23.2065  -27.5282  -44.3911 C.3       6 UNK        -0.2006 
     42 C          25.1742  -28.5212  -43.1412 C.2       6 UNK         0.4892 
     43 O          26.2784  -28.7067  -43.6532 O.2       6 UNK        -0.5089 
     44 N          24.5784  -29.3539  -42.2824 N.am      7 UNK        -0.4243 
     45 CA         25.0354  -30.6331  -41.7454 C.3       7 UNK         0.0196 
     46 CB         25.4322  -31.6206  -42.8676 C.3       7 UNK        -0.2007 
     47 C          23.8695  -31.1880  -40.9116 C.2       7 UNK         0.5020 
     48 O          22.8116  -30.5551  -40.8467 O.2       7 UNK        -0.5147 
     49 N          24.0573  -32.3671  -40.3071 N.am      8 UNK        -0.4734 
     50 CA         22.9780  -33.1065  -39.6439 C.3       8 UNK         0.0238 
     51 CB         23.5766  -34.1205  -38.6550 C.3       8 UNK        -0.1912 
     52 C          22.0506  -33.8110  -40.6517 C.2       8 UNK         0.5038 
     53 O          20.8373  -33.8255  -40.4447 O.2       8 UNK        -0.5046 
     54 N          22.6428  -34.3777  -41.7153 N.am      9 UNK        -0.4200 
     55 CA         21.9770  -35.1477  -42.7856 C.3       9 UNK         0.0839 
     56 C          21.2502  -36.4425  -42.3029 C.2       9 UNK         0.5513 
     57 N          21.6194  -37.0164  -41.1637 N.am      9 UNK        -0.7519 
     58 O          20.3636  -36.9576  -42.9796 O.2       9 UNK        -0.4960 
     59 C59        21.0961  -34.2630  -43.7161 C.3       10 UNK        -0.0876 
     60 S60        22.0816  -33.0214  -44.6225 S.3       10 UNK        -0.2414 
     61 C61        21.6203  -31.4848  -43.7712 C.3       10 UNK         0.0169 
     62 H62        15.6111  -22.1464  -45.8819 H         1 UNK         0.0903 
     63 H63        16.8548  -21.0724  -45.2388 H         1 UNK         0.0903 
     64 H64        16.5716  -21.1537  -46.9796 H         1 UNK         0.0903 
     65 H65        16.2586  -24.2844  -45.8939 H         1 UNK         0.3096 
     66 H66        18.7534  -25.1598  -46.9864 H         1 UNK         0.1121 
     67 H67        16.2429  -26.3655  -46.4403 H         1 UNK         0.0849 
     68 H68        17.2798  -27.1737  -45.3352 H         1 UNK         0.0849 
     69 H69        19.7531  -29.0133  -47.9434 H         1 UNK         0.0865 
     70 H70        20.0691  -27.7026  -46.8410 H         1 UNK         0.0865 
     71 H71        21.3258  -29.8213  -45.8982 H         1 UNK         0.1346 
     72 H72        19.0905  -31.7469  -42.7910 H         1 UNK         0.1412 
     73 H73        17.0645  -29.3198  -45.6591 H         1 UNK         0.1426 
     74 H74        16.6590  -31.5473  -42.7322 H         1 UNK         0.0716 
     75 H75        15.8235  -30.8202  -44.0837 H         1 UNK         0.0716 
     76 H76        17.6298  -30.4417  -40.8382 H         1 UNK         0.0695 
     77 H77        16.9483  -29.0125  -40.1174 H         1 UNK         0.0695 
     78 H78        19.4205  -29.1299  -41.9158 H         1 UNK         0.0983 
     79 H79        17.7481  -26.9084  -41.5235 H         1 UNK         0.3095 
     80 H80        18.3835  -24.6990  -41.6743 H         1 UNK         0.0454 
     81 H81        21.1145  -24.1890  -42.9636 H         1 UNK         0.0851 
     82 H82        20.6267  -23.8115  -41.3136 H         1 UNK         0.0851 
     83 H83        19.8917  -22.9585  -42.6577 H         1 UNK         0.0851 
     84 H84        17.5404  -24.7412  -43.7149 H         1 UNK         0.2976 
     85 H85        21.0561  -27.5387  -40.4876 H         1 UNK         0.3116 
     86 H86        22.0336  -29.2630  -38.4540 H         1 UNK         0.0646 
     87 H87        20.8910  -26.5991  -37.4218 H         1 UNK         0.0847 
     88 H88        21.9740  -27.6437  -36.5116 H         1 UNK         0.0847 
     89 H89        20.3714  -28.2116  -36.9380 H         1 UNK         0.0847 
     90 H90        22.0083  -25.9010  -39.7188 H         1 UNK         0.3040 
     91 H91        24.8165  -25.4660  -39.2661 H         1 UNK         0.1015 
     92 H92        22.9123  -23.9145  -41.0936 H         1 UNK         0.0786 
     93 H93        24.4454  -23.3581  -40.4526 H         1 UNK         0.0786 
     94 H94        23.0952  -23.6203  -39.3613 H         1 UNK         0.0786 
     95 H95        22.9104  -26.5988  -42.0686 H         1 UNK         0.3172 
     96 H96        25.0678  -26.5490  -43.9730 H         1 UNK         0.0595 
     97 H97        22.4464  -28.1443  -43.9089 H         1 UNK         0.0839 
     98 H98        23.5336  -28.0533  -45.2894 H         1 UNK         0.0839 
     99 H99        22.7255  -26.6052  -44.7140 H         1 UNK         0.0839 
    100 H100       23.6686  -29.1005  -41.9128 H         1 UNK         0.2998 
    101 H101       25.8835  -30.4524  -41.0829 H         1 UNK         0.0822 
    102 H102       26.3035  -31.2738  -43.4217 H         1 UNK         0.0787 
    103 H103       25.6962  -32.6003  -42.4693 H         1 UNK         0.0787 
    104 H104       24.6233  -31.7669  -43.5823 H         1 UNK         0.0787 
    105 H105       24.9597  -32.8170  -40.3684 H         1 UNK         0.3055 
    106 H106       22.3665  -32.4015  -39.0746 H         1 UNK         0.1106 
    107 H107       22.7894  -34.6754  -38.1423 H         1 UNK         0.0828 
    108 H108       24.2177  -34.8487  -39.1532 H         1 UNK         0.0828 
    109 H109       24.1693  -33.6216  -37.8881 H         1 UNK         0.0828 
    110 H110       23.6459  -34.3107  -41.7929 H         1 UNK         0.2931 
    111 H111       22.7922  -35.5299  -43.4012 H         1 UNK         0.0412 
    112 H112       22.3560  -36.6188  -40.6039 H         1 UNK         0.3472 
    113 H113       21.1539  -37.8583  -40.8624 H         1 UNK         0.3472 
    114 H114       20.2954  -33.7861  -43.1509 H         1 UNK         0.0970 
    115 H115       20.6008  -34.8730  -44.4733 H         1 UNK         0.0970 
    116 H116       21.5129  -31.6833  -42.7063 H         1 UNK         0.0612 
    117 H117       22.4316  -30.7633  -43.8723 H         1 UNK         0.0612 
@<TRIPOS>BOND
     1    1    2 1    
     2    1   62 1    
     3    1   63 1    
     4    1   64 1    
     5    2    3 2    
     6    2    4 am   BACKBONE|DICT|INTERRES
     7    4    5 1    
     8    4   65 1    
     9    5    6 1    
    10    5   25 1    
    11    5   66 1    
    12    6    7 1    
    13    6   67 1    
    14    6   68 1    
    15    7    8 1    
    16    8    9 1    
    17    8   69 1    
    18    8   70 1    
    19    9   10 ar   
    20    9   14 ar   
    21   10   11 ar   
    22   10   71 1    
    23   11   12 ar   
    24   11   61 1    
    25   12   13 ar   
    26   12   72 1    
    27   13   14 ar   
    28   13   15 1    
    29   14   73 1    
    30   15   16 1    
    31   15   74 1    
    32   15   75 1    
    33   16   17 1    
    34   17   18 1    
    35   17   76 1    
    36   17   77 1    
    37   18   19 1    
    38   18   27 1    
    39   18   78 1    
    40   19   20 am   BACKBONE|DICT|INTERRES
    41   19   79 1    
    42   20   21 2    
    43   20   22 1    
    44   22   23 1    
    45   22   24 1    
    46   22   80 1    
    47   23   81 1    
    48   23   82 1    
    49   23   83 1    
    50   24   25 am   BACKBONE|DICT|INTERRES
    51   24   84 1    
    52   25   26 2    
    53   27   28 2    
    54   27   29 am   BACKBONE|DICT|INTERRES
    55   29   30 1    
    56   29   85 1    
    57   30   31 1    
    58   30   32 1    
    59   30   86 1    
    60   31   87 1    
    61   31   88 1    
    62   31   89 1    
    63   32   33 2    
    64   32   34 am   BACKBONE|DICT|INTERRES
    65   34   35 1    
    66   34   90 1    
    67   35   36 1    
    68   35   37 1    
    69   35   91 1    
    70   36   92 1    
    71   36   93 1    
    72   36   94 1    
    73   37   38 2    
    74   37   39 am   BACKBONE|DICT|INTERRES
    75   39   40 1    
    76   39   95 1    
    77   40   41 1    
    78   40   42 1    
    79   40   96 1    
    80   41   97 1    
    81   41   98 1    
    82   41   99 1    
    83   42   43 2    
    84   42   44 am   BACKBONE|DICT|INTERRES
    85   44   45 1    
    86   44  100 1    
    87   45   46 1    
    88   45   47 1    
    89   45  101 1    
    90   46  102 1    
    91   46  103 1    
    92   46  104 1    
    93   47   48 2    
    94   47   49 am   BACKBONE|DICT|INTERRES
    95   49   50 1    
    96   49  105 1    
    97   50   51 1    
    98   50   52 1    
    99   50  106 1    
   100   51  107 1    
   101   51  108 1    
   102   51  109 1    
   103   52   53 2    
   104   52   54 am   BACKBONE|DICT|INTERRES
   105   54   55 1    
   106   54  110 1    
   107   55   56 1    
   108   55   59 1    
   109   55  111 1    
   110   56   57 am   BACKBONE|DICT|INTERRES
   111   56   58 2    
   112   57  112 1    
   113   57  113 1    
   114   59   60 1    
   115   59  114 1    
   116   59  115 1    
   117   60   61 1    
   118   61  116 1    
   119   61  117 1    
@<TRIPOS>SUBSTRUCTURE
     1 UNK         1 GROUP             0       ****    0 ROOT    
