@<TRIPOS>MOLECULE
3R8
117   119    1
SMALL
USER_CHARGES


@<TRIPOS>ATOM
      1 CA         11.4420  -26.1892  -44.2953 C.3       0 UNK        -0.2013 
      2 C          12.8234  -25.5551  -44.3608 C.2       0 UNK         0.4866 
      3 O          12.9360  -24.3541  -44.6089 O.2       0 UNK        -0.5176 
      4 N          13.8731  -26.3492  -44.1355 N.am      1 UNK        -0.4884 
      5 CA         15.2743  -25.9315  -44.1423 C.3       1 UNK         0.0853 
      6 C6         15.8401  -25.6968  -45.5729 C.3       10 UNK        -0.0849 
      7 S7         15.6810  -27.1184  -46.7175 S.3       10 UNK        -0.2776 
      8 C8         17.4219  -27.5739  -47.0664 C.3       10 UNK         0.0316 
      9 C9         18.0046  -28.7322  -46.2482 C.ar      10 UNK        -0.0863 
     10 C10        17.2264  -29.5599  -45.4288 C.ar      10 UNK        -0.1009 
     11 C11        17.7890  -30.6418  -44.7437 C.ar      10 UNK        -0.0712 
     12 C12        19.1565  -30.9065  -44.8997 C.ar      10 UNK        -0.0894 
     13 C13        19.9525  -30.0970  -45.7160 C.ar      10 UNK        -0.0745 
     14 C14        19.3678  -29.0138  -46.3816 C.ar      10 UNK        -0.0972 
     15 C15        21.4180  -30.4549  -45.9502 C.3       10 UNK         0.0209 
     16 S16        22.5585  -29.0371  -45.8225 S.3       10 UNK        -0.2568 
     17 C17        22.8313  -28.8709  -44.0289 C.3       10 UNK        -0.0983 
     18 CA         22.0954  -27.6352  -43.4545 C.3       3 UNK         0.0876 
     19 N          20.6961  -27.9237  -43.1403 N.am      3 UNK        -0.4424 
     20 C          19.7510  -26.9913  -42.9803 C.2       2 UNK         0.4918 
     21 O          19.9248  -25.7833  -43.1613 O.2       2 UNK        -0.4875 
     22 CA         18.3789  -27.4894  -42.5226 C.3       2 UNK         0.0481 
     23 CB         18.2790  -27.5093  -40.9872 C.3       2 UNK        -0.1831 
     24 N          17.3663  -26.6123  -43.0923 N.am      2 UNK        -0.4498 
     25 C          16.0976  -26.9502  -43.3381 C.2       1 UNK         0.5027 
     26 O          15.5825  -28.0135  -42.9772 O.2       1 UNK        -0.4969 
     27 C          22.8026  -27.0602  -42.2137 C.2       3 UNK         0.5005 
     28 O          23.2326  -25.9060  -42.2451 O.2       3 UNK        -0.5279 
     29 N          22.8981  -27.8678  -41.1454 N.am      4 UNK        -0.4463 
     30 CA         23.4572  -27.5721  -39.8170 C.3       4 UNK         0.0283 
     31 CB         22.7036  -26.4222  -39.1212 C.3       4 UNK        -0.1875 
     32 C          24.9775  -27.3394  -39.8119 C.2       4 UNK         0.4949 
     33 O          25.6886  -28.0253  -39.0788 O.2       4 UNK        -0.5039 
     34 N          25.4629  -26.4279  -40.6636 N.am      5 UNK        -0.4663 
     35 CA         26.8862  -26.1537  -40.8936 C.3       5 UNK         0.0242 
     36 CB         27.0255  -24.8882  -41.7539 C.3       5 UNK        -0.1982 
     37 C          27.6244  -27.3365  -41.5463 C.2       5 UNK         0.5017 
     38 O          28.8160  -27.5186  -41.2983 O.2       5 UNK        -0.5012 
     39 N          26.8871  -28.1311  -42.3330 N.am      6 UNK        -0.4439 
     40 CA         27.3160  -29.4063  -42.9108 C.3       6 UNK         0.0297 
     41 CB         27.1008  -29.3690  -44.4357 C.3       6 UNK        -0.2006 
     42 C          26.5822  -30.5890  -42.2459 C.2       6 UNK         0.4892 
     43 O          26.4365  -31.6377  -42.8749 O.2       6 UNK        -0.5089 
     44 N          26.1368  -30.4009  -40.9924 N.am      7 UNK        -0.4243 
     45 CA         25.3806  -31.3413  -40.1610 C.3       7 UNK         0.0196 
     46 CB         26.2573  -32.5528  -39.7664 C.3       7 UNK        -0.2007 
     47 C          24.0255  -31.7052  -40.7973 C.2       7 UNK         0.5020 
     48 O          23.2210  -30.8015  -41.0471 O.2       7 UNK        -0.5147 
     49 N          23.7866  -33.0063  -41.0205 N.am      8 UNK        -0.4734 
     50 CA         22.5589  -33.6074  -41.5517 C.3       8 UNK         0.0238 
     51 CB         22.3794  -33.2422  -43.0433 C.3       8 UNK        -0.1912 
     52 C          21.3502  -33.2629  -40.6624 C.2       8 UNK         0.5038 
     53 O          21.2871  -33.7427  -39.5291 O.2       8 UNK        -0.5046 
     54 N          20.4398  -32.4289  -41.1754 N.am      9 UNK        -0.4200 
     55 CA         19.2786  -31.8927  -40.4511 C.3       9 UNK         0.0839 
     56 C          19.6322  -30.8233  -39.3759 C.2       9 UNK         0.5513 
     57 N          20.8528  -30.3014  -39.3243 N.am      9 UNK        -0.7519 
     58 O          18.7763  -30.4580  -38.5750 O.2       9 UNK        -0.4960 
     59 C59        18.2021  -31.3503  -41.4256 C.3       10 UNK        -0.0876 
     60 S60        17.6681  -32.5856  -42.6559 S.3       10 UNK        -0.2414 
     61 C61        16.8604  -31.5186  -43.8984 C.3       10 UNK         0.0169 
     62 H62        10.9275  -26.0658  -45.2480 H         1 UNK         0.0903 
     63 H63        11.4932  -27.2553  -44.0739 H         1 UNK         0.0903 
     64 H64        10.8448  -25.7097  -43.5200 H         1 UNK         0.0903 
     65 H65        13.7492  -27.3240  -43.8873 H         1 UNK         0.3096 
     66 H66        15.3381  -24.9903  -43.5909 H         1 UNK         0.1121 
     67 H67        16.8795  -25.3693  -45.5252 H         1 UNK         0.0849 
     68 H68        15.3088  -24.8605  -46.0293 H         1 UNK         0.0849 
     69 H69        17.4763  -27.8580  -48.1185 H         1 UNK         0.0865 
     70 H70        18.0614  -26.6958  -46.9647 H         1 UNK         0.0865 
     71 H71        16.1661  -29.3802  -45.3243 H         1 UNK         0.1346 
     72 H72        19.6008  -31.7644  -44.4167 H         1 UNK         0.1412 
     73 H73        19.9762  -28.4024  -47.0345 H         1 UNK         0.1426 
     74 H74        21.5032  -30.8659  -46.9569 H         1 UNK         0.0716 
     75 H75        21.7473  -31.2455  -45.2768 H         1 UNK         0.0716 
     76 H76        22.5435  -29.7863  -43.5113 H         1 UNK         0.0695 
     77 H77        23.9094  -28.7803  -43.8921 H         1 UNK         0.0695 
     78 H78        22.1172  -26.8436  -44.2079 H         1 UNK         0.0983 
     79 H79        20.4563  -28.8935  -43.0075 H         1 UNK         0.3095 
     80 H80        18.2309  -28.4943  -42.9161 H         1 UNK         0.0454 
     81 H81        18.3465  -26.5049  -40.5677 H         1 UNK         0.0851 
     82 H82        19.0845  -28.0977  -40.5474 H         1 UNK         0.0851 
     83 H83        17.3385  -27.9493  -40.6555 H         1 UNK         0.0851 
     84 H84        17.7331  -25.7281  -43.4231 H         1 UNK         0.2976 
     85 H85        22.6161  -28.8360  -41.2609 H         1 UNK         0.3116 
     86 H86        23.2832  -28.4727  -39.2261 H         1 UNK         0.0646 
     87 H87        22.8308  -25.4718  -39.6398 H         1 UNK         0.0847 
     88 H88        23.0642  -26.2835  -38.1013 H         1 UNK         0.0847 
     89 H89        21.6352  -26.6296  -39.0619 H         1 UNK         0.0847 
     90 H90        24.7875  -25.9429  -41.2525 H         1 UNK         0.3040 
     91 H91        27.3560  -25.9685  -39.9250 H         1 UNK         0.1015 
     92 H92        26.5507  -25.0077  -42.7286 H         1 UNK         0.0786 
     93 H93        28.0752  -24.6477  -41.9283 H         1 UNK         0.0786 
     94 H94        26.5737  -24.0251  -41.2647 H         1 UNK         0.0786 
     95 H95        25.9166  -27.8844  -42.4599 H         1 UNK         0.3172 
     96 H96        28.3810  -29.5620  -42.7289 H         1 UNK         0.0595 
     97 H97        27.4926  -30.2706  -44.9083 H         1 UNK         0.0839 
     98 H98        27.6162  -28.5215  -44.8878 H         1 UNK         0.0839 
     99 H99        26.0456  -29.2989  -44.6983 H         1 UNK         0.0839 
    100 H100       26.2971  -29.4978  -40.5630 H         1 UNK         0.2998 
    101 H101       25.1378  -30.8045  -39.2428 H         1 UNK         0.0822 
    102 H102       25.7379  -33.2059  -39.0639 H         1 UNK         0.0787 
    103 H103       26.5502  -33.1527  -40.6287 H         1 UNK         0.0787 
    104 H104       27.1718  -32.2242  -39.2725 H         1 UNK         0.0787 
    105 H105       24.5101  -33.6601  -40.7559 H         1 UNK         0.3055 
    106 H106       22.6813  -34.6900  -41.4892 H         1 UNK         0.1106 
    107 H107       21.4834  -33.7038  -43.4609 H         1 UNK         0.0828 
    108 H108       22.3085  -32.1668  -43.1979 H         1 UNK         0.0828 
    109 H109       23.2244  -33.5977  -43.6332 H         1 UNK         0.0828 
    110 H110       20.5842  -32.0799  -42.1087 H         1 UNK         0.2931 
    111 H111       18.8296  -32.7254  -39.9060 H         1 UNK         0.0412 
    112 H112       21.5815  -30.6137  -39.9557 H         1 UNK         0.3472 
    113 H113       21.0589  -29.6216  -38.6109 H         1 UNK         0.3472 
    114 H114       17.3182  -31.0142  -40.8795 H         1 UNK         0.0970 
    115 H115       18.5879  -30.4786  -41.9506 H         1 UNK         0.0970 
    116 H116       16.2927  -32.1589  -44.5746 H         1 UNK         0.0612 
    117 H117       16.1310  -30.8900  -43.3844 H         1 UNK         0.0612 
@<TRIPOS>BOND
     1    1    2 1    
     2    1   62 1    
     3    1   63 1    
     4    1   64 1    
     5    2    3 2    
     6    2    4 am   BACKBONE|DICT|INTERRES
     7    4    5 1    
     8    4   65 1    
     9    5    6 1    
    10    5   25 1    
    11    5   66 1    
    12    6    7 1    
    13    6   67 1    
    14    6   68 1    
    15    7    8 1    
    16    8    9 1    
    17    8   69 1    
    18    8   70 1    
    19    9   10 ar   
    20    9   14 ar   
    21   10   11 ar   
    22   10   71 1    
    23   11   12 ar   
    24   11   61 1    
    25   12   13 ar   
    26   12   72 1    
    27   13   14 ar   
    28   13   15 1    
    29   14   73 1    
    30   15   16 1    
    31   15   74 1    
    32   15   75 1    
    33   16   17 1    
    34   17   18 1    
    35   17   76 1    
    36   17   77 1    
    37   18   19 1    
    38   18   27 1    
    39   18   78 1    
    40   19   20 am   BACKBONE|DICT|INTERRES
    41   19   79 1    
    42   20   21 2    
    43   20   22 1    
    44   22   23 1    
    45   22   24 1    
    46   22   80 1    
    47   23   81 1    
    48   23   82 1    
    49   23   83 1    
    50   24   25 am   BACKBONE|DICT|INTERRES
    51   24   84 1    
    52   25   26 2    
    53   27   28 2    
    54   27   29 am   BACKBONE|DICT|INTERRES
    55   29   30 1    
    56   29   85 1    
    57   30   31 1    
    58   30   32 1    
    59   30   86 1    
    60   31   87 1    
    61   31   88 1    
    62   31   89 1    
    63   32   33 2    
    64   32   34 am   BACKBONE|DICT|INTERRES
    65   34   35 1    
    66   34   90 1    
    67   35   36 1    
    68   35   37 1    
    69   35   91 1    
    70   36   92 1    
    71   36   93 1    
    72   36   94 1    
    73   37   38 2    
    74   37   39 am   BACKBONE|DICT|INTERRES
    75   39   40 1    
    76   39   95 1    
    77   40   41 1    
    78   40   42 1    
    79   40   96 1    
    80   41   97 1    
    81   41   98 1    
    82   41   99 1    
    83   42   43 2    
    84   42   44 am   BACKBONE|DICT|INTERRES
    85   44   45 1    
    86   44  100 1    
    87   45   46 1    
    88   45   47 1    
    89   45  101 1    
    90   46  102 1    
    91   46  103 1    
    92   46  104 1    
    93   47   48 2    
    94   47   49 am   BACKBONE|DICT|INTERRES
    95   49   50 1    
    96   49  105 1    
    97   50   51 1    
    98   50   52 1    
    99   50  106 1    
   100   51  107 1    
   101   51  108 1    
   102   51  109 1    
   103   52   53 2    
   104   52   54 am   BACKBONE|DICT|INTERRES
   105   54   55 1    
   106   54  110 1    
   107   55   56 1    
   108   55   59 1    
   109   55  111 1    
   110   56   57 am   BACKBONE|DICT|INTERRES
   111   56   58 2    
   112   57  112 1    
   113   57  113 1    
   114   59   60 1    
   115   59  114 1    
   116   59  115 1    
   117   60   61 1    
   118   61  116 1    
   119   61  117 1    
@<TRIPOS>SUBSTRUCTURE
     1 UNK         1 GROUP             0       ****    0 ROOT    
