@<TRIPOS>MOLECULE
3R8
117   119    1
SMALL
USER_CHARGES


@<TRIPOS>ATOM
      1 CA         15.6265  -22.5656  -42.3187 C.3       0 UNK        -0.2013 
      2 C          15.9899  -23.2837  -43.6096 C.2       0 UNK         0.4866 
      3 O          15.9143  -22.6874  -44.6838 O.2       0 UNK        -0.5176 
      4 N          16.3919  -24.5588  -43.5133 N.am      1 UNK        -0.4884 
      5 CA         16.7695  -25.4089  -44.6540 C.3       1 UNK         0.0853 
      6 C6         16.4990  -26.9086  -44.3480 C.3       10 UNK        -0.0849 
      7 S7         15.7919  -27.7861  -45.7825 S.3       10 UNK        -0.2776 
      8 C8         15.7636  -29.5108  -45.1830 C.3       10 UNK         0.0316 
      9 C9         17.1526  -30.0652  -44.8832 C.ar      10 UNK        -0.0863 
     10 C10        17.3972  -30.7389  -43.6830 C.ar      10 UNK        -0.1009 
     11 C11        18.6693  -31.2432  -43.3913 C.ar      10 UNK        -0.0712 
     12 C12        19.7080  -31.0451  -44.3100 C.ar      10 UNK        -0.0894 
     13 C13        19.4764  -30.3854  -45.5205 C.ar      10 UNK        -0.0745 
     14 C14        18.1911  -29.9171  -45.8062 C.ar      10 UNK        -0.0972 
     15 C15        20.6010  -30.2108  -46.5344 C.3       10 UNK         0.0209 
     16 S16        20.7365  -28.4905  -47.1303 S.3       10 UNK        -0.2568 
     17 C17        22.3698  -27.9660  -46.5115 C.3       10 UNK        -0.0983 
     18 CA         22.3347  -27.1122  -45.2205 C.3       3 UNK         0.0876 
     19 N          21.3924  -25.9857  -45.2911 N.am      3 UNK        -0.4424 
     20 C          21.4011  -24.9353  -44.4594 C.2       2 UNK         0.4918 
     21 O          22.1875  -24.8246  -43.5185 O.2       2 UNK        -0.4875 
     22 CA         20.3420  -23.8446  -44.6799 C.3       2 UNK         0.0481 
     23 CB         20.4914  -23.1626  -46.0551 C.3       2 UNK        -0.1831 
     24 N          18.9684  -24.3009  -44.4318 N.am      2 UNK        -0.4498 
     25 C          18.2189  -25.1580  -45.1438 C.2       1 UNK         0.5027 
     26 O          18.6288  -25.7385  -46.1490 O.2       1 UNK        -0.4969 
     27 C          22.1778  -27.9685  -43.9470 C.2       3 UNK         0.5005 
     28 O          23.1314  -28.6439  -43.5594 O.2       3 UNK        -0.5279 
     29 N          21.0304  -27.8573  -43.2618 N.am      4 UNK        -0.4463 
     30 CA         20.7702  -28.4218  -41.9337 C.3       4 UNK         0.0283 
     31 CB         19.3161  -28.1216  -41.5367 C.3       4 UNK        -0.1875 
     32 C          21.7351  -27.9329  -40.8340 C.2       4 UNK         0.4949 
     33 O          21.8825  -28.6169  -39.8234 O.2       4 UNK        -0.5039 
     34 N          22.3849  -26.7769  -41.0403 N.am      5 UNK        -0.4663 
     35 CA         23.4388  -26.2641  -40.1613 C.3       5 UNK         0.0242 
     36 CB         23.6062  -24.7556  -40.4049 C.3       5 UNK        -0.1982 
     37 C          24.7868  -26.9888  -40.3444 C.2       5 UNK         0.5017 
     38 O          25.6100  -26.9459  -39.4293 O.2       5 UNK        -0.5012 
     39 N          25.0004  -27.6145  -41.5109 N.am      6 UNK        -0.4439 
     40 CA         26.2244  -28.3377  -41.8634 C.3       6 UNK         0.0297 
     41 CB         26.6361  -27.9632  -43.2972 C.3       6 UNK        -0.2006 
     42 C          26.0433  -29.8585  -41.7398 C.2       6 UNK         0.4892 
     43 O          26.9758  -30.5422  -41.3146 O.2       6 UNK        -0.5089 
     44 N          24.8634  -30.3608  -42.1271 N.am      7 UNK        -0.4243 
     45 CA         24.4830  -31.7725  -42.0755 C.3       7 UNK         0.0196 
     46 CB         23.1892  -31.9521  -42.8842 C.3       7 UNK        -0.2007 
     47 C          24.2916  -32.2921  -40.6392 C.2       7 UNK         0.5020 
     48 O          24.1097  -31.5083  -39.7058 O.2       7 UNK        -0.5147 
     49 N          24.3086  -33.6237  -40.4969 N.am      8 UNK        -0.4734 
     50 CA         24.0957  -34.3202  -39.2232 C.3       8 UNK         0.0238 
     51 CB         24.6481  -35.7512  -39.3337 C.3       8 UNK        -0.1912 
     52 C          22.6230  -34.3473  -38.7725 C.2       8 UNK         0.5038 
     53 O          22.3690  -34.5089  -37.5777 O.2       8 UNK        -0.5046 
     54 N          21.6875  -34.2168  -39.7226 N.am      9 UNK        -0.4200 
     55 CA         20.2402  -34.1486  -39.4769 C.3       9 UNK         0.0839 
     56 C          19.7873  -32.8442  -38.7627 C.2       9 UNK         0.5513 
     57 N          18.6208  -32.8626  -38.1313 N.am      9 UNK        -0.7519 
     58 O          20.4569  -31.8156  -38.7958 O.2       9 UNK        -0.4960 
     59 C59        19.4157  -34.4379  -40.7620 C.3       10 UNK        -0.0876 
     60 S60        19.9028  -33.4859  -42.2448 S.3       10 UNK        -0.2414 
     61 C61        18.9031  -31.9701  -42.0688 C.3       10 UNK         0.0169 
     62 H62        15.7442  -23.2077  -41.4460 H         1 UNK         0.0903 
     63 H63        16.2617  -21.6904  -42.1841 H         1 UNK         0.0903 
     64 H64        14.5900  -22.2313  -42.3553 H         1 UNK         0.0903 
     65 H65        16.4338  -24.9964  -42.6029 H         1 UNK         0.3096 
     66 H66        16.1300  -25.1140  -45.4897 H         1 UNK         0.1121 
     67 H67        17.4023  -27.4194  -44.0108 H         1 UNK         0.0849 
     68 H68        15.7789  -27.0150  -43.5349 H         1 UNK         0.0849 
     69 H69        15.1250  -29.5634  -44.2997 H         1 UNK         0.0865 
     70 H70        15.2933  -30.1390  -45.9405 H         1 UNK         0.0865 
     71 H71        16.5941  -30.8692  -42.9703 H         1 UNK         0.1346 
     72 H72        20.6965  -31.4183  -44.0888 H         1 UNK         0.1412 
     73 H73        18.0034  -29.4126  -46.7443 H         1 UNK         0.1426 
     74 H74        21.5516  -30.5439  -46.1160 H         1 UNK         0.0716 
     75 H75        20.4004  -30.8587  -47.3886 H         1 UNK         0.0716 
     76 H76        23.0295  -28.8283  -46.3979 H         1 UNK         0.0695 
     77 H77        22.8226  -27.3711  -47.3061 H         1 UNK         0.0695 
     78 H78        23.3283  -26.6670  -45.1279 H         1 UNK         0.0983 
     79 H79        20.6539  -26.0491  -45.9855 H         1 UNK         0.3095 
     80 H80        20.5291  -23.0769  -43.9273 H         1 UNK         0.0454 
     81 H81        20.3200  -23.8495  -46.8840 H         1 UNK         0.0851 
     82 H82        19.7922  -22.3333  -46.1611 H         1 UNK         0.0851 
     83 H83        21.4958  -22.7554  -46.1781 H         1 UNK         0.0851 
     84 H84        18.5282  -23.8995  -43.6156 H         1 UNK         0.2976 
     85 H85        20.3011  -27.2904  -43.6670 H         1 UNK         0.3116 
     86 H86        20.8933  -29.5029  -42.0096 H         1 UNK         0.0646 
     87 H87        19.1292  -27.0497  -41.4633 H         1 UNK         0.0847 
     88 H88        19.0794  -28.5619  -40.5670 H         1 UNK         0.0847 
     89 H89        18.6132  -28.5390  -42.2559 H         1 UNK         0.0847 
     90 H90        22.2003  -26.2476  -41.8851 H         1 UNK         0.3040 
     91 H91        23.1288  -26.4085  -39.1236 H         1 UNK         0.1015 
     92 H92        22.6700  -24.2203  -40.2450 H         1 UNK         0.0786 
     93 H93        23.9436  -24.5456  -41.4207 H         1 UNK         0.0786 
     94 H94        24.3434  -24.3298  -39.7228 H         1 UNK         0.0786 
     95 H95        24.2431  -27.6576  -42.1835 H         1 UNK         0.3172 
     96 H96        27.0387  -28.0452  -41.1970 H         1 UNK         0.0595 
     97 H97        26.8223  -26.8930  -43.3885 H         1 UNK         0.0839 
     98 H98        25.8696  -28.2330  -44.0249 H         1 UNK         0.0839 
     99 H99        27.5541  -28.4771  -43.5855 H         1 UNK         0.0839 
    100 H100       24.1684  -29.7256  -42.5114 H         1 UNK         0.2998 
    101 H101       25.2793  -32.3509  -42.5488 H         1 UNK         0.0822 
    102 H102       23.2962  -31.5683  -43.8992 H         1 UNK         0.0787 
    103 H103       22.9131  -33.0039  -42.9649 H         1 UNK         0.0787 
    104 H104       22.3565  -31.4283  -42.4133 H         1 UNK         0.0787 
    105 H105       24.4676  -34.2017  -41.3105 H         1 UNK         0.3055 
    106 H106       24.6587  -33.7973  -38.4462 H         1 UNK         0.1106 
    107 H107       24.5321  -36.2880  -38.3909 H         1 UNK         0.0828 
    108 H108       24.1303  -36.3276  -40.1014 H         1 UNK         0.0828 
    109 H109       25.7117  -35.7495  -39.5729 H         1 UNK         0.0828 
    110 H110       21.9810  -34.0507  -40.6730 H         1 UNK         0.2931 
    111 H111       20.0165  -34.9588  -38.7794 H         1 UNK         0.0412 
    112 H112       18.3034  -32.0250  -37.6685 H         1 UNK         0.3472 
    113 H113       18.0591  -33.6990  -38.0908 H         1 UNK         0.3472 
    114 H114       18.3459  -34.3185  -40.5818 H         1 UNK         0.0970 
    115 H115       19.5364  -35.4916  -41.0177 H         1 UNK         0.0970 
    116 H116       19.4020  -31.2935  -41.3749 H         1 UNK         0.0612 
    117 H117       17.9460  -32.2300  -41.6146 H         1 UNK         0.0612 
@<TRIPOS>BOND
     1    1    2 1    
     2    1   62 1    
     3    1   63 1    
     4    1   64 1    
     5    2    3 2    
     6    2    4 am   BACKBONE|DICT|INTERRES
     7    4    5 1    
     8    4   65 1    
     9    5    6 1    
    10    5   25 1    
    11    5   66 1    
    12    6    7 1    
    13    6   67 1    
    14    6   68 1    
    15    7    8 1    
    16    8    9 1    
    17    8   69 1    
    18    8   70 1    
    19    9   10 ar   
    20    9   14 ar   
    21   10   11 ar   
    22   10   71 1    
    23   11   12 ar   
    24   11   61 1    
    25   12   13 ar   
    26   12   72 1    
    27   13   14 ar   
    28   13   15 1    
    29   14   73 1    
    30   15   16 1    
    31   15   74 1    
    32   15   75 1    
    33   16   17 1    
    34   17   18 1    
    35   17   76 1    
    36   17   77 1    
    37   18   19 1    
    38   18   27 1    
    39   18   78 1    
    40   19   20 am   BACKBONE|DICT|INTERRES
    41   19   79 1    
    42   20   21 2    
    43   20   22 1    
    44   22   23 1    
    45   22   24 1    
    46   22   80 1    
    47   23   81 1    
    48   23   82 1    
    49   23   83 1    
    50   24   25 am   BACKBONE|DICT|INTERRES
    51   24   84 1    
    52   25   26 2    
    53   27   28 2    
    54   27   29 am   BACKBONE|DICT|INTERRES
    55   29   30 1    
    56   29   85 1    
    57   30   31 1    
    58   30   32 1    
    59   30   86 1    
    60   31   87 1    
    61   31   88 1    
    62   31   89 1    
    63   32   33 2    
    64   32   34 am   BACKBONE|DICT|INTERRES
    65   34   35 1    
    66   34   90 1    
    67   35   36 1    
    68   35   37 1    
    69   35   91 1    
    70   36   92 1    
    71   36   93 1    
    72   36   94 1    
    73   37   38 2    
    74   37   39 am   BACKBONE|DICT|INTERRES
    75   39   40 1    
    76   39   95 1    
    77   40   41 1    
    78   40   42 1    
    79   40   96 1    
    80   41   97 1    
    81   41   98 1    
    82   41   99 1    
    83   42   43 2    
    84   42   44 am   BACKBONE|DICT|INTERRES
    85   44   45 1    
    86   44  100 1    
    87   45   46 1    
    88   45   47 1    
    89   45  101 1    
    90   46  102 1    
    91   46  103 1    
    92   46  104 1    
    93   47   48 2    
    94   47   49 am   BACKBONE|DICT|INTERRES
    95   49   50 1    
    96   49  105 1    
    97   50   51 1    
    98   50   52 1    
    99   50  106 1    
   100   51  107 1    
   101   51  108 1    
   102   51  109 1    
   103   52   53 2    
   104   52   54 am   BACKBONE|DICT|INTERRES
   105   54   55 1    
   106   54  110 1    
   107   55   56 1    
   108   55   59 1    
   109   55  111 1    
   110   56   57 am   BACKBONE|DICT|INTERRES
   111   56   58 2    
   112   57  112 1    
   113   57  113 1    
   114   59   60 1    
   115   59  114 1    
   116   59  115 1    
   117   60   61 1    
   118   61  116 1    
   119   61  117 1    
@<TRIPOS>SUBSTRUCTURE
     1 UNK         1 GROUP             0       ****    0 ROOT    
