@<TRIPOS>MOLECULE
3R8
117   119    1
SMALL
USER_CHARGES


@<TRIPOS>ATOM
      1 CA         11.9014  -24.6071  -43.4025 C.3       0 UNK        -0.2013 
      2 C          13.1018  -24.5347  -44.3346 C.2       0 UNK         0.4866 
      3 O          13.1865  -23.6190  -45.1540 O.2       0 UNK        -0.5176 
      4 N          14.0253  -25.4973  -44.2231 N.am      1 UNK        -0.4884 
      5 CA         15.2665  -25.5614  -45.0014 C.3       1 UNK         0.0853 
      6 C6         15.9507  -26.9403  -44.8691 C.3       10 UNK        -0.0849 
      7 S7         14.9946  -28.2827  -45.6589 S.3       10 UNK        -0.2776 
      8 C8         15.6981  -29.7843  -44.8826 C.3       10 UNK         0.0316 
      9 C9         17.2081  -29.7008  -44.6883 C.ar      10 UNK        -0.0863 
     10 C10        17.7590  -29.8181  -43.4088 C.ar      10 UNK        -0.1009 
     11 C11        19.1305  -29.6396  -43.2032 C.ar      10 UNK        -0.0712 
     12 C12        19.9512  -29.3339  -44.2961 C.ar      10 UNK        -0.0894 
     13 C13        19.4115  -29.2088  -45.5790 C.ar      10 UNK        -0.0745 
     14 C14        18.0465  -29.4337  -45.7737 C.ar      10 UNK        -0.0972 
     15 C15        20.2798  -28.7854  -46.7541 C.3       10 UNK         0.0209 
     16 S16        19.7865  -27.1363  -47.3660 S.3       10 UNK        -0.2568 
     17 C17        21.1642  -26.0488  -46.8529 C.3       10 UNK        -0.0983 
     18 CA         20.8853  -25.1330  -45.6268 C.3       3 UNK         0.0876 
     19 N          19.5913  -24.4525  -45.7242 N.am      3 UNK        -0.4424 
     20 C          19.2914  -23.2825  -45.1454 C.2       2 UNK         0.4918 
     21 O          20.0939  -22.6192  -44.4872 O.2       2 UNK        -0.4875 
     22 CA         17.8673  -22.7373  -45.3560 C.3       2 UNK         0.0481 
     23 CB         17.8406  -21.7745  -46.5543 C.3       2 UNK        -0.1831 
     24 N          16.8736  -23.7947  -45.5661 N.am      2 UNK        -0.4498 
     25 C          16.2449  -24.4461  -44.5776 C.2       1 UNK         0.5027 
     26 O          16.4234  -24.2168  -43.3784 O.2       1 UNK        -0.4969 
     27 C          21.0506  -25.8754  -44.2846 C.2       3 UNK         0.5005 
     28 O          20.0795  -26.0786  -43.5516 O.2       3 UNK        -0.5279 
     29 N          22.2948  -26.2758  -44.0018 N.am      4 UNK        -0.4463 
     30 CA         22.6961  -27.1184  -42.8823 C.3       4 UNK         0.0283 
     31 CB         23.1634  -26.2481  -41.7043 C.3       4 UNK        -0.1875 
     32 C          23.8219  -28.0281  -43.3844 C.2       4 UNK         0.4949 
     33 O          24.6346  -27.5864  -44.2001 O.2       4 UNK        -0.5039 
     34 N          23.8513  -29.2689  -42.8903 N.am      5 UNK        -0.4663 
     35 CA         24.8162  -30.3068  -43.2667 C.3       5 UNK         0.0242 
     36 CB         24.0724  -31.4480  -43.9854 C.3       5 UNK        -0.1982 
     37 C          25.6160  -30.7925  -42.0448 C.2       5 UNK         0.5017 
     38 O          26.0001  -31.9624  -41.9858 O.2       5 UNK        -0.5012 
     39 N          25.8552  -29.8794  -41.0906 N.am      6 UNK        -0.4439 
     40 CA         26.6274  -30.0638  -39.8572 C.3       6 UNK         0.0297 
     41 CB         28.1360  -30.1640  -40.1818 C.3       6 UNK        -0.2006 
     42 C          26.0820  -31.2285  -39.0084 C.2       6 UNK         0.4892 
     43 O          24.9143  -31.1849  -38.6179 O.2       6 UNK        -0.5089 
     44 N          26.9106  -32.2518  -38.7593 N.am      7 UNK        -0.4243 
     45 CA         26.5937  -33.4399  -37.9604 C.3       7 UNK         0.0196 
     46 CB         27.8601  -34.3006  -37.8219 C.3       7 UNK        -0.2007 
     47 C          25.4238  -34.2894  -38.4923 C.2       7 UNK         0.5020 
     48 O          24.8263  -35.0287  -37.7099 O.2       7 UNK        -0.5147 
     49 N          25.1010  -34.1733  -39.7891 N.am      8 UNK        -0.4734 
     50 CA         23.9334  -34.8225  -40.3937 C.3       8 UNK         0.0238 
     51 CB         24.1170  -34.8945  -41.9174 C.3       8 UNK        -0.1912 
     52 C          22.6054  -34.1292  -40.0336 C.2       8 UNK         0.5038 
     53 O          21.5630  -34.7835  -40.0884 O.2       8 UNK        -0.5046 
     54 N          22.6634  -32.8411  -39.6711 N.am      9 UNK        -0.4200 
     55 CA         21.5221  -32.0432  -39.2000 C.3       9 UNK         0.0839 
     56 C          21.5009  -31.9301  -37.6534 C.2       9 UNK         0.5513 
     57 N          22.6439  -31.7927  -36.9930 N.am      9 UNK        -0.7519 
     58 O          20.4344  -31.9735  -37.0460 O.2       9 UNK        -0.4960 
     59 C59        21.5048  -30.6382  -39.8523 C.3       10 UNK        -0.0876 
     60 S60        21.1790  -30.7354  -41.6446 S.3       10 UNK        -0.2414 
     61 C61        19.6911  -29.6970  -41.7860 C.3       10 UNK         0.0169 
     62 H62        10.9804  -24.6723  -43.9812 H         1 UNK         0.0903 
     63 H63        11.9487  -25.4732  -42.7425 H         1 UNK         0.0903 
     64 H64        11.8527  -23.7115  -42.7837 H         1 UNK         0.0903 
     65 H65        13.9101  -26.2207  -43.5279 H         1 UNK         0.3096 
     66 H66        15.0068  -25.4060  -46.0513 H         1 UNK         0.1121 
     67 H67        16.9358  -26.9196  -45.3403 H         1 UNK         0.0849 
     68 H68        16.1225  -27.1837  -43.8184 H         1 UNK         0.0849 
     69 H69        15.1961  -29.9449  -43.9272 H         1 UNK         0.0865 
     70 H70        15.4622  -30.6509  -45.5016 H         1 UNK         0.0865 
     71 H71        17.1129  -30.0143  -42.5640 H         1 UNK         0.1346 
     72 H72        21.0066  -29.1659  -44.1451 H         1 UNK         0.1412 
     73 H73        17.6225  -29.3232  -46.7628 H         1 UNK         0.1426 
     74 H74        20.1603  -29.5091  -47.5615 H         1 UNK         0.0716 
     75 H75        21.3370  -28.7993  -46.4863 H         1 UNK         0.0716 
     76 H76        22.0744  -26.6355  -46.7200 H         1 UNK         0.0695 
     77 H77        21.3755  -25.4087  -47.7110 H         1 UNK         0.0695 
     78 H78        21.6568  -24.3590  -45.6320 H         1 UNK         0.0983 
     79 H79        18.8712  -24.9589  -46.2161 H         1 UNK         0.3095 
     80 H80        17.5972  -22.1654  -44.4655 H         1 UNK         0.0454 
     81 H81        18.5509  -20.9584  -46.4143 H         1 UNK         0.0851 
     82 H82        18.1028  -22.2771  -47.4861 H         1 UNK         0.0851 
     83 H83        16.8555  -21.3248  -46.6802 H         1 UNK         0.0851 
     84 H84        16.6592  -24.0302  -46.5250 H         1 UNK         0.2976 
     85 H85        23.0403  -26.1090  -44.6674 H         1 UNK         0.3116 
     86 H86        21.8555  -27.7328  -42.5581 H         1 UNK         0.0646 
     87 H87        23.4607  -26.8650  -40.8555 H         1 UNK         0.0847 
     88 H88        22.3661  -25.5886  -41.3609 H         1 UNK         0.0847 
     89 H89        24.0181  -25.6267  -41.9748 H         1 UNK         0.0847 
     90 H90        23.1359  -29.5549  -42.2324 H         1 UNK         0.3040 
     91 H91        25.5558  -29.9046  -43.9625 H         1 UNK         0.1015 
     92 H92        23.5459  -31.0813  -44.8667 H         1 UNK         0.0786 
     93 H93        23.3389  -31.9239  -43.3350 H         1 UNK         0.0786 
     94 H94        24.7643  -32.2207  -44.3229 H         1 UNK         0.0786 
     95 H95        25.4631  -28.9589  -41.2281 H         1 UNK         0.3172 
     96 H96        26.4781  -29.1625  -39.2609 H         1 UNK         0.0595 
     97 H97        28.4761  -29.2798  -40.7211 H         1 UNK         0.0839 
     98 H98        28.3709  -31.0313  -40.8003 H         1 UNK         0.0839 
     99 H99        28.7355  -30.2261  -39.2725 H         1 UNK         0.0839 
    100 H100       27.8401  -32.2100  -39.1511 H         1 UNK         0.2998 
    101 H101       26.3057  -33.0929  -36.9657 H         1 UNK         0.0822 
    102 H102       28.6696  -33.7449  -37.3483 H         1 UNK         0.0787 
    103 H103       27.6701  -35.1798  -37.2044 H         1 UNK         0.0787 
    104 H104       28.2148  -34.6540  -38.7911 H         1 UNK         0.0787 
    105 H105       25.6307  -33.5383  -40.3758 H         1 UNK         0.3055 
    106 H106       23.8726  -35.8460  -40.0160 H         1 UNK         0.1106 
    107 H107       24.1879  -33.9032  -42.3615 H         1 UNK         0.0828 
    108 H108       25.0188  -35.4459  -42.1835 H         1 UNK         0.0828 
    109 H109       23.2749  -35.4029  -42.3890 H         1 UNK         0.0828 
    110 H110       23.5704  -32.3982  -39.5883 H         1 UNK         0.2931 
    111 H111       20.5919  -32.5398  -39.4840 H         1 UNK         0.0412 
    112 H112       22.6304  -31.7255  -35.9879 H         1 UNK         0.3472 
    113 H113       23.5171  -31.6732  -37.4992 H         1 UNK         0.3472 
    114 H114       22.4565  -30.1276  -39.6928 H         1 UNK         0.0970 
    115 H115       20.7447  -30.0089  -39.3850 H         1 UNK         0.0970 
    116 H116       19.9246  -28.6827  -41.4600 H         1 UNK         0.0612 
    117 H117       18.9386  -30.0812  -41.0954 H         1 UNK         0.0612 
@<TRIPOS>BOND
     1    1    2 1    
     2    1   62 1    
     3    1   63 1    
     4    1   64 1    
     5    2    3 2    
     6    2    4 am   BACKBONE|DICT|INTERRES
     7    4    5 1    
     8    4   65 1    
     9    5    6 1    
    10    5   25 1    
    11    5   66 1    
    12    6    7 1    
    13    6   67 1    
    14    6   68 1    
    15    7    8 1    
    16    8    9 1    
    17    8   69 1    
    18    8   70 1    
    19    9   10 ar   
    20    9   14 ar   
    21   10   11 ar   
    22   10   71 1    
    23   11   12 ar   
    24   11   61 1    
    25   12   13 ar   
    26   12   72 1    
    27   13   14 ar   
    28   13   15 1    
    29   14   73 1    
    30   15   16 1    
    31   15   74 1    
    32   15   75 1    
    33   16   17 1    
    34   17   18 1    
    35   17   76 1    
    36   17   77 1    
    37   18   19 1    
    38   18   27 1    
    39   18   78 1    
    40   19   20 am   BACKBONE|DICT|INTERRES
    41   19   79 1    
    42   20   21 2    
    43   20   22 1    
    44   22   23 1    
    45   22   24 1    
    46   22   80 1    
    47   23   81 1    
    48   23   82 1    
    49   23   83 1    
    50   24   25 am   BACKBONE|DICT|INTERRES
    51   24   84 1    
    52   25   26 2    
    53   27   28 2    
    54   27   29 am   BACKBONE|DICT|INTERRES
    55   29   30 1    
    56   29   85 1    
    57   30   31 1    
    58   30   32 1    
    59   30   86 1    
    60   31   87 1    
    61   31   88 1    
    62   31   89 1    
    63   32   33 2    
    64   32   34 am   BACKBONE|DICT|INTERRES
    65   34   35 1    
    66   34   90 1    
    67   35   36 1    
    68   35   37 1    
    69   35   91 1    
    70   36   92 1    
    71   36   93 1    
    72   36   94 1    
    73   37   38 2    
    74   37   39 am   BACKBONE|DICT|INTERRES
    75   39   40 1    
    76   39   95 1    
    77   40   41 1    
    78   40   42 1    
    79   40   96 1    
    80   41   97 1    
    81   41   98 1    
    82   41   99 1    
    83   42   43 2    
    84   42   44 am   BACKBONE|DICT|INTERRES
    85   44   45 1    
    86   44  100 1    
    87   45   46 1    
    88   45   47 1    
    89   45  101 1    
    90   46  102 1    
    91   46  103 1    
    92   46  104 1    
    93   47   48 2    
    94   47   49 am   BACKBONE|DICT|INTERRES
    95   49   50 1    
    96   49  105 1    
    97   50   51 1    
    98   50   52 1    
    99   50  106 1    
   100   51  107 1    
   101   51  108 1    
   102   51  109 1    
   103   52   53 2    
   104   52   54 am   BACKBONE|DICT|INTERRES
   105   54   55 1    
   106   54  110 1    
   107   55   56 1    
   108   55   59 1    
   109   55  111 1    
   110   56   57 am   BACKBONE|DICT|INTERRES
   111   56   58 2    
   112   57  112 1    
   113   57  113 1    
   114   59   60 1    
   115   59  114 1    
   116   59  115 1    
   117   60   61 1    
   118   61  116 1    
   119   61  117 1    
@<TRIPOS>SUBSTRUCTURE
     1 UNK         1 GROUP             0       ****    0 ROOT    
