@<TRIPOS>MOLECULE
3R8
117   119    1
SMALL
USER_CHARGES


@<TRIPOS>ATOM
      1 CA         20.9714  -27.7593  -49.5780 C.3       0 UNK        -0.2013 
      2 C          20.2087  -27.0395  -48.4758 C.2       0 UNK         0.4866 
      3 O          20.3659  -25.8289  -48.3183 O.2       0 UNK        -0.5176 
      4 N          19.3863  -27.7793  -47.7174 N.am      1 UNK        -0.4884 
      5 CA         18.5750  -27.2972  -46.5891 C.3       1 UNK         0.0853 
      6 C6         17.4495  -26.3263  -47.0405 C.3       10 UNK        -0.0849 
      7 S7         15.9955  -26.2645  -45.9366 S.3       10 UNK        -0.2776 
      8 C8         15.2900  -27.9463  -46.0582 C.3       10 UNK         0.0316 
      9 C9         15.7570  -28.8237  -44.9032 C.ar      10 UNK        -0.0863 
     10 C10        16.5853  -29.9287  -45.1229 C.ar      10 UNK        -0.1009 
     11 C11        17.0813  -30.6682  -44.0454 C.ar      10 UNK        -0.0712 
     12 C12        16.6889  -30.3410  -42.7439 C.ar      10 UNK        -0.0894 
     13 C13        15.8482  -29.2470  -42.5130 C.ar      10 UNK        -0.0745 
     14 C14        15.3812  -28.5004  -43.5974 C.ar      10 UNK        -0.0972 
     15 C15        15.4636  -28.8286  -41.0991 C.3       10 UNK         0.0209 
     16 S16        16.8854  -28.5810  -39.9801 S.3       10 UNK        -0.2568 
     17 C17        18.1159  -27.6643  -40.9828 C.3       10 UNK        -0.0983 
     18 CA         19.4409  -28.4719  -41.0937 C.3       3 UNK         0.0876 
     19 N          20.1362  -28.2322  -42.3674 N.am      3 UNK        -0.4424 
     20 C          21.1463  -27.4009  -42.6666 C.2       2 UNK         0.4918 
     21 O          21.7722  -26.7197  -41.8511 O.2       2 UNK        -0.4875 
     22 CA         21.5445  -27.3255  -44.1546 C.3       2 UNK         0.0481 
     23 CB         22.6982  -28.2868  -44.4690 C.3       2 UNK        -0.1831 
     24 N          20.4617  -27.6249  -45.0905 N.am      2 UNK        -0.4498 
     25 C          19.4563  -26.8017  -45.4187 C.2       1 UNK         0.5027 
     26 O          19.2576  -25.7103  -44.8826 O.2       1 UNK        -0.4969 
     27 C          20.3115  -28.3889  -39.8163 C.2       3 UNK         0.5005 
     28 O          20.0044  -27.6128  -38.9089 O.2       3 UNK        -0.5279 
     29 N          21.4031  -29.1665  -39.7714 N.am      4 UNK        -0.4463 
     30 CA         22.3643  -29.3301  -38.6662 C.3       4 UNK         0.0283 
     31 CB         21.6757  -29.8232  -37.3787 C.3       4 UNK        -0.1875 
     32 C          23.2574  -28.1073  -38.3889 C.2       4 UNK         0.4949 
     33 O          24.3910  -28.2916  -37.9464 O.2       4 UNK        -0.5039 
     34 N          22.7572  -26.8964  -38.6612 N.am      5 UNK        -0.4663 
     35 CA         23.4692  -25.6263  -38.5290 C.3       5 UNK         0.0242 
     36 CB         22.4879  -24.4642  -38.7522 C.3       5 UNK        -0.1982 
     37 C          24.6667  -25.5262  -39.4848 C.2       5 UNK         0.5017 
     38 O          25.7561  -25.1560  -39.0449 O.2       5 UNK        -0.5012 
     39 N          24.4465  -25.8773  -40.7595 N.am      6 UNK        -0.4439 
     40 CA         25.5003  -25.9533  -41.7736 C.3       6 UNK         0.0297 
     41 CB         24.9808  -25.3958  -43.1081 C.3       6 UNK        -0.2006 
     42 C          26.0421  -27.3838  -41.9323 C.2       6 UNK         0.4892 
     43 O          27.2485  -27.5447  -42.1195 O.2       6 UNK        -0.5089 
     44 N          25.1617  -28.3899  -41.8445 N.am      7 UNK        -0.4243 
     45 CA         25.4641  -29.8151  -41.9754 C.3       7 UNK         0.0196 
     46 CB         25.8872  -30.1724  -43.4150 C.3       7 UNK        -0.2007 
     47 C          24.2179  -30.6134  -41.5851 C.2       7 UNK         0.5020 
     48 O          23.0963  -30.1507  -41.8109 O.2       7 UNK        -0.5147 
     49 N          24.4234  -31.8033  -41.0134 N.am      8 UNK        -0.4734 
     50 CA         23.3618  -32.7048  -40.5616 C.3       8 UNK         0.0238 
     51 CB         23.9001  -33.5672  -39.4047 C.3       8 UNK        -0.1912 
     52 C          22.8119  -33.5488  -41.7246 C.2       8 UNK         0.5038 
     53 O          23.0913  -34.7474  -41.8002 O.2       8 UNK        -0.5046 
     54 N          22.0575  -32.9012  -42.6205 N.am      9 UNK        -0.4200 
     55 CA         21.3059  -33.5467  -43.7068 C.3       9 UNK         0.0839 
     56 C          20.1794  -34.4961  -43.2056 C.2       9 UNK         0.5513 
     57 N          19.7604  -35.4444  -44.0328 N.am      9 UNK        -0.7519 
     58 O          19.6620  -34.3652  -42.0978 O.2       9 UNK        -0.4960 
     59 C59        20.7848  -32.5157  -44.7446 C.3       10 UNK        -0.0876 
     60 S60        19.7813  -31.1573  -44.0476 S.3       10 UNK        -0.2414 
     61 C61        18.0866  -31.7815  -44.2862 C.3       10 UNK         0.0169 
     62 H62        20.7229  -27.3294  -50.5481 H         1 UNK         0.0903 
     63 H63        22.0446  -27.6516  -49.4227 H         1 UNK         0.0903 
     64 H64        20.7389  -28.8236  -49.6097 H         1 UNK         0.0903 
     65 H65        19.3065  -28.7679  -47.9145 H         1 UNK         0.3096 
     66 H66        18.1019  -28.1932  -46.2084 H         1 UNK         0.1121 
     67 H67        17.0840  -26.6163  -48.0269 H         1 UNK         0.0849 
     68 H68        17.8408  -25.3148  -47.1639 H         1 UNK         0.0849 
     69 H69        14.2018  -27.8740  -46.0271 H         1 UNK         0.0865 
     70 H70        15.5377  -28.3913  -47.0233 H         1 UNK         0.0865 
     71 H71        16.8844  -30.1876  -46.1295 H         1 UNK         0.1346 
     72 H72        17.0722  -30.9102  -41.9081 H         1 UNK         0.1412 
     73 H73        14.7463  -27.6413  -43.4270 H         1 UNK         0.1426 
     74 H74        14.8085  -29.5887  -40.6717 H         1 UNK         0.0716 
     75 H75        14.8858  -27.9031  -41.1163 H         1 UNK         0.0716 
     76 H76        18.2782  -26.6754  -40.5506 H         1 UNK         0.0695 
     77 H77        17.7052  -27.4707  -41.9738 H         1 UNK         0.0695 
     78 H78        19.1666  -29.5260  -41.1637 H         1 UNK         0.0983 
     79 H79        19.7674  -28.7676  -43.1411 H         1 UNK         0.3095 
     80 H80        21.8845  -26.3070  -44.3518 H         1 UNK         0.0454 
     81 H81        23.5650  -28.0709  -43.8535 H         1 UNK         0.0851 
     82 H82        23.0198  -28.1989  -45.5068 H         1 UNK         0.0851 
     83 H83        22.4221  -29.3266  -44.2898 H         1 UNK         0.0851 
     84 H84        20.5435  -28.4928  -45.6002 H         1 UNK         0.2976 
     85 H85        21.6722  -29.6477  -40.6264 H         1 UNK         0.3116 
     86 H86        23.0416  -30.1233  -38.9791 H         1 UNK         0.0646 
     87 H87        21.0046  -29.0735  -36.9589 H         1 UNK         0.0847 
     88 H88        21.0976  -30.7292  -37.5594 H         1 UNK         0.0847 
     89 H89        22.4138  -30.0582  -36.6108 H         1 UNK         0.0847 
     90 H90        21.7891  -26.8591  -38.9674 H         1 UNK         0.3040 
     91 H91        23.8528  -25.5627  -37.5083 H         1 UNK         0.1015 
     92 H92        22.9933  -23.5020  -38.6581 H         1 UNK         0.0786 
     93 H93        21.6827  -24.4803  -38.0174 H         1 UNK         0.0786 
     94 H94        22.0349  -24.5012  -39.7441 H         1 UNK         0.0786 
     95 H95        23.5064  -26.1509  -41.0337 H         1 UNK         0.3172 
     96 H96        26.3443  -25.3262  -41.4784 H         1 UNK         0.0595 
     97 H97        24.0610  -25.8811  -43.4254 H         1 UNK         0.0839 
     98 H98        25.7156  -25.5280  -43.9036 H         1 UNK         0.0839 
     99 H99        24.7772  -24.3276  -43.0314 H         1 UNK         0.0839 
    100 H100       24.1857  -28.1909  -41.6672 H         1 UNK         0.2998 
    101 H101       26.2729  -30.0586  -41.2834 H         1 UNK         0.0822 
    102 H102       26.0902  -31.2401  -43.5076 H         1 UNK         0.0787 
    103 H103       25.1100  -29.9284  -44.1391 H         1 UNK         0.0787 
    104 H104       26.7963  -29.6507  -43.7127 H         1 UNK         0.0787 
    105 H105       25.3712  -32.1361  -40.9038 H         1 UNK         0.3055 
    106 H106       22.5258  -32.1214  -40.1698 H         1 UNK         0.1106 
    107 H107       24.2083  -32.9495  -38.5609 H         1 UNK         0.0828 
    108 H108       23.1332  -34.2517  -39.0393 H         1 UNK         0.0828 
    109 H109       24.7562  -34.1700  -39.7100 H         1 UNK         0.0828 
    110 H110       21.9116  -31.9068  -42.5049 H         1 UNK         0.2931 
    111 H111       22.0246  -34.1809  -44.2303 H         1 UNK         0.0412 
    112 H112       19.0240  -36.0644  -43.7328 H         1 UNK         0.3472 
    113 H113       20.1743  -35.5653  -44.9443 H         1 UNK         0.3472 
    114 H114       20.2309  -33.0116  -45.5436 H         1 UNK         0.0970 
    115 H115       21.6410  -32.0557  -45.2403 H         1 UNK         0.0970 
    116 H116       17.8981  -32.6092  -43.6015 H         1 UNK         0.0612 
    117 H117       17.9763  -32.1778  -45.2967 H         1 UNK         0.0612 
@<TRIPOS>BOND
     1    1    2 1    
     2    1   62 1    
     3    1   63 1    
     4    1   64 1    
     5    2    3 2    
     6    2    4 am   BACKBONE|DICT|INTERRES
     7    4    5 1    
     8    4   65 1    
     9    5    6 1    
    10    5   25 1    
    11    5   66 1    
    12    6    7 1    
    13    6   67 1    
    14    6   68 1    
    15    7    8 1    
    16    8    9 1    
    17    8   69 1    
    18    8   70 1    
    19    9   10 ar   
    20    9   14 ar   
    21   10   11 ar   
    22   10   71 1    
    23   11   12 ar   
    24   11   61 1    
    25   12   13 ar   
    26   12   72 1    
    27   13   14 ar   
    28   13   15 1    
    29   14   73 1    
    30   15   16 1    
    31   15   74 1    
    32   15   75 1    
    33   16   17 1    
    34   17   18 1    
    35   17   76 1    
    36   17   77 1    
    37   18   19 1    
    38   18   27 1    
    39   18   78 1    
    40   19   20 am   BACKBONE|DICT|INTERRES
    41   19   79 1    
    42   20   21 2    
    43   20   22 1    
    44   22   23 1    
    45   22   24 1    
    46   22   80 1    
    47   23   81 1    
    48   23   82 1    
    49   23   83 1    
    50   24   25 am   BACKBONE|DICT|INTERRES
    51   24   84 1    
    52   25   26 2    
    53   27   28 2    
    54   27   29 am   BACKBONE|DICT|INTERRES
    55   29   30 1    
    56   29   85 1    
    57   30   31 1    
    58   30   32 1    
    59   30   86 1    
    60   31   87 1    
    61   31   88 1    
    62   31   89 1    
    63   32   33 2    
    64   32   34 am   BACKBONE|DICT|INTERRES
    65   34   35 1    
    66   34   90 1    
    67   35   36 1    
    68   35   37 1    
    69   35   91 1    
    70   36   92 1    
    71   36   93 1    
    72   36   94 1    
    73   37   38 2    
    74   37   39 am   BACKBONE|DICT|INTERRES
    75   39   40 1    
    76   39   95 1    
    77   40   41 1    
    78   40   42 1    
    79   40   96 1    
    80   41   97 1    
    81   41   98 1    
    82   41   99 1    
    83   42   43 2    
    84   42   44 am   BACKBONE|DICT|INTERRES
    85   44   45 1    
    86   44  100 1    
    87   45   46 1    
    88   45   47 1    
    89   45  101 1    
    90   46  102 1    
    91   46  103 1    
    92   46  104 1    
    93   47   48 2    
    94   47   49 am   BACKBONE|DICT|INTERRES
    95   49   50 1    
    96   49  105 1    
    97   50   51 1    
    98   50   52 1    
    99   50  106 1    
   100   51  107 1    
   101   51  108 1    
   102   51  109 1    
   103   52   53 2    
   104   52   54 am   BACKBONE|DICT|INTERRES
   105   54   55 1    
   106   54  110 1    
   107   55   56 1    
   108   55   59 1    
   109   55  111 1    
   110   56   57 am   BACKBONE|DICT|INTERRES
   111   56   58 2    
   112   57  112 1    
   113   57  113 1    
   114   59   60 1    
   115   59  114 1    
   116   59  115 1    
   117   60   61 1    
   118   61  116 1    
   119   61  117 1    
@<TRIPOS>SUBSTRUCTURE
     1 UNK         1 GROUP             0       ****    0 ROOT    
