@<TRIPOS>MOLECULE
3R8
117   119    1
SMALL
USER_CHARGES


@<TRIPOS>ATOM
      1 CA         24.1492  -26.9558  -47.6748 C.3       0 UNK        -0.2013 
      2 C          22.9131  -27.1005  -46.8009 C.2       0 UNK         0.4866 
      3 O          23.0337  -27.1931  -45.5798 O.2       0 UNK        -0.5176 
      4 N          21.7215  -27.1130  -47.4111 N.am      1 UNK        -0.4884 
      5 CA         20.4161  -27.2633  -46.7541 C.3       1 UNK         0.0853 
      6 C6         19.3440  -27.7703  -47.7515 C.3       10 UNK        -0.0849 
      7 S7         19.6110  -29.5306  -48.1524 S.3       10 UNK        -0.2776 
      8 C8         18.0138  -30.2816  -47.6928 C.3       10 UNK         0.0316 
      9 C9         17.7099  -30.1851  -46.2014 C.ar      10 UNK        -0.0863 
     10 C10        18.3009  -31.0750  -45.2984 C.ar      10 UNK        -0.1009 
     11 C11        17.9751  -31.0311  -43.9369 C.ar      10 UNK        -0.0712 
     12 C12        17.0482  -30.0846  -43.4856 C.ar      10 UNK        -0.0894 
     13 C13        16.4510  -29.1889  -44.3767 C.ar      10 UNK        -0.0745 
     14 C14        16.7867  -29.2452  -45.7320 C.ar      10 UNK        -0.0972 
     15 C15        15.3973  -28.1991  -43.8969 C.3       10 UNK         0.0209 
     16 S16        16.0502  -26.5033  -43.7877 S.3       10 UNK        -0.2568 
     17 C17        16.6914  -26.4297  -42.0788 C.3       10 UNK        -0.0983 
     18 CA         18.1732  -26.8680  -41.9587 C.3       3 UNK         0.0876 
     19 N          19.0995  -26.1928  -42.8744 N.am      3 UNK        -0.4424 
     20 C          19.3205  -24.8830  -43.0611 C.2       2 UNK         0.4918 
     21 O          18.6938  -23.9740  -42.5167 O.2       2 UNK        -0.4875 
     22 CA         20.4587  -24.5261  -44.0390 C.3       2 UNK         0.0481 
     23 CB         21.7376  -24.1838  -43.2566 C.3       2 UNK        -0.1831 
     24 N          20.7602  -25.6040  -44.9871 N.am      2 UNK        -0.4498 
     25 C          19.9900  -25.9718  -46.0195 C.2       1 UNK         0.5027 
     26 O          18.9908  -25.3471  -46.3790 O.2       1 UNK        -0.4969 
     27 C          18.6828  -26.7901  -40.5052 C.2       3 UNK         0.5005 
     28 O          19.0087  -25.7042  -40.0216 O.2       3 UNK        -0.5279 
     29 N          18.7884  -27.9524  -39.8399 N.am      4 UNK        -0.4463 
     30 CA         19.3396  -28.1933  -38.4923 C.3       4 UNK         0.0283 
     31 CB         18.5729  -27.4178  -37.4032 C.3       4 UNK        -0.1875 
     32 C          20.8581  -27.9531  -38.3884 C.2       4 UNK         0.4949 
     33 O          21.5747  -28.8069  -37.8693 O.2       4 UNK        -0.5039 
     34 N          21.3328  -26.8320  -38.9397 N.am      5 UNK        -0.4663 
     35 CA         22.7465  -26.4896  -39.1172 C.3       5 UNK         0.0242 
     36 CB         22.8745  -24.9566  -39.1384 C.3       5 UNK        -0.1982 
     37 C          23.3559  -27.1061  -40.3933 C.2       5 UNK         0.5017 
     38 O          24.5228  -26.8448  -40.6889 O.2       5 UNK        -0.5012 
     39 N          22.5658  -27.8919  -41.1389 N.am      6 UNK        -0.4439 
     40 CA         22.8991  -28.5243  -42.4180 C.3       6 UNK         0.0297 
     41 CB         21.5887  -28.9185  -43.1237 C.3       6 UNK        -0.2006 
     42 C          23.8761  -29.7114  -42.2921 C.2       6 UNK         0.4892 
     43 O          23.5648  -30.8153  -42.7444 O.2       6 UNK        -0.5089 
     44 N          25.0432  -29.4589  -41.6826 N.am      7 UNK        -0.4243 
     45 CA         26.1719  -30.3740  -41.4841 C.3       7 UNK         0.0196 
     46 CB         26.9436  -30.5511  -42.8118 C.3       7 UNK        -0.2007 
     47 C          25.7348  -31.7003  -40.8338 C.2       7 UNK         0.5020 
     48 O          25.4053  -31.7093  -39.6471 O.2       7 UNK        -0.5147 
     49 N          25.7009  -32.7798  -41.6266 N.am      8 UNK        -0.4734 
     50 CA         25.2802  -34.1271  -41.2325 C.3       8 UNK         0.0238 
     51 CB         25.5519  -35.0942  -42.3967 C.3       8 UNK        -0.1912 
     52 C          23.8144  -34.2418  -40.7710 C.2       8 UNK         0.5038 
     53 O          23.4964  -35.2112  -40.0801 O.2       8 UNK        -0.5046 
     54 N          22.9613  -33.2753  -41.1370 N.am      9 UNK        -0.4200 
     55 CA         21.5713  -33.1646  -40.6711 C.3       9 UNK         0.0839 
     56 C          21.2768  -31.8221  -39.9423 C.2       9 UNK         0.5513 
     57 N          22.2854  -31.1134  -39.4476 N.am      9 UNK        -0.7519 
     58 O          20.1220  -31.4349  -39.7835 O.2       9 UNK        -0.4960 
     59 C59        20.5508  -33.5728  -41.7687 C.3       10 UNK        -0.0876 
     60 S60        20.3235  -32.3713  -43.1276 S.3       10 UNK        -0.2414 
     61 C61        18.5364  -32.0526  -42.9526 C.3       10 UNK         0.0169 
     62 H62        24.6991  -26.0564  -47.3994 H         1 UNK         0.0903 
     63 H63        24.8070  -27.8133  -47.5362 H         1 UNK         0.0903 
     64 H64        23.8961  -26.8895  -48.7328 H         1 UNK         0.0903 
     65 H65        21.6869  -27.0202  -48.4165 H         1 UNK         0.3096 
     66 H66        20.5152  -28.0233  -45.9752 H         1 UNK         0.1121 
     67 H67        19.3596  -27.1850  -48.6725 H         1 UNK         0.0849 
     68 H68        18.3397  -27.6499  -47.3458 H         1 UNK         0.0849 
     69 H69        17.2188  -29.8166  -48.2780 H         1 UNK         0.0865 
     70 H70        18.0249  -31.3317  -47.9885 H         1 UNK         0.0865 
     71 H71        18.9970  -31.8189  -45.6613 H         1 UNK         0.1346 
     72 H72        16.7666  -30.0642  -42.4418 H         1 UNK         0.1412 
     73 H73        16.3082  -28.5655  -46.4242 H         1 UNK         0.1426 
     74 H74        14.9769  -28.5057  -42.9381 H         1 UNK         0.0716 
     75 H75        14.5639  -28.2016  -44.6010 H         1 UNK         0.0716 
     76 H76        16.0584  -27.0423  -41.4346 H         1 UNK         0.0695 
     77 H77        16.5687  -25.4049  -41.7242 H         1 UNK         0.0695 
     78 H78        18.2199  -27.9152  -42.2553 H         1 UNK         0.0983 
     79 H79        19.6806  -26.8134  -43.4134 H         1 UNK         0.3095 
     80 H80        20.1519  -23.6435  -44.6040 H         1 UNK         0.0454 
     81 H81        22.1035  -25.0379  -42.6850 H         1 UNK         0.0851 
     82 H82        21.5582  -23.3721  -42.5502 H         1 UNK         0.0851 
     83 H83        22.5366  -23.8604  -43.9238 H         1 UNK         0.0851 
     84 H84        21.6239  -26.1242  -44.8486 H         1 UNK         0.2976 
     85 H85        18.5130  -28.7983  -40.3211 H         1 UNK         0.3116 
     86 H86        19.1812  -29.2558  -38.2999 H         1 UNK         0.0646 
     87 H87        18.7050  -26.3393  -37.4925 H         1 UNK         0.0847 
     88 H88        18.9215  -27.7018  -36.4095 H         1 UNK         0.0847 
     89 H89        17.5046  -27.6292  -37.4437 H         1 UNK         0.0847 
     90 H90        20.6466  -26.1919  -39.3376 H         1 UNK         0.3040 
     91 H91        23.3179  -26.8730  -38.2689 H         1 UNK         0.1015 
     92 H92        22.3327  -24.5186  -39.9778 H         1 UNK         0.0786 
     93 H93        23.9173  -24.6485  -39.2253 H         1 UNK         0.0786 
     94 H94        22.4848  -24.5144  -38.2212 H         1 UNK         0.0786 
     95 H95        21.6477  -28.0873  -40.7713 H         1 UNK         0.3172 
     96 H96        23.4003  -27.7793  -43.0381 H         1 UNK         0.0595 
     97 H97        21.7847  -29.4330  -44.0660 H         1 UNK         0.0839 
     98 H98        20.9942  -28.0431  -43.3643 H         1 UNK         0.0839 
     99 H99        20.9837  -29.5834  -42.5070 H         1 UNK         0.0839 
    100 H100       25.1575  -28.5217  -41.3042 H         1 UNK         0.2998 
    101 H101       26.8435  -29.8922  -40.7718 H         1 UNK         0.0822 
    102 H102       27.7940  -31.2235  -42.6892 H         1 UNK         0.0787 
    103 H103       26.3135  -30.9481  -43.6087 H         1 UNK         0.0787 
    104 H104       27.3415  -29.5972  -43.1584 H         1 UNK         0.0787 
    105 H105       25.9445  -32.6515  -42.5982 H         1 UNK         0.3055 
    106 H106       25.9003  -34.4269  -40.3848 H         1 UNK         0.1106 
    107 H107       25.2829  -36.1167  -42.1271 H         1 UNK         0.0828 
    108 H108       24.9747  -34.8293  -43.2835 H         1 UNK         0.0828 
    109 H109       26.6071  -35.1022  -42.6704 H         1 UNK         0.0828 
    110 H110       23.2917  -32.5014  -41.7078 H         1 UNK         0.2931 
    111 H111       21.4271  -33.8905  -39.8692 H         1 UNK         0.0412 
    112 H112       23.2407  -31.4348  -39.5327 H         1 UNK         0.3472 
    113 H113       22.0787  -30.2786  -38.9084 H         1 UNK         0.3472 
    114 H114       19.5870  -33.7731  -41.2978 H         1 UNK         0.0970 
    115 H115       20.8506  -34.5245  -42.2097 H         1 UNK         0.0970 
    116 H116       17.9961  -32.9904  -43.0873 H         1 UNK         0.0612 
    117 H117       18.3480  -31.7283  -41.9279 H         1 UNK         0.0612 
@<TRIPOS>BOND
     1    1    2 1    
     2    1   62 1    
     3    1   63 1    
     4    1   64 1    
     5    2    3 2    
     6    2    4 am   BACKBONE|DICT|INTERRES
     7    4    5 1    
     8    4   65 1    
     9    5    6 1    
    10    5   25 1    
    11    5   66 1    
    12    6    7 1    
    13    6   67 1    
    14    6   68 1    
    15    7    8 1    
    16    8    9 1    
    17    8   69 1    
    18    8   70 1    
    19    9   10 ar   
    20    9   14 ar   
    21   10   11 ar   
    22   10   71 1    
    23   11   12 ar   
    24   11   61 1    
    25   12   13 ar   
    26   12   72 1    
    27   13   14 ar   
    28   13   15 1    
    29   14   73 1    
    30   15   16 1    
    31   15   74 1    
    32   15   75 1    
    33   16   17 1    
    34   17   18 1    
    35   17   76 1    
    36   17   77 1    
    37   18   19 1    
    38   18   27 1    
    39   18   78 1    
    40   19   20 am   BACKBONE|DICT|INTERRES
    41   19   79 1    
    42   20   21 2    
    43   20   22 1    
    44   22   23 1    
    45   22   24 1    
    46   22   80 1    
    47   23   81 1    
    48   23   82 1    
    49   23   83 1    
    50   24   25 am   BACKBONE|DICT|INTERRES
    51   24   84 1    
    52   25   26 2    
    53   27   28 2    
    54   27   29 am   BACKBONE|DICT|INTERRES
    55   29   30 1    
    56   29   85 1    
    57   30   31 1    
    58   30   32 1    
    59   30   86 1    
    60   31   87 1    
    61   31   88 1    
    62   31   89 1    
    63   32   33 2    
    64   32   34 am   BACKBONE|DICT|INTERRES
    65   34   35 1    
    66   34   90 1    
    67   35   36 1    
    68   35   37 1    
    69   35   91 1    
    70   36   92 1    
    71   36   93 1    
    72   36   94 1    
    73   37   38 2    
    74   37   39 am   BACKBONE|DICT|INTERRES
    75   39   40 1    
    76   39   95 1    
    77   40   41 1    
    78   40   42 1    
    79   40   96 1    
    80   41   97 1    
    81   41   98 1    
    82   41   99 1    
    83   42   43 2    
    84   42   44 am   BACKBONE|DICT|INTERRES
    85   44   45 1    
    86   44  100 1    
    87   45   46 1    
    88   45   47 1    
    89   45  101 1    
    90   46  102 1    
    91   46  103 1    
    92   46  104 1    
    93   47   48 2    
    94   47   49 am   BACKBONE|DICT|INTERRES
    95   49   50 1    
    96   49  105 1    
    97   50   51 1    
    98   50   52 1    
    99   50  106 1    
   100   51  107 1    
   101   51  108 1    
   102   51  109 1    
   103   52   53 2    
   104   52   54 am   BACKBONE|DICT|INTERRES
   105   54   55 1    
   106   54  110 1    
   107   55   56 1    
   108   55   59 1    
   109   55  111 1    
   110   56   57 am   BACKBONE|DICT|INTERRES
   111   56   58 2    
   112   57  112 1    
   113   57  113 1    
   114   59   60 1    
   115   59  114 1    
   116   59  115 1    
   117   60   61 1    
   118   61  116 1    
   119   61  117 1    
@<TRIPOS>SUBSTRUCTURE
     1 UNK         1 GROUP             0       ****    0 ROOT    
