@<TRIPOS>MOLECULE
3R8
117   119    1
SMALL
USER_CHARGES


@<TRIPOS>ATOM
      1 CA         14.0131  -23.9201  -45.1265 C.3       0 UNK        -0.2013 
      2 C          15.1404  -24.9113  -44.8819 C.2       0 UNK         0.4866 
      3 O          16.2553  -24.7037  -45.3617 O.2       0 UNK        -0.5176 
      4 N          14.8677  -25.9825  -44.1263 N.am      1 UNK        -0.4884 
      5 CA         15.8010  -27.0709  -43.7972 C.3       1 UNK         0.0853 
      6 C6         15.0420  -28.3835  -43.4694 C.3       10 UNK        -0.0849 
      7 S7         14.0975  -28.9764  -44.9171 S.3       10 UNK        -0.2776 
      8 C8         14.9043  -30.5677  -45.3047 C.3       10 UNK         0.0316 
      9 C9         16.4199  -30.4713  -45.4534 C.ar      10 UNK        -0.0863 
     10 C10        17.2427  -31.3253  -44.7129 C.ar      10 UNK        -0.1009 
     11 C11        18.6337  -31.2623  -44.8367 C.ar      10 UNK        -0.0712 
     12 C12        19.2021  -30.3423  -45.7207 C.ar      10 UNK        -0.0894 
     13 C13        18.3934  -29.4754  -46.4619 C.ar      10 UNK        -0.0745 
     14 C14        17.0027  -29.5517  -46.3321 C.ar      10 UNK        -0.0972 
     15 C15        19.0180  -28.4666  -47.4151 C.3       10 UNK         0.0209 
     16 S16        19.3260  -26.8665  -46.6025 S.3       10 UNK        -0.2568 
     17 C17        20.8881  -27.2031  -45.7196 C.3       10 UNK        -0.0983 
     18 CA         21.2233  -26.1316  -44.6526 C.3       3 UNK         0.0876 
     19 N          20.1334  -26.0023  -43.6805 N.am      3 UNK        -0.4424 
     20 C          19.8761  -24.9314  -42.9209 C.2       2 UNK         0.4918 
     21 O          20.5917  -23.9296  -42.8866 O.2       2 UNK        -0.4875 
     22 CA         18.5764  -24.9951  -42.0992 C.3       2 UNK         0.0481 
     23 CB         18.1330  -23.6159  -41.5783 C.3       2 UNK        -0.1831 
     24 N          17.5143  -25.5577  -42.9326 N.am      2 UNK        -0.4498 
     25 C          16.7905  -26.6544  -42.6846 C.2       1 UNK         0.5027 
     26 O          16.8768  -27.3122  -41.6467 O.2       1 UNK        -0.4969 
     27 C          22.5890  -26.4430  -44.0006 C.2       3 UNK         0.5005 
     28 O          23.5913  -26.4998  -44.7161 O.2       3 UNK        -0.5279 
     29 N          22.6105  -26.6856  -42.6814 N.am      4 UNK        -0.4463 
     30 CA         23.7267  -27.1553  -41.8550 C.3       4 UNK         0.0283 
     31 CB         24.9821  -26.2654  -41.9560 C.3       4 UNK        -0.1875 
     32 C          24.0297  -28.6353  -42.1156 C.2       4 UNK         0.4949 
     33 O          23.8503  -29.4430  -41.2074 O.2       4 UNK        -0.5039 
     34 N          24.4454  -28.9712  -43.3453 N.am      5 UNK        -0.4663 
     35 CA         24.6883  -30.3300  -43.8549 C.3       5 UNK         0.0242 
     36 CB         23.3393  -31.0434  -44.0887 C.3       5 UNK        -0.1982 
     37 C          25.6428  -31.1518  -42.9626 C.2       5 UNK         0.5017 
     38 O          25.3090  -32.2692  -42.5679 O.2       5 UNK        -0.5012 
     39 N          26.7897  -30.5492  -42.6121 N.am      6 UNK        -0.4439 
     40 CA         27.7963  -31.0618  -41.6682 C.3       6 UNK         0.0297 
     41 CB         28.4895  -32.3246  -42.2245 C.3       6 UNK        -0.2006 
     42 C          27.2347  -31.2583  -40.2423 C.2       6 UNK         0.4892 
     43 O          27.5601  -32.2425  -39.5768 O.2       6 UNK        -0.5089 
     44 N          26.3942  -30.3032  -39.8180 N.am      7 UNK        -0.4243 
     45 CA         25.6752  -30.2131  -38.5405 C.3       7 UNK         0.0196 
     46 CB         26.6477  -30.2025  -37.3412 C.3       7 UNK        -0.2007 
     47 C          24.5343  -31.2371  -38.3700 C.2       7 UNK         0.5020 
     48 O          24.0147  -31.3714  -37.2610 O.2       7 UNK        -0.5147 
     49 N          24.1282  -31.9173  -39.4511 N.am      8 UNK        -0.4734 
     50 CA         22.9789  -32.8268  -39.4606 C.3       8 UNK         0.0238 
     51 CB         23.1185  -33.8184  -40.6264 C.3       8 UNK        -0.1912 
     52 C          21.6344  -32.0852  -39.5574 C.2       8 UNK         0.5038 
     53 O          20.6406  -32.5853  -39.0287 O.2       8 UNK        -0.5046 
     54 N          21.6267  -30.9273  -40.2295 N.am      9 UNK        -0.4200 
     55 CA         20.4486  -30.0943  -40.5142 C.3       9 UNK         0.0839 
     56 C          20.7448  -28.6067  -40.1837 C.2       9 UNK         0.5513 
     57 N          21.3643  -28.3198  -39.0455 N.am      9 UNK        -0.7519 
     58 O          20.4449  -27.7050  -40.9625 O.2       9 UNK        -0.4960 
     59 C59        19.9110  -30.3064  -41.9593 C.3       10 UNK        -0.0876 
     60 S60        19.2938  -32.0015  -42.2371 S.3       10 UNK        -0.2414 
     61 C61        19.5207  -32.2025  -44.0316 C.3       10 UNK         0.0169 
     62 H62        13.8401  -23.8066  -46.1963 H         1 UNK         0.0903 
     63 H63        13.0797  -24.2415  -44.6648 H         1 UNK         0.0903 
     64 H64        14.2763  -22.9447  -44.7182 H         1 UNK         0.0903 
     65 H65        13.9368  -26.0905  -43.7485 H         1 UNK         0.3096 
     66 H66        16.4178  -27.2657  -44.6780 H         1 UNK         0.1121 
     67 H67        14.3516  -28.2324  -42.6377 H         1 UNK         0.0849 
     68 H68        15.7335  -29.1637  -43.1458 H         1 UNK         0.0849 
     69 H69        14.6380  -31.2844  -44.5261 H         1 UNK         0.0865 
     70 H70        14.4846  -30.9577  -46.2328 H         1 UNK         0.0865 
     71 H71        16.8045  -32.0435  -44.0331 H         1 UNK         0.1346 
     72 H72        20.2763  -30.3037  -45.8343 H         1 UNK         0.1412 
     73 H73        16.3720  -28.8884  -46.9088 H         1 UNK         0.1426 
     74 H74        18.3525  -28.3037  -48.2642 H         1 UNK         0.0716 
     75 H75        19.9489  -28.8552  -47.8310 H         1 UNK         0.0716 
     76 H76        21.6813  -27.2677  -46.4671 H         1 UNK         0.0695 
     77 H77        20.8302  -28.1825  -45.2461 H         1 UNK         0.0695 
     78 H78        21.3366  -25.1718  -45.1614 H         1 UNK         0.0983 
     79 H79        19.4883  -26.7769  -43.6367 H         1 UNK         0.3095 
     80 H80        18.7689  -25.6388  -41.2396 H         1 UNK         0.0454 
     81 H81        18.8895  -23.1828  -40.9227 H         1 UNK         0.0851 
     82 H82        17.2107  -23.6892  -41.0023 H         1 UNK         0.0851 
     83 H83        17.9636  -22.9122  -42.3942 H         1 UNK         0.0851 
     84 H84        17.3492  -25.0938  -43.8239 H         1 UNK         0.2976 
     85 H85        21.7138  -26.6913  -42.2039 H         1 UNK         0.3116 
     86 H86        23.3742  -27.0832  -40.8252 H         1 UNK         0.0646 
     87 H87        25.4526  -26.3089  -42.9381 H         1 UNK         0.0847 
     88 H88        24.7429  -25.2227  -41.7474 H         1 UNK         0.0847 
     89 H89        25.7328  -26.5758  -41.2284 H         1 UNK         0.0847 
     90 H90        24.5142  -28.2168  -44.0222 H         1 UNK         0.3040 
     91 H91        25.1819  -30.2247  -44.8223 H         1 UNK         0.1015 
     92 H92        23.4861  -32.0114  -44.5694 H         1 UNK         0.0786 
     93 H93        22.6867  -30.4562  -44.7347 H         1 UNK         0.0786 
     94 H94        22.8111  -31.2238  -43.1519 H         1 UNK         0.0786 
     95 H95        26.9625  -29.6240  -42.9819 H         1 UNK         0.3172 
     96 H96        28.5574  -30.2844  -41.5850 H         1 UNK         0.0595 
     97 H97        27.8073  -33.1737  -42.2769 H         1 UNK         0.0839 
     98 H98        29.3257  -32.6217  -41.5903 H         1 UNK         0.0839 
     99 H99        28.8883  -32.1519  -43.2239 H         1 UNK         0.0839 
    100 H100       26.1489  -29.5841  -40.4840 H         1 UNK         0.2998 
    101 H101       25.1806  -29.2406  -38.5606 H         1 UNK         0.0822 
    102 H102       26.1255  -29.9542  -36.4164 H         1 UNK         0.0787 
    103 H103       27.4354  -29.4611  -37.4744 H         1 UNK         0.0787 
    104 H104       27.1202  -31.1737  -37.1926 H         1 UNK         0.0787 
    105 H105       24.5831  -31.7389  -40.3383 H         1 UNK         0.3055 
    106 H106       22.9763  -33.3980  -38.5293 H         1 UNK         0.1106 
    107 H107       24.0685  -34.3516  -40.5862 H         1 UNK         0.0828 
    108 H108       22.3237  -34.5649  -40.5984 H         1 UNK         0.0828 
    109 H109       23.0556  -33.3168  -41.5927 H         1 UNK         0.0828 
    110 H110       22.5091  -30.5461  -40.5649 H         1 UNK         0.2931 
    111 H111       19.6431  -30.3666  -39.8300 H         1 UNK         0.0412 
    112 H112       21.6266  -29.0537  -38.4067 H         1 UNK         0.3472 
    113 H113       21.5614  -27.3584  -38.8191 H         1 UNK         0.3472 
    114 H114       19.0823  -29.6253  -42.1642 H         1 UNK         0.0970 
    115 H115       20.6863  -30.0702  -42.6895 H         1 UNK         0.0970 
    116 H116       20.5738  -32.0603  -44.2767 H         1 UNK         0.0612 
    117 H117       19.2791  -33.2313  -44.3011 H         1 UNK         0.0612 
@<TRIPOS>BOND
     1    1    2 1    
     2    1   62 1    
     3    1   63 1    
     4    1   64 1    
     5    2    3 2    
     6    2    4 am   BACKBONE|DICT|INTERRES
     7    4    5 1    
     8    4   65 1    
     9    5    6 1    
    10    5   25 1    
    11    5   66 1    
    12    6    7 1    
    13    6   67 1    
    14    6   68 1    
    15    7    8 1    
    16    8    9 1    
    17    8   69 1    
    18    8   70 1    
    19    9   10 ar   
    20    9   14 ar   
    21   10   11 ar   
    22   10   71 1    
    23   11   12 ar   
    24   11   61 1    
    25   12   13 ar   
    26   12   72 1    
    27   13   14 ar   
    28   13   15 1    
    29   14   73 1    
    30   15   16 1    
    31   15   74 1    
    32   15   75 1    
    33   16   17 1    
    34   17   18 1    
    35   17   76 1    
    36   17   77 1    
    37   18   19 1    
    38   18   27 1    
    39   18   78 1    
    40   19   20 am   BACKBONE|DICT|INTERRES
    41   19   79 1    
    42   20   21 2    
    43   20   22 1    
    44   22   23 1    
    45   22   24 1    
    46   22   80 1    
    47   23   81 1    
    48   23   82 1    
    49   23   83 1    
    50   24   25 am   BACKBONE|DICT|INTERRES
    51   24   84 1    
    52   25   26 2    
    53   27   28 2    
    54   27   29 am   BACKBONE|DICT|INTERRES
    55   29   30 1    
    56   29   85 1    
    57   30   31 1    
    58   30   32 1    
    59   30   86 1    
    60   31   87 1    
    61   31   88 1    
    62   31   89 1    
    63   32   33 2    
    64   32   34 am   BACKBONE|DICT|INTERRES
    65   34   35 1    
    66   34   90 1    
    67   35   36 1    
    68   35   37 1    
    69   35   91 1    
    70   36   92 1    
    71   36   93 1    
    72   36   94 1    
    73   37   38 2    
    74   37   39 am   BACKBONE|DICT|INTERRES
    75   39   40 1    
    76   39   95 1    
    77   40   41 1    
    78   40   42 1    
    79   40   96 1    
    80   41   97 1    
    81   41   98 1    
    82   41   99 1    
    83   42   43 2    
    84   42   44 am   BACKBONE|DICT|INTERRES
    85   44   45 1    
    86   44  100 1    
    87   45   46 1    
    88   45   47 1    
    89   45  101 1    
    90   46  102 1    
    91   46  103 1    
    92   46  104 1    
    93   47   48 2    
    94   47   49 am   BACKBONE|DICT|INTERRES
    95   49   50 1    
    96   49  105 1    
    97   50   51 1    
    98   50   52 1    
    99   50  106 1    
   100   51  107 1    
   101   51  108 1    
   102   51  109 1    
   103   52   53 2    
   104   52   54 am   BACKBONE|DICT|INTERRES
   105   54   55 1    
   106   54  110 1    
   107   55   56 1    
   108   55   59 1    
   109   55  111 1    
   110   56   57 am   BACKBONE|DICT|INTERRES
   111   56   58 2    
   112   57  112 1    
   113   57  113 1    
   114   59   60 1    
   115   59  114 1    
   116   59  115 1    
   117   60   61 1    
   118   61  116 1    
   119   61  117 1    
@<TRIPOS>SUBSTRUCTURE
     1 UNK         1 GROUP             0       ****    0 ROOT    
