@<TRIPOS>MOLECULE
3R8
117   119    1
SMALL
USER_CHARGES


@<TRIPOS>ATOM
      1 CA         20.0665  -25.2384  -38.4989 C.3       0 UNK        -0.2013 
      2 C          19.7327  -24.8715  -39.9372 C.2       0 UNK         0.4866 
      3 O          19.8576  -23.7051  -40.3110 O.2       0 UNK        -0.5176 
      4 N          19.3041  -25.8482  -40.7450 N.am      1 UNK        -0.4884 
      5 CA         18.9670  -25.6693  -42.1618 C.3       1 UNK         0.0853 
      6 C6         17.8866  -26.6724  -42.6562 C.3       10 UNK        -0.0849 
      7 S7         18.1139  -28.3853  -42.0718 S.3       10 UNK        -0.2776 
      8 C8         16.7230  -29.2598  -42.8490 C.3       10 UNK         0.0316 
      9 C9         17.2433  -30.2732  -43.8530 C.ar      10 UNK        -0.0863 
     10 C10        17.7857  -31.4795  -43.4044 C.ar      10 UNK        -0.1009 
     11 C11        18.3217  -32.3978  -44.3101 C.ar      10 UNK        -0.0712 
     12 C12        18.3047  -32.1067  -45.6784 C.ar      10 UNK        -0.0894 
     13 C13        17.7512  -30.9069  -46.1401 C.ar      10 UNK        -0.0745 
     14 C14        17.2101  -30.0006  -45.2218 C.ar      10 UNK        -0.0972 
     15 C15        17.7254  -30.5916  -47.6304 C.3       10 UNK         0.0209 
     16 S16        19.3148  -29.9350  -48.2387 S.3       10 UNK        -0.2568 
     17 C17        19.4111  -28.3101  -47.4044 C.3       10 UNK        -0.0983 
     18 CA         20.8231  -27.8621  -46.9422 C.3       3 UNK         0.0876 
     19 N          20.7271  -26.5960  -46.2029 N.am      3 UNK        -0.4424 
     20 C          21.7615  -25.8364  -45.8186 C.2       2 UNK         0.4918 
     21 O          22.9344  -26.0881  -46.0901 O.2       2 UNK        -0.4875 
     22 CA         21.4401  -24.6196  -44.9350 C.3       2 UNK         0.0481 
     23 CB         21.2111  -23.3732  -45.8036 C.3       2 UNK        -0.1831 
     24 N          20.2890  -24.8172  -44.0448 N.am      2 UNK        -0.4498 
     25 C          20.2438  -25.6909  -43.0272 C.2       1 UNK         0.5027 
     26 O          21.1549  -26.4844  -42.7725 O.2       1 UNK        -0.4969 
     27 C          21.5935  -28.9404  -46.1391 C.2       3 UNK         0.5005 
     28 O          22.3510  -29.7144  -46.7268 O.2       3 UNK        -0.5279 
     29 N          21.4470  -28.9201  -44.8073 N.am      4 UNK        -0.4463 
     30 CA         22.1761  -29.7711  -43.8669 C.3       4 UNK         0.0283 
     31 CB         21.2778  -30.0183  -42.6498 C.3       4 UNK        -0.1875 
     32 C          23.5272  -29.1739  -43.4257 C.2       4 UNK         0.4949 
     33 O          24.1649  -29.7484  -42.5438 O.2       4 UNK        -0.5039 
     34 N          23.9326  -28.0378  -44.0154 N.am      5 UNK        -0.4663 
     35 CA         25.1242  -27.2426  -43.6959 C.3       5 UNK         0.0242 
     36 CB         26.4191  -28.0315  -43.9894 C.3       5 UNK        -0.1982 
     37 C          25.0735  -26.6534  -42.2728 C.2       5 UNK         0.5017 
     38 O          26.0676  -26.7123  -41.5470 O.2       5 UNK        -0.5012 
     39 N          23.9090  -26.0886  -41.9161 N.am      6 UNK        -0.4439 
     40 CA         23.5678  -25.4853  -40.6230 C.3       6 UNK         0.0297 
     41 CB         24.4743  -24.2798  -40.2936 C.3       6 UNK        -0.2006 
     42 C          23.5077  -26.5380  -39.5023 C.2       6 UNK         0.4892 
     43 O          24.1346  -26.3738  -38.4540 O.2       6 UNK        -0.5089 
     44 N          22.7377  -27.6004  -39.7554 N.am      7 UNK        -0.4243 
     45 CA         22.4750  -28.7071  -38.8385 C.3       7 UNK         0.0196 
     46 CB         23.6159  -29.7445  -38.9200 C.3       7 UNK        -0.2007 
     47 C          21.0852  -29.2740  -39.1660 C.2       7 UNK         0.5020 
     48 O          20.2103  -28.5072  -39.5690 O.2       7 UNK        -0.5147 
     49 N          20.9002  -30.5903  -39.0120 N.am      8 UNK        -0.4734 
     50 CA         19.6798  -31.3125  -39.3919 C.3       8 UNK         0.0238 
     51 CB         18.6937  -31.3330  -38.2075 C.3       8 UNK        -0.1912 
     52 C          19.9982  -32.7214  -39.9306 C.2       8 UNK         0.5038 
     53 O          19.1573  -33.6161  -39.8289 O.2       8 UNK        -0.5046 
     54 N          21.2062  -32.8911  -40.4873 N.am      9 UNK        -0.4200 
     55 CA         21.7802  -34.1496  -40.9961 C.3       9 UNK         0.0839 
     56 C          22.0750  -35.1829  -39.8647 C.2       9 UNK         0.5513 
     57 N          22.3564  -36.4356  -40.1998 N.am      9 UNK        -0.7519 
     58 O          22.1039  -34.8533  -38.6802 O.2       9 UNK        -0.4960 
     59 C59        21.0008  -34.7524  -42.2057 C.3       10 UNK        -0.0876 
     60 S60        20.7141  -33.5460  -43.5484 S.3       10 UNK        -0.2414 
     61 C61        18.9174  -33.6974  -43.7953 C.3       10 UNK         0.0169 
     62 H62        19.8203  -26.2752  -38.2739 H         1 UNK         0.0903 
     63 H63        21.1279  -25.0887  -38.3059 H         1 UNK         0.0903 
     64 H64        19.5048  -24.6057  -37.8124 H         1 UNK         0.0903 
     65 H65        19.3047  -26.8121  -40.4202 H         1 UNK         0.3096 
     66 H66        18.5322  -24.6726  -42.2694 H         1 UNK         0.1121 
     67 H67        16.9116  -26.3402  -42.2959 H         1 UNK         0.0849 
     68 H68        17.8117  -26.6708  -43.7455 H         1 UNK         0.0849 
     69 H69        16.1471  -29.7706  -42.0759 H         1 UNK         0.0865 
     70 H70        16.0393  -28.5541  -43.3233 H         1 UNK         0.0865 
     71 H71        17.8136  -31.6920  -42.3443 H         1 UNK         0.1346 
     72 H72        18.7274  -32.8103  -46.3826 H         1 UNK         0.1412 
     73 H73        16.7789  -29.0724  -45.5709 H         1 UNK         0.1426 
     74 H74        16.9315  -29.8787  -47.8590 H         1 UNK         0.0716 
     75 H75        17.4859  -31.4986  -48.1874 H         1 UNK         0.0716 
     76 H76        19.0034  -27.5681  -48.0927 H         1 UNK         0.0695 
     77 H77        18.7426  -28.3066  -46.5467 H         1 UNK         0.0695 
     78 H78        21.4160  -27.6666  -47.8386 H         1 UNK         0.0983 
     79 H79        19.7992  -26.2981  -45.9418 H         1 UNK         0.3095 
     80 H80        22.3137  -24.4348  -44.3059 H         1 UNK         0.0454 
     81 H81        22.0653  -23.1911  -46.4576 H         1 UNK         0.0851 
     82 H82        20.3311  -23.4765  -46.4395 H         1 UNK         0.0851 
     83 H83        21.0810  -22.4806  -45.1914 H         1 UNK         0.0851 
     84 H84        19.5042  -24.1970  -44.1884 H         1 UNK         0.2976 
     85 H85        20.8469  -28.2205  -44.3917 H         1 UNK         0.3116 
     86 H86        22.3830  -30.7360  -44.3344 H         1 UNK         0.0646 
     87 H87        21.7728  -30.6639  -41.9279 H         1 UNK         0.0847 
     88 H88        20.3474  -30.5053  -42.9363 H         1 UNK         0.0847 
     89 H89        21.0269  -29.0882  -42.1417 H         1 UNK         0.0847 
     90 H90        23.3455  -27.6483  -44.7437 H         1 UNK         0.3040 
     91 H91        25.1091  -26.3867  -44.3727 H         1 UNK         0.1015 
     92 H92        26.5482  -28.8730  -43.3082 H         1 UNK         0.0786 
     93 H93        27.2964  -27.3924  -43.8824 H         1 UNK         0.0786 
     94 H94        26.4243  -28.4197  -45.0078 H         1 UNK         0.0786 
     95 H95        23.1246  -26.1803  -42.5547 H         1 UNK         0.3172 
     96 H96        22.5549  -25.0983  -40.7341 H         1 UNK         0.0595 
     97 H97        24.1219  -23.7651  -39.3990 H         1 UNK         0.0839 
     98 H98        25.5053  -24.5802  -40.1056 H         1 UNK         0.0839 
     99 H99        24.4781  -23.5523  -41.1051 H         1 UNK         0.0839 
    100 H100       22.2009  -27.6184  -40.6138 H         1 UNK         0.2998 
    101 H101       22.4220  -28.3178  -37.8197 H         1 UNK         0.0822 
    102 H102       23.5042  -30.5257  -38.1676 H         1 UNK         0.0787 
    103 H103       23.6582  -30.2219  -39.8997 H         1 UNK         0.0787 
    104 H104       24.5850  -29.2772  -38.7437 H         1 UNK         0.0787 
    105 H105       21.6516  -31.1491  -38.6304 H         1 UNK         0.3055 
    106 H106       19.2000  -30.7863  -40.2212 H         1 UNK         0.1106 
    107 H107       18.4482  -30.3227  -37.8798 H         1 UNK         0.0828 
    108 H108       17.7554  -31.8160  -38.4832 H         1 UNK         0.0828 
    109 H109       19.1041  -31.8737  -37.3542 H         1 UNK         0.0828 
    110 H110       21.8236  -32.0961  -40.5290 H         1 UNK         0.2931 
    111 H111       22.7657  -33.8639  -41.3658 H         1 UNK         0.0412 
    112 H112       22.5661  -37.0988  -39.4695 H         1 UNK         0.3472 
    113 H113       22.3745  -36.7328  -41.1625 H         1 UNK         0.3472 
    114 H114       21.5588  -35.5799  -42.6451 H         1 UNK         0.0970 
    115 H115       20.0556  -35.1793  -41.8678 H         1 UNK         0.0970 
    116 H116       18.4302  -33.9675  -42.8571 H         1 UNK         0.0612 
    117 H117       18.7164  -34.5112  -44.4935 H         1 UNK         0.0612 
@<TRIPOS>BOND
     1    1    2 1    
     2    1   62 1    
     3    1   63 1    
     4    1   64 1    
     5    2    3 2    
     6    2    4 am   BACKBONE|DICT|INTERRES
     7    4    5 1    
     8    4   65 1    
     9    5    6 1    
    10    5   25 1    
    11    5   66 1    
    12    6    7 1    
    13    6   67 1    
    14    6   68 1    
    15    7    8 1    
    16    8    9 1    
    17    8   69 1    
    18    8   70 1    
    19    9   10 ar   
    20    9   14 ar   
    21   10   11 ar   
    22   10   71 1    
    23   11   12 ar   
    24   11   61 1    
    25   12   13 ar   
    26   12   72 1    
    27   13   14 ar   
    28   13   15 1    
    29   14   73 1    
    30   15   16 1    
    31   15   74 1    
    32   15   75 1    
    33   16   17 1    
    34   17   18 1    
    35   17   76 1    
    36   17   77 1    
    37   18   19 1    
    38   18   27 1    
    39   18   78 1    
    40   19   20 am   BACKBONE|DICT|INTERRES
    41   19   79 1    
    42   20   21 2    
    43   20   22 1    
    44   22   23 1    
    45   22   24 1    
    46   22   80 1    
    47   23   81 1    
    48   23   82 1    
    49   23   83 1    
    50   24   25 am   BACKBONE|DICT|INTERRES
    51   24   84 1    
    52   25   26 2    
    53   27   28 2    
    54   27   29 am   BACKBONE|DICT|INTERRES
    55   29   30 1    
    56   29   85 1    
    57   30   31 1    
    58   30   32 1    
    59   30   86 1    
    60   31   87 1    
    61   31   88 1    
    62   31   89 1    
    63   32   33 2    
    64   32   34 am   BACKBONE|DICT|INTERRES
    65   34   35 1    
    66   34   90 1    
    67   35   36 1    
    68   35   37 1    
    69   35   91 1    
    70   36   92 1    
    71   36   93 1    
    72   36   94 1    
    73   37   38 2    
    74   37   39 am   BACKBONE|DICT|INTERRES
    75   39   40 1    
    76   39   95 1    
    77   40   41 1    
    78   40   42 1    
    79   40   96 1    
    80   41   97 1    
    81   41   98 1    
    82   41   99 1    
    83   42   43 2    
    84   42   44 am   BACKBONE|DICT|INTERRES
    85   44   45 1    
    86   44  100 1    
    87   45   46 1    
    88   45   47 1    
    89   45  101 1    
    90   46  102 1    
    91   46  103 1    
    92   46  104 1    
    93   47   48 2    
    94   47   49 am   BACKBONE|DICT|INTERRES
    95   49   50 1    
    96   49  105 1    
    97   50   51 1    
    98   50   52 1    
    99   50  106 1    
   100   51  107 1    
   101   51  108 1    
   102   51  109 1    
   103   52   53 2    
   104   52   54 am   BACKBONE|DICT|INTERRES
   105   54   55 1    
   106   54  110 1    
   107   55   56 1    
   108   55   59 1    
   109   55  111 1    
   110   56   57 am   BACKBONE|DICT|INTERRES
   111   56   58 2    
   112   57  112 1    
   113   57  113 1    
   114   59   60 1    
   115   59  114 1    
   116   59  115 1    
   117   60   61 1    
   118   61  116 1    
   119   61  117 1    
@<TRIPOS>SUBSTRUCTURE
     1 UNK         1 GROUP             0       ****    0 ROOT    
