@<TRIPOS>MOLECULE
3R8
117   119    1
SMALL
USER_CHARGES


@<TRIPOS>ATOM
      1 CA         19.6653  -22.9916  -49.3937 C.3       0 UNK        -0.2013 
      2 C          20.1985  -23.4882  -48.0580 C.2       0 UNK         0.4866 
      3 O          21.1293  -22.8953  -47.5112 O.2       0 UNK        -0.5176 
      4 N          19.6240  -24.5771  -47.5330 N.am      1 UNK        -0.4884 
      5 CA         19.9788  -25.1627  -46.2375 C.3       1 UNK         0.0853 
      6 C6         19.3293  -26.5538  -46.0349 C.3       10 UNK        -0.0849 
      7 S7         19.9152  -27.8491  -47.1765 S.3       10 UNK        -0.2776 
      8 C8         20.5555  -29.1220  -46.0189 C.3       10 UNK         0.0316 
      9 C9         19.5426  -29.7710  -45.0633 C.ar      10 UNK        -0.0863 
     10 C10        20.0013  -30.7605  -44.1860 C.ar      10 UNK        -0.1009 
     11 C11        19.1363  -31.3824  -43.2795 C.ar      10 UNK        -0.0712 
     12 C12        17.8036  -30.9708  -43.2100 C.ar      10 UNK        -0.0894 
     13 C13        17.3314  -29.9677  -44.0595 C.ar      10 UNK        -0.0745 
     14 C14        18.1891  -29.4093  -45.0103 C.ar      10 UNK        -0.0972 
     15 C15        15.9103  -29.4413  -43.9202 C.3       10 UNK         0.0209 
     16 S16        15.8934  -27.7457  -43.2396 S.3       10 UNK        -0.2568 
     17 C17        16.6731  -27.9860  -41.6059 C.3       10 UNK        -0.0983 
     18 CA         18.1850  -27.6462  -41.6189 C.3       3 UNK         0.0876 
     19 N          18.4462  -26.2304  -41.9050 N.am      3 UNK        -0.4424 
     20 C          19.6657  -25.7054  -42.0753 C.2       2 UNK         0.4918 
     21 O          20.7158  -26.3428  -41.9484 O.2       2 UNK        -0.4875 
     22 CA         19.7405  -24.2657  -42.5972 C.3       2 UNK         0.0481 
     23 CB         20.7036  -23.4046  -41.7641 C.3       2 UNK        -0.1831 
     24 N          20.2599  -24.4085  -43.9505 N.am      2 UNK        -0.4498 
     25 C          19.5296  -24.2738  -45.0607 C.2       1 UNK         0.5027 
     26 O          18.4872  -23.6178  -45.1336 O.2       1 UNK        -0.4969 
     27 C          18.8675  -28.1068  -40.3168 C.2       3 UNK         0.5005 
     28 O          18.6798  -27.4729  -39.2763 O.2       3 UNK        -0.5279 
     29 N          19.6624  -29.1826  -40.4235 N.am      4 UNK        -0.4463 
     30 CA         20.4996  -29.7929  -39.3814 C.3       4 UNK         0.0283 
     31 CB         19.6567  -30.2479  -38.1714 C.3       4 UNK        -0.1875 
     32 C          21.7195  -28.9454  -38.9566 C.2       4 UNK         0.4949 
     33 O          22.4197  -29.3499  -38.0274 O.2       4 UNK        -0.5039 
     34 N          21.9727  -27.8125  -39.6287 N.am      5 UNK        -0.4663 
     35 CA         23.0805  -26.8975  -39.3404 C.3       5 UNK         0.0242 
     36 CB         22.5198  -25.5259  -38.9315 C.3       5 UNK        -0.1982 
     37 C          24.0366  -26.7697  -40.5343 C.2       5 UNK         0.5017 
     38 O          25.2494  -26.8476  -40.3363 O.2       5 UNK        -0.5012 
     39 N          23.4909  -26.5921  -41.7481 N.am      6 UNK        -0.4439 
     40 CA         24.2568  -26.5319  -43.0014 C.3       6 UNK         0.0297 
     41 CB         23.3624  -25.9989  -44.1316 C.3       6 UNK        -0.2006 
     42 C          24.8611  -27.8939  -43.3843 C.2       6 UNK         0.4892 
     43 O          25.9808  -27.9501  -43.8935 O.2       6 UNK        -0.5089 
     44 N          24.1135  -28.9588  -43.0891 N.am      7 UNK        -0.4243 
     45 CA         24.5374  -30.3497  -43.0826 C.3       7 UNK         0.0196 
     46 CB         24.2832  -30.9987  -44.4531 C.3       7 UNK        -0.2007 
     47 C          23.7206  -31.0116  -41.9711 C.2       7 UNK         0.5020 
     48 O          22.5651  -30.6306  -41.7749 O.2       7 UNK        -0.5147 
     49 N          24.3307  -31.9513  -41.2419 N.am      8 UNK        -0.4734 
     50 CA         23.7391  -32.5556  -40.0427 C.3       8 UNK         0.0238 
     51 CB         24.8635  -33.1320  -39.1663 C.3       8 UNK        -0.1912 
     52 C          22.6862  -33.6385  -40.3339 C.2       8 UNK         0.5038 
     53 O          21.8526  -33.8987  -39.4654 O.2       8 UNK        -0.5046 
     54 N          22.7563  -34.2561  -41.5224 N.am      9 UNK        -0.4200 
     55 CA         21.9865  -35.4458  -41.9321 C.3       9 UNK         0.0839 
     56 C          22.3434  -36.7194  -41.1011 C.2       9 UNK         0.5513 
     57 N          21.6224  -37.8187  -41.2810 N.am      9 UNK        -0.7519 
     58 O          23.3016  -36.7484  -40.3305 O.2       9 UNK        -0.4960 
     59 C59        20.4532  -35.1792  -42.0317 C.3       10 UNK        -0.0876 
     60 S60        20.0346  -33.9855  -43.3436 S.3       10 UNK        -0.2414 
     61 C61        19.6431  -32.4971  -42.3763 C.3       10 UNK         0.0169 
     62 H62        18.8548  -23.6170  -49.7675 H         1 UNK         0.0903 
     63 H63        19.2892  -21.9740  -49.2922 H         1 UNK         0.0903 
     64 H64        20.4614  -22.9883  -50.1378 H         1 UNK         0.0903 
     65 H65        18.8600  -25.0237  -48.0200 H         1 UNK         0.3096 
     66 H66        21.0658  -25.2675  -46.2035 H         1 UNK         0.1121 
     67 H67        18.2451  -26.4754  -46.1412 H         1 UNK         0.0849 
     68 H68        19.5007  -26.9073  -45.0158 H         1 UNK         0.0849 
     69 H69        21.0169  -29.9103  -46.6154 H         1 UNK         0.0865 
     70 H70        21.3599  -28.6793  -45.4294 H         1 UNK         0.0865 
     71 H71        21.0367  -31.0679  -44.2131 H         1 UNK         0.1346 
     72 H72        17.1369  -31.4229  -42.4883 H         1 UNK         0.1412 
     73 H73        17.7863  -28.6615  -45.6746 H         1 UNK         0.1426 
     74 H74        15.3106  -30.0931  -43.2830 H         1 UNK         0.0716 
     75 H75        15.4276  -29.4375  -44.8985 H         1 UNK         0.0716 
     76 H76        16.5070  -29.0179  -41.2903 H         1 UNK         0.0695 
     77 H77        16.1497  -27.3628  -40.8785 H         1 UNK         0.0695 
     78 H78        18.6468  -28.1997  -42.4377 H         1 UNK         0.0983 
     79 H79        17.6320  -25.6507  -42.0466 H         1 UNK         0.3095 
     80 H80        18.7480  -23.8102  -42.5868 H         1 UNK         0.0454 
     81 H81        21.7157  -23.8111  -41.7542 H         1 UNK         0.0851 
     82 H82        20.3659  -23.3324  -40.7297 H         1 UNK         0.0851 
     83 H83        20.7603  -22.3898  -42.1577 H         1 UNK         0.0851 
     84 H84        21.0918  -24.9781  -44.0032 H         1 UNK         0.2976 
     85 H85        19.7696  -29.6030  -41.3377 H         1 UNK         0.3116 
     86 H86        20.9081  -30.6987  -39.8283 H         1 UNK         0.0646 
     87 H87        19.2808  -29.4030  -37.5942 H         1 UNK         0.0847 
     88 H88        20.2508  -30.8610  -37.4926 H         1 UNK         0.0847 
     89 H89        18.8039  -30.8501  -38.4842 H         1 UNK         0.0847 
     90 H90        21.3531  -27.5507  -40.3863 H         1 UNK         0.3040 
     91 H91        23.6749  -27.2717  -38.5038 H         1 UNK         0.1015 
     92 H92        21.8673  -25.1098  -39.6975 H         1 UNK         0.0786 
     93 H93        23.3226  -24.8084  -38.7563 H         1 UNK         0.0786 
     94 H94        21.9423  -25.5983  -38.0098 H         1 UNK         0.0786 
     95 H95        22.4782  -26.5145  -41.8221 H         1 UNK         0.3172 
     96 H96        25.0826  -25.8308  -42.8628 H         1 UNK         0.0595 
     97 H97        22.4781  -26.6210  -44.2740 H         1 UNK         0.0839 
     98 H98        23.9031  -25.9795  -45.0793 H         1 UNK         0.0839 
     99 H99        23.0437  -24.9777  -43.9255 H         1 UNK         0.0839 
    100 H100       23.2187  -28.8173  -42.6360 H         1 UNK         0.2998 
    101 H101       25.5992  -30.4091  -42.8334 H         1 UNK         0.0822 
    102 H102       24.8801  -30.5209  -45.2301 H         1 UNK         0.0787 
    103 H103       24.5504  -32.0560  -44.4416 H         1 UNK         0.0787 
    104 H104       23.2373  -30.9266  -44.7486 H         1 UNK         0.0787 
    105 H105       25.2813  -32.2118  -41.4653 H         1 UNK         0.3055 
    106 H106       23.2388  -31.7702  -39.4708 H         1 UNK         0.1106 
    107 H107       24.4604  -33.5603  -38.2472 H         1 UNK         0.0828 
    108 H108       25.4116  -33.9233  -39.6792 H         1 UNK         0.0828 
    109 H109       25.5762  -32.3603  -38.8748 H         1 UNK         0.0828 
    110 H110       23.4858  -33.9685  -42.1569 H         1 UNK         0.2931 
    111 H111       22.3448  -35.6739  -42.9367 H         1 UNK         0.0412 
    112 H112       21.8630  -38.6485  -40.7609 H         1 UNK         0.3472 
    113 H113       20.8566  -37.8456  -41.9358 H         1 UNK         0.3472 
    114 H114       20.0441  -34.8537  -41.0746 H         1 UNK         0.0970 
    115 H115       19.9125  -36.0922  -42.2821 H         1 UNK         0.0970 
    116 H116       20.5325  -32.1673  -41.8432 H         1 UNK         0.0612 
    117 H117       18.9002  -32.7454  -41.6168 H         1 UNK         0.0612 
@<TRIPOS>BOND
     1    1    2 1    
     2    1   62 1    
     3    1   63 1    
     4    1   64 1    
     5    2    3 2    
     6    2    4 am   BACKBONE|DICT|INTERRES
     7    4    5 1    
     8    4   65 1    
     9    5    6 1    
    10    5   25 1    
    11    5   66 1    
    12    6    7 1    
    13    6   67 1    
    14    6   68 1    
    15    7    8 1    
    16    8    9 1    
    17    8   69 1    
    18    8   70 1    
    19    9   10 ar   
    20    9   14 ar   
    21   10   11 ar   
    22   10   71 1    
    23   11   12 ar   
    24   11   61 1    
    25   12   13 ar   
    26   12   72 1    
    27   13   14 ar   
    28   13   15 1    
    29   14   73 1    
    30   15   16 1    
    31   15   74 1    
    32   15   75 1    
    33   16   17 1    
    34   17   18 1    
    35   17   76 1    
    36   17   77 1    
    37   18   19 1    
    38   18   27 1    
    39   18   78 1    
    40   19   20 am   BACKBONE|DICT|INTERRES
    41   19   79 1    
    42   20   21 2    
    43   20   22 1    
    44   22   23 1    
    45   22   24 1    
    46   22   80 1    
    47   23   81 1    
    48   23   82 1    
    49   23   83 1    
    50   24   25 am   BACKBONE|DICT|INTERRES
    51   24   84 1    
    52   25   26 2    
    53   27   28 2    
    54   27   29 am   BACKBONE|DICT|INTERRES
    55   29   30 1    
    56   29   85 1    
    57   30   31 1    
    58   30   32 1    
    59   30   86 1    
    60   31   87 1    
    61   31   88 1    
    62   31   89 1    
    63   32   33 2    
    64   32   34 am   BACKBONE|DICT|INTERRES
    65   34   35 1    
    66   34   90 1    
    67   35   36 1    
    68   35   37 1    
    69   35   91 1    
    70   36   92 1    
    71   36   93 1    
    72   36   94 1    
    73   37   38 2    
    74   37   39 am   BACKBONE|DICT|INTERRES
    75   39   40 1    
    76   39   95 1    
    77   40   41 1    
    78   40   42 1    
    79   40   96 1    
    80   41   97 1    
    81   41   98 1    
    82   41   99 1    
    83   42   43 2    
    84   42   44 am   BACKBONE|DICT|INTERRES
    85   44   45 1    
    86   44  100 1    
    87   45   46 1    
    88   45   47 1    
    89   45  101 1    
    90   46  102 1    
    91   46  103 1    
    92   46  104 1    
    93   47   48 2    
    94   47   49 am   BACKBONE|DICT|INTERRES
    95   49   50 1    
    96   49  105 1    
    97   50   51 1    
    98   50   52 1    
    99   50  106 1    
   100   51  107 1    
   101   51  108 1    
   102   51  109 1    
   103   52   53 2    
   104   52   54 am   BACKBONE|DICT|INTERRES
   105   54   55 1    
   106   54  110 1    
   107   55   56 1    
   108   55   59 1    
   109   55  111 1    
   110   56   57 am   BACKBONE|DICT|INTERRES
   111   56   58 2    
   112   57  112 1    
   113   57  113 1    
   114   59   60 1    
   115   59  114 1    
   116   59  115 1    
   117   60   61 1    
   118   61  116 1    
   119   61  117 1    
@<TRIPOS>SUBSTRUCTURE
     1 UNK         1 GROUP             0       ****    0 ROOT    
