@<TRIPOS>MOLECULE
3R8
117   119    1
SMALL
USER_CHARGES


@<TRIPOS>ATOM
      1 CA         15.2592  -23.8249  -43.9174 C.3       0 UNK        -0.2013 
      2 C          16.3677  -24.6186  -44.5920 C.2       0 UNK         0.4866 
      3 O          17.1800  -25.2252  -43.8933 O.2       0 UNK        -0.5176 
      4 N          16.3904  -24.6078  -45.9356 N.am      1 UNK        -0.4884 
      5 CA         17.3352  -25.2671  -46.8551 C.3       1 UNK         0.0853 
      6 C6         16.9465  -26.7240  -47.2565 C.3       10 UNK        -0.0849 
      7 S7         16.6058  -27.8752  -45.8797 S.3       10 UNK        -0.2776 
      8 C8         17.9572  -29.1038  -45.9966 C.3       10 UNK         0.0316 
      9 C9         18.4603  -29.6187  -44.6447 C.ar      10 UNK        -0.0863 
     10 C10        19.7281  -30.2055  -44.5735 C.ar      10 UNK        -0.1009 
     11 C11        20.2271  -30.6975  -43.3616 C.ar      10 UNK        -0.0712 
     12 C12        19.4561  -30.5756  -42.2019 C.ar      10 UNK        -0.0894 
     13 C13        18.1942  -29.9796  -42.2507 C.ar      10 UNK        -0.0745 
     14 C14        17.6945  -29.5292  -43.4746 C.ar      10 UNK        -0.0972 
     15 C15        17.3737  -29.7924  -40.9809 C.3       10 UNK         0.0209 
     16 S16        18.0165  -28.4460  -39.9281 S.3       10 UNK        -0.2568 
     17 C17        18.1249  -27.0444  -41.0953 C.3       10 UNK        -0.0983 
     18 CA         19.5826  -26.8468  -41.5893 C.3       3 UNK         0.0876 
     19 N          19.6490  -26.4432  -42.9971 N.am      3 UNK        -0.4424 
     20 C          20.7818  -26.4730  -43.7163 C.2       2 UNK         0.4918 
     21 O          21.8613  -26.8352  -43.2492 O.2       2 UNK        -0.4875 
     22 CA         20.7288  -26.0358  -45.1891 C.3       2 UNK         0.0481 
     23 CB         21.6158  -26.9225  -46.0834 C.3       2 UNK        -0.1831 
     24 N          19.3631  -26.0387  -45.7075 N.am      2 UNK        -0.4498 
     25 C          18.8153  -25.0795  -46.4595 C.2       1 UNK         0.5027 
     26 O          19.4164  -24.0722  -46.8381 O.2       1 UNK        -0.4969 
     27 C          20.3676  -25.8676  -40.6929 C.2       3 UNK         0.5005 
     28 O          20.3869  -24.6649  -40.9691 O.2       3 UNK        -0.5279 
     29 N          21.0304  -26.4066  -39.6608 N.am      4 UNK        -0.4463 
     30 CA         21.9388  -25.7510  -38.7068 C.3       4 UNK         0.0283 
     31 CB         21.2614  -24.5842  -37.9615 C.3       4 UNK        -0.1875 
     32 C          23.2886  -25.3250  -39.3155 C.2       4 UNK         0.4949 
     33 O          24.3076  -25.4363  -38.6337 O.2       4 UNK        -0.5039 
     34 N          23.2932  -24.8832  -40.5810 N.am      5 UNK        -0.4663 
     35 CA         24.4971  -24.6576  -41.3874 C.3       5 UNK         0.0242 
     36 CB         24.1176  -23.9189  -42.6811 C.3       5 UNK        -0.1982 
     37 C          25.2263  -25.9763  -41.7017 C.2       5 UNK         0.5017 
     38 O          26.4554  -26.0247  -41.6398 O.2       5 UNK        -0.5012 
     39 N          24.4439  -27.0207  -41.9891 N.am      6 UNK        -0.4439 
     40 CA         24.8500  -28.4161  -42.0818 C.3       6 UNK         0.0297 
     41 CB         24.7373  -28.8729  -43.5464 C.3       6 UNK        -0.2006 
     42 C          23.9419  -29.2449  -41.1592 C.2       6 UNK         0.4892 
     43 O          22.8910  -28.7662  -40.7212 O.2       6 UNK        -0.5089 
     44 N          24.3670  -30.4789  -40.8783 N.am      7 UNK        -0.4243 
     45 CA         23.6810  -31.4308  -40.0096 C.3       7 UNK         0.0196 
     46 CB         24.1641  -31.2387  -38.5597 C.3       7 UNK        -0.2007 
     47 C          23.9522  -32.8558  -40.5087 C.2       7 UNK         0.5020 
     48 O          24.8195  -33.0504  -41.3639 O.2       7 UNK        -0.5147 
     49 N          23.2065  -33.8201  -39.9508 N.am      8 UNK        -0.4734 
     50 CA         23.2703  -35.2637  -40.2296 C.3       8 UNK         0.0238 
     51 CB         24.6442  -35.8479  -39.8322 C.3       8 UNK        -0.1912 
     52 C          22.8487  -35.6404  -41.6656 C.2       8 UNK         0.5038 
     53 O          23.3655  -36.6115  -42.2217 O.2       8 UNK        -0.5046 
     54 N          21.8974  -34.8824  -42.2277 N.am      9 UNK        -0.4200 
     55 CA         21.2811  -35.1454  -43.5398 C.3       9 UNK         0.0839 
     56 C          20.2503  -36.3131  -43.5408 C.2       9 UNK         0.5513 
     57 N          19.8223  -36.8316  -42.3954 N.am      9 UNK        -0.7519 
     58 O          19.8359  -36.7626  -44.6062 O.2       9 UNK        -0.4960 
     59 C59        20.6605  -33.8623  -44.1517 C.3       10 UNK        -0.0876 
     60 S60        21.9150  -32.5991  -44.5542 S.3       10 UNK        -0.2414 
     61 C61        21.6115  -31.3296  -43.2832 C.3       10 UNK         0.0169 
     62 H62        15.6875  -23.0573  -43.2734 H         1 UNK         0.0903 
     63 H63        14.6053  -23.3366  -44.6396 H         1 UNK         0.0903 
     64 H64        14.6502  -24.4855  -43.3008 H         1 UNK         0.0903 
     65 H65        15.6838  -24.0589  -46.4057 H         1 UNK         0.3096 
     66 H66        17.2446  -24.6896  -47.7774 H         1 UNK         0.1121 
     67 H67        17.6935  -27.1507  -47.9283 H         1 UNK         0.0849 
     68 H68        16.0324  -26.6831  -47.8507 H         1 UNK         0.0849 
     69 H69        17.6054  -29.9517  -46.5858 H         1 UNK         0.0865 
     70 H70        18.7953  -28.6769  -46.5486 H         1 UNK         0.0865 
     71 H71        20.3318  -30.2873  -45.4671 H         1 UNK         0.1346 
     72 H72        19.8431  -30.9229  -41.2538 H         1 UNK         0.1412 
     73 H73        16.7101  -29.0847  -43.4968 H         1 UNK         0.1426 
     74 H74        17.3728  -30.7208  -40.4081 H         1 UNK         0.0716 
     75 H75        16.3306  -29.5834  -41.2233 H         1 UNK         0.0716 
     76 H76        17.7321  -26.1454  -40.6159 H         1 UNK         0.0695 
     77 H77        17.4501  -27.2342  -41.9304 H         1 UNK         0.0695 
     78 H78        20.0980  -27.8098  -41.5469 H         1 UNK         0.0983 
     79 H79        18.8011  -26.0451  -43.3957 H         1 UNK         0.3095 
     80 H80        21.1297  -25.0206  -45.2098 H         1 UNK         0.0454 
     81 H81        21.3031  -27.9662  -46.0501 H         1 UNK         0.0851 
     82 H82        22.6584  -26.8847  -45.7650 H         1 UNK         0.0851 
     83 H83        21.5862  -26.5948  -47.1224 H         1 UNK         0.0851 
     84 H84        18.7588  -26.7880  -45.3920 H         1 UNK         0.2976 
     85 H85        21.0014  -27.4152  -39.5769 H         1 UNK         0.3116 
     86 H86        22.1677  -26.5172  -37.9643 H         1 UNK         0.0646 
     87 H87        21.0498  -23.7419  -38.6204 H         1 UNK         0.0847 
     88 H88        21.9050  -24.2114  -37.1636 H         1 UNK         0.0847 
     89 H89        20.3237  -24.8966  -37.5023 H         1 UNK         0.0847 
     90 H90        22.3941  -24.7801  -41.0406 H         1 UNK         0.3040 
     91 H91        25.1796  -24.0262  -40.8140 H         1 UNK         0.1015 
     92 H92        25.0009  -23.7229  -43.2905 H         1 UNK         0.0786 
     93 H93        23.6522  -22.9568  -42.4662 H         1 UNK         0.0786 
     94 H94        23.4232  -24.4985  -43.2907 H         1 UNK         0.0786 
     95 H95        23.4373  -26.8819  -42.0323 H         1 UNK         0.3172 
     96 H96        25.8803  -28.5378  -41.7410 H         1 UNK         0.0595 
     97 H97        23.7313  -28.7219  -43.9393 H         1 UNK         0.0839 
     98 H98        24.9788  -29.9309  -43.6551 H         1 UNK         0.0839 
     99 H99        25.4252  -28.3170  -44.1834 H         1 UNK         0.0839 
    100 H100       25.1921  -30.8493  -41.3339 H         1 UNK         0.2998 
    101 H101       22.6035  -31.2585  -40.0570 H         1 UNK         0.0822 
    102 H102       23.6565  -31.9205  -37.8765 H         1 UNK         0.0787 
    103 H103       25.2357  -31.4198  -38.4666 H         1 UNK         0.0787 
    104 H104       23.9652  -30.2260  -38.2079 H         1 UNK         0.0787 
    105 H105       22.5278  -33.5472  -39.2521 H         1 UNK         0.3055 
    106 H106       22.5272  -35.7291  -39.5797 H         1 UNK         0.1106 
    107 H107       24.9103  -35.5788  -38.8101 H         1 UNK         0.0828 
    108 H108       24.6366  -36.9373  -39.8860 H         1 UNK         0.0828 
    109 H109       25.4407  -35.4987  -40.4899 H         1 UNK         0.0828 
    110 H110       21.5240  -34.1076  -41.7023 H         1 UNK         0.2931 
    111 H111       22.0788  -35.4662  -44.2131 H         1 UNK         0.0412 
    112 H112       19.1583  -37.5902  -42.4159 H         1 UNK         0.3472 
    113 H113       20.1499  -36.4734  -41.5133 H         1 UNK         0.3472 
    114 H114       20.1441  -34.0936  -45.0855 H         1 UNK         0.0970 
    115 H115       19.8990  -33.4491  -43.4884 H         1 UNK         0.0970 
    116 H116       22.3557  -30.5430  -43.3931 H         1 UNK         0.0612 
    117 H117       21.7756  -31.7780  -42.3043 H         1 UNK         0.0612 
@<TRIPOS>BOND
     1    1    2 1    
     2    1   62 1    
     3    1   63 1    
     4    1   64 1    
     5    2    3 2    
     6    2    4 am   BACKBONE|DICT|INTERRES
     7    4    5 1    
     8    4   65 1    
     9    5    6 1    
    10    5   25 1    
    11    5   66 1    
    12    6    7 1    
    13    6   67 1    
    14    6   68 1    
    15    7    8 1    
    16    8    9 1    
    17    8   69 1    
    18    8   70 1    
    19    9   10 ar   
    20    9   14 ar   
    21   10   11 ar   
    22   10   71 1    
    23   11   12 ar   
    24   11   61 1    
    25   12   13 ar   
    26   12   72 1    
    27   13   14 ar   
    28   13   15 1    
    29   14   73 1    
    30   15   16 1    
    31   15   74 1    
    32   15   75 1    
    33   16   17 1    
    34   17   18 1    
    35   17   76 1    
    36   17   77 1    
    37   18   19 1    
    38   18   27 1    
    39   18   78 1    
    40   19   20 am   BACKBONE|DICT|INTERRES
    41   19   79 1    
    42   20   21 2    
    43   20   22 1    
    44   22   23 1    
    45   22   24 1    
    46   22   80 1    
    47   23   81 1    
    48   23   82 1    
    49   23   83 1    
    50   24   25 am   BACKBONE|DICT|INTERRES
    51   24   84 1    
    52   25   26 2    
    53   27   28 2    
    54   27   29 am   BACKBONE|DICT|INTERRES
    55   29   30 1    
    56   29   85 1    
    57   30   31 1    
    58   30   32 1    
    59   30   86 1    
    60   31   87 1    
    61   31   88 1    
    62   31   89 1    
    63   32   33 2    
    64   32   34 am   BACKBONE|DICT|INTERRES
    65   34   35 1    
    66   34   90 1    
    67   35   36 1    
    68   35   37 1    
    69   35   91 1    
    70   36   92 1    
    71   36   93 1    
    72   36   94 1    
    73   37   38 2    
    74   37   39 am   BACKBONE|DICT|INTERRES
    75   39   40 1    
    76   39   95 1    
    77   40   41 1    
    78   40   42 1    
    79   40   96 1    
    80   41   97 1    
    81   41   98 1    
    82   41   99 1    
    83   42   43 2    
    84   42   44 am   BACKBONE|DICT|INTERRES
    85   44   45 1    
    86   44  100 1    
    87   45   46 1    
    88   45   47 1    
    89   45  101 1    
    90   46  102 1    
    91   46  103 1    
    92   46  104 1    
    93   47   48 2    
    94   47   49 am   BACKBONE|DICT|INTERRES
    95   49   50 1    
    96   49  105 1    
    97   50   51 1    
    98   50   52 1    
    99   50  106 1    
   100   51  107 1    
   101   51  108 1    
   102   51  109 1    
   103   52   53 2    
   104   52   54 am   BACKBONE|DICT|INTERRES
   105   54   55 1    
   106   54  110 1    
   107   55   56 1    
   108   55   59 1    
   109   55  111 1    
   110   56   57 am   BACKBONE|DICT|INTERRES
   111   56   58 2    
   112   57  112 1    
   113   57  113 1    
   114   59   60 1    
   115   59  114 1    
   116   59  115 1    
   117   60   61 1    
   118   61  116 1    
   119   61  117 1    
@<TRIPOS>SUBSTRUCTURE
     1 UNK         1 GROUP             0       ****    0 ROOT    
