@<TRIPOS>MOLECULE
3R8
117   119    1
SMALL
USER_CHARGES


@<TRIPOS>ATOM
      1 CA         15.4583  -22.7388  -41.9260 C.3       0 UNK        -0.2013 
      2 C          16.0137  -23.9951  -42.5811 C.2       0 UNK         0.4866 
      3 O          16.6289  -24.8097  -41.8964 O.2       0 UNK        -0.5176 
      4 N          15.7794  -24.1512  -43.8913 N.am      1 UNK        -0.4884 
      5 CA         16.2689  -25.2139  -44.7821 C.3       1 UNK         0.0853 
      6 C6         16.0891  -26.6532  -44.2265 C.3       10 UNK        -0.0849 
      7 S7         15.7404  -27.8594  -45.5495 S.3       10 UNK        -0.2776 
      8 C8         15.7230  -29.4210  -44.6112 C.3       10 UNK         0.0316 
      9 C9         17.1081  -29.7752  -44.0921 C.ar      10 UNK        -0.0863 
     10 C10        17.3922  -29.7199  -42.7250 C.ar      10 UNK        -0.1009 
     11 C11        18.6720  -30.0155  -42.2453 C.ar      10 UNK        -0.0712 
     12 C12        19.6764  -30.3512  -43.1653 C.ar      10 UNK        -0.0894 
     13 C13        19.4047  -30.4227  -44.5348 C.ar      10 UNK        -0.0745 
     14 C14        18.1113  -30.1496  -44.9874 C.ar      10 UNK        -0.0972 
     15 C15        20.4984  -30.8219  -45.5205 C.3       10 UNK         0.0209 
     16 S16        20.6231  -29.6683  -46.9298 S.3       10 UNK        -0.2568 
     17 C17        22.0413  -28.6063  -46.4822 C.3       10 UNK        -0.0983 
     18 CA         21.7095  -27.3536  -45.6208 C.3       3 UNK         0.0876 
     19 N          20.5075  -26.6456  -46.0755 N.am      3 UNK        -0.4424 
     20 C          20.5136  -25.5147  -46.7880 C.2       2 UNK         0.4918 
     21 O          21.5348  -24.8849  -47.0659 O.2       2 UNK        -0.4875 
     22 CA         19.1619  -24.9953  -47.3075 C.3       2 UNK         0.0481 
     23 CB         18.9508  -25.4509  -48.7606 C.3       2 UNK        -0.1831 
     24 N          17.9870  -25.3760  -46.5156 N.am      2 UNK        -0.4498 
     25 C          17.7039  -24.9302  -45.2835 C.2       1 UNK         0.5027 
     26 O          18.5025  -24.2951  -44.5904 O.2       1 UNK        -0.4969 
     27 C          21.6711  -27.6247  -44.1069 C.2       3 UNK         0.5005 
     28 O          22.2896  -28.5837  -43.6421 O.2       3 UNK        -0.5279 
     29 N          20.9800  -26.7655  -43.3430 N.am      4 UNK        -0.4463 
     30 CA         20.8342  -26.8545  -41.8863 C.3       4 UNK         0.0283 
     31 CB         19.6196  -26.0219  -41.4511 C.3       4 UNK        -0.1875 
     32 C          22.1202  -26.4963  -41.1123 C.2       4 UNK         0.4949 
     33 O          22.1286  -25.5659  -40.3060 O.2       4 UNK        -0.5039 
     34 N          23.1858  -27.2596  -41.3727 N.am      5 UNK        -0.4663 
     35 CA         24.5121  -27.1458  -40.7610 C.3       5 UNK         0.0242 
     36 CB         25.5680  -27.4362  -41.8432 C.3       5 UNK        -0.1982 
     37 C          24.6915  -28.0813  -39.5495 C.2       5 UNK         0.5017 
     38 O          25.8196  -28.2476  -39.0834 O.2       5 UNK        -0.5012 
     39 N          23.5995  -28.7079  -39.0852 N.am      6 UNK        -0.4439 
     40 CA         23.4846  -29.6905  -37.9970 C.3       6 UNK         0.0297 
     41 CB         24.0052  -29.1405  -36.6542 C.3       6 UNK        -0.2006 
     42 C          24.1116  -31.0535  -38.3341 C.2       6 UNK         0.4892 
     43 O          23.4263  -32.0710  -38.2405 O.2       6 UNK        -0.5089 
     44 N          25.3838  -31.0541  -38.7502 N.am      7 UNK        -0.4243 
     45 CA         26.1321  -32.2447  -39.1644 C.3       7 UNK         0.0196 
     46 CB         27.6242  -31.8907  -39.2668 C.3       7 UNK        -0.2007 
     47 C          25.6300  -32.8475  -40.4887 C.2       7 UNK         0.5020 
     48 O          25.7435  -34.0572  -40.6846 O.2       7 UNK        -0.5147 
     49 N          25.0871  -31.9977  -41.3704 N.am      8 UNK        -0.4734 
     50 CA         24.5291  -32.3854  -42.6692 C.3       8 UNK         0.0238 
     51 CB         24.6616  -31.1971  -43.6356 C.3       8 UNK        -0.1912 
     52 C          23.0652  -32.8586  -42.5923 C.2       8 UNK         0.5038 
     53 O          22.5642  -33.3960  -43.5810 O.2       8 UNK        -0.5046 
     54 N          22.3988  -32.6359  -41.4523 N.am      9 UNK        -0.4200 
     55 CA         21.0025  -33.0231  -41.2098 C.3       9 UNK         0.0839 
     56 C          20.8346  -34.5551  -41.0259 C.2       9 UNK         0.5513 
     57 N          19.6816  -35.0980  -41.3926 N.am      9 UNK        -0.7519 
     58 O          21.7155  -35.2472  -40.5197 O.2       9 UNK        -0.4960 
     59 C59        20.3885  -32.2512  -40.0128 C.3       10 UNK        -0.0876 
     60 S60        20.5599  -30.4355  -40.1416 S.3       10 UNK        -0.2414 
     61 C61        18.9091  -29.9231  -40.7347 C.3       10 UNK         0.0169 
     62 H62        14.9183  -22.1108  -42.6343 H         1 UNK         0.0903 
     63 H63        14.7745  -23.0069  -41.1210 H         1 UNK         0.0903 
     64 H64        16.2702  -22.1492  -41.5009 H         1 UNK         0.0903 
     65 H65        15.2718  -23.4183  -44.3684 H         1 UNK         0.3096 
     66 H66        15.6193  -25.1143  -45.6539 H         1 UNK         0.1121 
     67 H67        16.9614  -26.9653  -43.6493 H         1 UNK         0.0849 
     68 H68        15.2445  -26.6894  -43.5366 H         1 UNK         0.0849 
     69 H69        15.0031  -29.3471  -43.7944 H         1 UNK         0.0865 
     70 H70        15.3673  -30.2220  -45.2608 H         1 UNK         0.0865 
     71 H71        16.6150  -29.4349  -42.0287 H         1 UNK         0.1346 
     72 H72        20.6829  -30.5526  -42.8296 H         1 UNK         0.1412 
     73 H73        17.8891  -30.2029  -46.0446 H         1 UNK         0.1426 
     74 H74        20.2658  -31.8155  -45.9051 H         1 UNK         0.0716 
     75 H75        21.4658  -30.9078  -45.0229 H         1 UNK         0.0716 
     76 H76        22.8318  -29.2137  -46.0377 H         1 UNK         0.0695 
     77 H77        22.4620  -28.2602  -47.4274 H         1 UNK         0.0695 
     78 H78        22.5697  -26.6879  -45.7188 H         1 UNK         0.0983 
     79 H79        19.6273  -27.1094  -45.8994 H         1 UNK         0.3095 
     80 H80        19.2164  -23.9046  -47.3040 H         1 UNK         0.0454 
     81 H81        19.7908  -25.1537  -49.3902 H         1 UNK         0.0851 
     82 H82        18.8582  -26.5354  -48.8340 H         1 UNK         0.0851 
     83 H83        18.0544  -25.0057  -49.1925 H         1 UNK         0.0851 
     84 H84        17.2901  -25.9315  -46.9927 H         1 UNK         0.2976 
     85 H85        20.5306  -25.9799  -43.7937 H         1 UNK         0.3116 
     86 H86        20.6155  -27.8930  -41.6435 H         1 UNK         0.0646 
     87 H87        19.4688  -26.0738  -40.3721 H         1 UNK         0.0847 
     88 H88        18.7093  -26.3963  -41.9183 H         1 UNK         0.0847 
     89 H89        19.7274  -24.9703  -41.7191 H         1 UNK         0.0847 
     90 H90        23.0677  -27.9688  -42.0956 H         1 UNK         0.3040 
     91 H91        24.6620  -26.1255  -40.4012 H         1 UNK         0.1015 
     92 H92        25.4544  -26.7669  -42.6962 H         1 UNK         0.0786 
     93 H93        25.4994  -28.4603  -42.2111 H         1 UNK         0.0786 
     94 H94        26.5786  -27.2943  -41.4577 H         1 UNK         0.0786 
     95 H95        22.7372  -28.5201  -39.5778 H         1 UNK         0.3172 
     96 H96        22.4147  -29.8619  -37.8714 H         1 UNK         0.0595 
     97 H97        23.5152  -28.2021  -36.3945 H         1 UNK         0.0839 
     98 H98        25.0809  -28.9644  -36.6659 H         1 UNK         0.0839 
     99 H99        23.8048  -29.8445  -35.8454 H         1 UNK         0.0839 
    100 H100       25.8542  -30.1549  -38.8126 H         1 UNK         0.2998 
    101 H101       26.0113  -33.0061  -38.3906 H         1 UNK         0.0822 
    102 H102       28.0145  -31.5386  -38.3117 H         1 UNK         0.0787 
    103 H103       28.2138  -32.7623  -39.5551 H         1 UNK         0.0787 
    104 H104       27.8047  -31.1132  -40.0104 H         1 UNK         0.0787 
    105 H105       25.0434  -31.0197  -41.1255 H         1 UNK         0.3055 
    106 H106       25.1101  -33.2174  -43.0741 H         1 UNK         0.1106 
    107 H107       24.2509  -31.4375  -44.6174 H         1 UNK         0.0828 
    108 H108       24.1287  -30.3219  -43.2672 H         1 UNK         0.0828 
    109 H109       25.7050  -30.9178  -43.7820 H         1 UNK         0.0828 
    110 H110       22.8923  -32.2417  -40.6650 H         1 UNK         0.2931 
    111 H111       20.4351  -32.7534  -42.1011 H         1 UNK         0.0412 
    112 H112       19.5449  -36.0893  -41.2681 H         1 UNK         0.3472 
    113 H113       18.9489  -34.5399  -41.8033 H         1 UNK         0.3472 
    114 H114       20.8682  -32.5607  -39.0823 H         1 UNK         0.0970 
    115 H115       19.3333  -32.5049  -39.8987 H         1 UNK         0.0970 
    116 H116       18.7576  -28.8860  -40.4332 H         1 UNK         0.0612 
    117 H117       18.1465  -30.5009  -40.2109 H         1 UNK         0.0612 
@<TRIPOS>BOND
     1    1    2 1    
     2    1   62 1    
     3    1   63 1    
     4    1   64 1    
     5    2    3 2    
     6    2    4 am   BACKBONE|DICT|INTERRES
     7    4    5 1    
     8    4   65 1    
     9    5    6 1    
    10    5   25 1    
    11    5   66 1    
    12    6    7 1    
    13    6   67 1    
    14    6   68 1    
    15    7    8 1    
    16    8    9 1    
    17    8   69 1    
    18    8   70 1    
    19    9   10 ar   
    20    9   14 ar   
    21   10   11 ar   
    22   10   71 1    
    23   11   12 ar   
    24   11   61 1    
    25   12   13 ar   
    26   12   72 1    
    27   13   14 ar   
    28   13   15 1    
    29   14   73 1    
    30   15   16 1    
    31   15   74 1    
    32   15   75 1    
    33   16   17 1    
    34   17   18 1    
    35   17   76 1    
    36   17   77 1    
    37   18   19 1    
    38   18   27 1    
    39   18   78 1    
    40   19   20 am   BACKBONE|DICT|INTERRES
    41   19   79 1    
    42   20   21 2    
    43   20   22 1    
    44   22   23 1    
    45   22   24 1    
    46   22   80 1    
    47   23   81 1    
    48   23   82 1    
    49   23   83 1    
    50   24   25 am   BACKBONE|DICT|INTERRES
    51   24   84 1    
    52   25   26 2    
    53   27   28 2    
    54   27   29 am   BACKBONE|DICT|INTERRES
    55   29   30 1    
    56   29   85 1    
    57   30   31 1    
    58   30   32 1    
    59   30   86 1    
    60   31   87 1    
    61   31   88 1    
    62   31   89 1    
    63   32   33 2    
    64   32   34 am   BACKBONE|DICT|INTERRES
    65   34   35 1    
    66   34   90 1    
    67   35   36 1    
    68   35   37 1    
    69   35   91 1    
    70   36   92 1    
    71   36   93 1    
    72   36   94 1    
    73   37   38 2    
    74   37   39 am   BACKBONE|DICT|INTERRES
    75   39   40 1    
    76   39   95 1    
    77   40   41 1    
    78   40   42 1    
    79   40   96 1    
    80   41   97 1    
    81   41   98 1    
    82   41   99 1    
    83   42   43 2    
    84   42   44 am   BACKBONE|DICT|INTERRES
    85   44   45 1    
    86   44  100 1    
    87   45   46 1    
    88   45   47 1    
    89   45  101 1    
    90   46  102 1    
    91   46  103 1    
    92   46  104 1    
    93   47   48 2    
    94   47   49 am   BACKBONE|DICT|INTERRES
    95   49   50 1    
    96   49  105 1    
    97   50   51 1    
    98   50   52 1    
    99   50  106 1    
   100   51  107 1    
   101   51  108 1    
   102   51  109 1    
   103   52   53 2    
   104   52   54 am   BACKBONE|DICT|INTERRES
   105   54   55 1    
   106   54  110 1    
   107   55   56 1    
   108   55   59 1    
   109   55  111 1    
   110   56   57 am   BACKBONE|DICT|INTERRES
   111   56   58 2    
   112   57  112 1    
   113   57  113 1    
   114   59   60 1    
   115   59  114 1    
   116   59  115 1    
   117   60   61 1    
   118   61  116 1    
   119   61  117 1    
@<TRIPOS>SUBSTRUCTURE
     1 UNK         1 GROUP             0       ****    0 ROOT    
