@<TRIPOS>MOLECULE
3R8
117   119    1
SMALL
USER_CHARGES


@<TRIPOS>ATOM
      1 CA         13.9725  -23.2071  -46.9268 C.3       0 UNK        -0.2013 
      2 C          15.4166  -23.3455  -46.4682 C.2       0 UNK         0.4866 
      3 O          16.1191  -22.3413  -46.3458 O.2       0 UNK        -0.5176 
      4 N          15.8685  -24.5816  -46.2212 N.am      1 UNK        -0.4884 
      5 CA         17.2053  -24.8924  -45.7068 C.3       1 UNK         0.0853 
      6 C6         17.5498  -26.3847  -45.9352 C.3       10 UNK        -0.0849 
      7 S7         19.3216  -26.7554  -45.6857 S.3       10 UNK        -0.2776 
      8 C8         19.3849  -28.5169  -46.1750 C.3       10 UNK         0.0316 
      9 C9         18.9529  -29.5329  -45.1121 C.ar      10 UNK        -0.0863 
     10 C10        19.1832  -30.8879  -45.3643 C.ar      10 UNK        -0.1009 
     11 C11        18.8282  -31.8648  -44.4304 C.ar      10 UNK        -0.0712 
     12 C12        18.2498  -31.4775  -43.2182 C.ar      10 UNK        -0.0894 
     13 C13        17.9958  -30.1291  -42.9450 C.ar      10 UNK        -0.0745 
     14 C14        18.3349  -29.1702  -43.9084 C.ar      10 UNK        -0.0972 
     15 C15        17.3120  -29.7660  -41.6224 C.3       10 UNK         0.0209 
     16 S16        17.3208  -27.9919  -41.1682 S.3       10 UNK        -0.2568 
     17 C17        19.0156  -27.7586  -40.5316 C.3       10 UNK        -0.0983 
     18 CA         19.9923  -27.1420  -41.5686 C.3       3 UNK         0.0876 
     19 N          19.5393  -25.8791  -42.1748 N.am      3 UNK        -0.4424 
     20 C          19.2366  -24.7232  -41.5672 C.2       2 UNK         0.4918 
     21 O          19.3491  -24.5411  -40.3552 O.2       2 UNK        -0.4875 
     22 CA         18.7978  -23.5464  -42.4595 C.3       2 UNK         0.0481 
     23 CB         19.9000  -22.4745  -42.4988 C.3       2 UNK        -0.1831 
     24 N          18.4734  -23.9415  -43.8341 N.am      2 UNK        -0.4498 
     25 C          17.3164  -24.4989  -44.2174 C.2       1 UNK         0.5027 
     26 O          16.3773  -24.7296  -43.4516 O.2       1 UNK        -0.4969 
     27 C          21.4267  -27.0970  -41.0071 C.2       3 UNK         0.5005 
     28 O          22.1031  -28.1223  -41.0530 O.2       3 UNK        -0.5279 
     29 N          21.9031  -25.9353  -40.5390 N.am      4 UNK        -0.4463 
     30 CA         23.2467  -25.7183  -39.9847 C.3       4 UNK         0.0283 
     31 CB         23.3810  -24.2509  -39.5482 C.3       4 UNK        -0.1875 
     32 C          24.4022  -26.1044  -40.9296 C.2       4 UNK         0.4949 
     33 O          25.4568  -26.5230  -40.4531 O.2       4 UNK        -0.5039 
     34 N          24.1750  -25.9838  -42.2449 N.am      5 UNK        -0.4663 
     35 CA         25.1059  -26.4100  -43.2931 C.3       5 UNK         0.0242 
     36 CB         24.7267  -25.7110  -44.6092 C.3       5 UNK        -0.1982 
     37 C          25.1474  -27.9377  -43.4928 C.2       5 UNK         0.5017 
     38 O          26.1613  -28.4479  -43.9702 O.2       5 UNK        -0.5012 
     39 N          24.0555  -28.6328  -43.1459 N.am      6 UNK        -0.4439 
     40 CA         23.9158  -30.0870  -43.2523 C.3       6 UNK         0.0297 
     41 CB         22.4731  -30.4262  -43.6628 C.3       6 UNK        -0.2006 
     42 C          24.2740  -30.7963  -41.9367 C.2       6 UNK         0.4892 
     43 O          24.7464  -31.9337  -41.9787 O.2       6 UNK        -0.5089 
     44 N          24.0336  -30.1229  -40.8009 N.am      7 UNK        -0.4243 
     45 CA         24.2030  -30.5948  -39.4256 C.3       7 UNK         0.0196 
     46 CB         25.6962  -30.8212  -39.0944 C.3       7 UNK        -0.2007 
     47 C          23.2958  -31.8088  -39.1632 C.2       7 UNK         0.5020 
     48 O          22.0771  -31.6441  -39.1028 O.2       7 UNK        -0.5147 
     49 N          23.8888  -33.0025  -39.0407 N.am      8 UNK        -0.4734 
     50 CA         23.1692  -34.2727  -38.9164 C.3       8 UNK         0.0238 
     51 CB         24.1355  -35.3463  -38.3888 C.3       8 UNK        -0.1912 
     52 C          22.5137  -34.7385  -40.2312 C.2       8 UNK         0.5038 
     53 O          21.6053  -35.5683  -40.1757 O.2       8 UNK        -0.5046 
     54 N          22.9831  -34.2193  -41.3767 N.am      9 UNK        -0.4200 
     55 CA         22.5483  -34.5918  -42.7327 C.3       9 UNK         0.0839 
     56 C          22.8804  -36.0690  -43.1194 C.2       9 UNK         0.5513 
     57 N          23.9233  -36.6665  -42.5539 N.am      9 UNK        -0.7519 
     58 O          22.2071  -36.6837  -43.9425 O.2       9 UNK        -0.4960 
     59 C59        21.0769  -34.1656  -43.0145 C.3       10 UNK        -0.0876 
     60 S60        20.7813  -33.8125  -44.7796 S.3       10 UNK        -0.2414 
     61 C61        19.0264  -33.3374  -44.7627 C.3       10 UNK         0.0169 
     62 H62        13.9334  -22.7262  -47.9039 H         1 UNK         0.0903 
     63 H63        13.4742  -24.1733  -47.0046 H         1 UNK         0.0903 
     64 H64        13.4127  -22.5930  -46.2220 H         1 UNK         0.0903 
     65 H65        15.2362  -25.3652  -46.3052 H         1 UNK         0.3096 
     66 H66        17.9170  -24.2899  -46.2769 H         1 UNK         0.1121 
     67 H67        17.3057  -26.6587  -46.9631 H         1 UNK         0.0849 
     68 H68        16.9356  -27.0279  -45.3029 H         1 UNK         0.0849 
     69 H69        18.7859  -28.6637  -47.0748 H         1 UNK         0.0865 
     70 H70        20.4153  -28.7371  -46.4584 H         1 UNK         0.0865 
     71 H71        19.6391  -31.1901  -46.2977 H         1 UNK         0.1346 
     72 H72        17.9719  -32.2314  -42.4941 H         1 UNK         0.1412 
     73 H73        18.1188  -28.1334  -43.7126 H         1 UNK         0.1426 
     74 H74        17.7550  -30.3416  -40.8082 H         1 UNK         0.0716 
     75 H75        16.2711  -30.0852  -41.6880 H         1 UNK         0.0716 
     76 H76        18.9527  -27.1255  -39.6451 H         1 UNK         0.0695 
     77 H77        19.3919  -28.7219  -40.1812 H         1 UNK         0.0695 
     78 H78        20.0618  -27.8412  -42.4004 H         1 UNK         0.0983 
     79 H79        19.4442  -25.9029  -43.1803 H         1 UNK         0.3095 
     80 H80        17.9104  -23.1034  -42.0026 H         1 UNK         0.0454 
     81 H81        20.1409  -22.1226  -41.4946 H         1 UNK         0.0851 
     82 H82        20.8222  -22.8553  -42.9395 H         1 UNK         0.0851 
     83 H83        19.5865  -21.6040  -43.0752 H         1 UNK         0.0851 
     84 H84        19.1926  -23.7892  -44.5278 H         1 UNK         0.2976 
     85 H85        21.2477  -25.1631  -40.4801 H         1 UNK         0.3116 
     86 H86        23.3335  -26.3482  -39.0970 H         1 UNK         0.0646 
     87 H87        24.3609  -24.0623  -39.1072 H         1 UNK         0.0847 
     88 H88        22.6350  -23.9891  -38.7975 H         1 UNK         0.0847 
     89 H89        23.2653  -23.5668  -40.3898 H         1 UNK         0.0847 
     90 H90        23.2857  -25.6108  -42.5438 H         1 UNK         0.3040 
     91 H91        26.1126  -26.0906  -43.0131 H         1 UNK         0.1015 
     92 H92        24.7628  -24.6261  -44.5076 H         1 UNK         0.0786 
     93 H93        23.7240  -25.9856  -44.9397 H         1 UNK         0.0786 
     94 H94        25.4184  -25.9825  -45.4081 H         1 UNK         0.0786 
     95 H95        23.2994  -28.1452  -42.6798 H         1 UNK         0.3172 
     96 H96        24.5834  -30.4659  -44.0290 H         1 UNK         0.0595 
     97 H97        22.2050  -29.9552  -44.6084 H         1 UNK         0.0839 
     98 H98        21.7454  -30.1106  -42.9139 H         1 UNK         0.0839 
     99 H99        22.3539  -31.5010  -43.7943 H         1 UNK         0.0839 
    100 H100       23.5122  -29.2527  -40.8864 H         1 UNK         0.2998 
    101 H101       23.8389  -29.7947  -38.7790 H         1 UNK         0.0822 
    102 H102       25.8246  -31.1413  -38.0595 H         1 UNK         0.0787 
    103 H103       26.1615  -31.5707  -39.7350 H         1 UNK         0.0787 
    104 H104       26.2613  -29.8964  -39.2139 H         1 UNK         0.0787 
    105 H105       24.8949  -33.0478  -39.1203 H         1 UNK         0.3055 
    106 H106       22.3671  -34.1448  -38.1856 H         1 UNK         0.1106 
    107 H107       24.9691  -35.5129  -39.0719 H         1 UNK         0.0828 
    108 H108       24.5462  -35.0683  -37.4179 H         1 UNK         0.0828 
    109 H109       23.6248  -36.3018  -38.2597 H         1 UNK         0.0828 
    110 H110       23.7227  -33.5249  -41.3365 H         1 UNK         0.2931 
    111 H111       23.1864  -33.9904  -43.3814 H         1 UNK         0.0412 
    112 H112       24.1420  -37.6183  -42.8038 H         1 UNK         0.3472 
    113 H113       24.4955  -36.1750  -41.8862 H         1 UNK         0.3472 
    114 H114       20.8370  -33.2562  -42.4607 H         1 UNK         0.0970 
    115 H115       20.3765  -34.9265  -42.6655 H         1 UNK         0.0970 
    116 H116       18.4779  -33.9761  -44.0687 H         1 UNK         0.0612 
    117 H117       18.6064  -33.5337  -45.7502 H         1 UNK         0.0612 
@<TRIPOS>BOND
     1    1    2 1    
     2    1   62 1    
     3    1   63 1    
     4    1   64 1    
     5    2    3 2    
     6    2    4 am   BACKBONE|DICT|INTERRES
     7    4    5 1    
     8    4   65 1    
     9    5    6 1    
    10    5   25 1    
    11    5   66 1    
    12    6    7 1    
    13    6   67 1    
    14    6   68 1    
    15    7    8 1    
    16    8    9 1    
    17    8   69 1    
    18    8   70 1    
    19    9   10 ar   
    20    9   14 ar   
    21   10   11 ar   
    22   10   71 1    
    23   11   12 ar   
    24   11   61 1    
    25   12   13 ar   
    26   12   72 1    
    27   13   14 ar   
    28   13   15 1    
    29   14   73 1    
    30   15   16 1    
    31   15   74 1    
    32   15   75 1    
    33   16   17 1    
    34   17   18 1    
    35   17   76 1    
    36   17   77 1    
    37   18   19 1    
    38   18   27 1    
    39   18   78 1    
    40   19   20 am   BACKBONE|DICT|INTERRES
    41   19   79 1    
    42   20   21 2    
    43   20   22 1    
    44   22   23 1    
    45   22   24 1    
    46   22   80 1    
    47   23   81 1    
    48   23   82 1    
    49   23   83 1    
    50   24   25 am   BACKBONE|DICT|INTERRES
    51   24   84 1    
    52   25   26 2    
    53   27   28 2    
    54   27   29 am   BACKBONE|DICT|INTERRES
    55   29   30 1    
    56   29   85 1    
    57   30   31 1    
    58   30   32 1    
    59   30   86 1    
    60   31   87 1    
    61   31   88 1    
    62   31   89 1    
    63   32   33 2    
    64   32   34 am   BACKBONE|DICT|INTERRES
    65   34   35 1    
    66   34   90 1    
    67   35   36 1    
    68   35   37 1    
    69   35   91 1    
    70   36   92 1    
    71   36   93 1    
    72   36   94 1    
    73   37   38 2    
    74   37   39 am   BACKBONE|DICT|INTERRES
    75   39   40 1    
    76   39   95 1    
    77   40   41 1    
    78   40   42 1    
    79   40   96 1    
    80   41   97 1    
    81   41   98 1    
    82   41   99 1    
    83   42   43 2    
    84   42   44 am   BACKBONE|DICT|INTERRES
    85   44   45 1    
    86   44  100 1    
    87   45   46 1    
    88   45   47 1    
    89   45  101 1    
    90   46  102 1    
    91   46  103 1    
    92   46  104 1    
    93   47   48 2    
    94   47   49 am   BACKBONE|DICT|INTERRES
    95   49   50 1    
    96   49  105 1    
    97   50   51 1    
    98   50   52 1    
    99   50  106 1    
   100   51  107 1    
   101   51  108 1    
   102   51  109 1    
   103   52   53 2    
   104   52   54 am   BACKBONE|DICT|INTERRES
   105   54   55 1    
   106   54  110 1    
   107   55   56 1    
   108   55   59 1    
   109   55  111 1    
   110   56   57 am   BACKBONE|DICT|INTERRES
   111   56   58 2    
   112   57  112 1    
   113   57  113 1    
   114   59   60 1    
   115   59  114 1    
   116   59  115 1    
   117   60   61 1    
   118   61  116 1    
   119   61  117 1    
@<TRIPOS>SUBSTRUCTURE
     1 UNK         1 GROUP             0       ****    0 ROOT    
