@<TRIPOS>MOLECULE
3R8
117   119    1
SMALL
USER_CHARGES


@<TRIPOS>ATOM
      1 CA         18.0440  -22.6997  -48.9952 C.3       0 UNK        -0.2013 
      2 C          19.0033  -23.4896  -48.1173 C.2       0 UNK         0.4866 
      3 O          20.0439  -22.9640  -47.7204 O.2       0 UNK        -0.5176 
      4 N          18.6666  -24.7504  -47.8174 N.am      1 UNK        -0.4884 
      5 CA         19.4330  -25.6283  -46.9274 C.3       1 UNK         0.0853 
      6 C6         19.0343  -27.1088  -47.1350 C.3       10 UNK        -0.0849 
      7 S7         20.3396  -28.2736  -46.6166 S.3       10 UNK        -0.2776 
      8 C8         19.4289  -29.8522  -46.6296 C.3       10 UNK         0.0316 
      9 C9         18.7413  -30.1129  -45.2975 C.ar      10 UNK        -0.0863 
     10 C10        19.3918  -30.8542  -44.3081 C.ar      10 UNK        -0.1009 
     11 C11        18.7788  -31.0856  -43.0732 C.ar      10 UNK        -0.0712 
     12 C12        17.5030  -30.5692  -42.8271 C.ar      10 UNK        -0.0894 
     13 C13        16.8544  -29.8037  -43.8015 C.ar      10 UNK        -0.0745 
     14 C14        17.4645  -29.6059  -45.0432 C.ar      10 UNK        -0.0972 
     15 C15        15.5166  -29.1425  -43.5096 C.3       10 UNK         0.0209 
     16 S16        15.7215  -27.3490  -43.2432 S.3       10 UNK        -0.2568 
     17 C17        16.4025  -27.2878  -41.5517 C.3       10 UNK        -0.0983 
     18 CA         17.9509  -27.3145  -41.4977 C.3       3 UNK         0.0876 
     19 N          18.5799  -26.2163  -42.2366 N.am      3 UNK        -0.4424 
     20 C          19.9015  -26.0882  -42.4104 C.2       2 UNK         0.4918 
     21 O          20.7283  -26.8846  -41.9597 O.2       2 UNK        -0.4875 
     22 CA         20.3724  -24.8984  -43.2619 C.3       2 UNK         0.0481 
     23 CB         21.7981  -24.4428  -42.9009 C.3       2 UNK        -0.1831 
     24 N          20.3409  -25.2582  -44.6774 N.am      2 UNK        -0.4498 
     25 C          19.2561  -25.1900  -45.4576 C.2       1 UNK         0.5027 
     26 O          18.1511  -24.8080  -45.0612 O.2       1 UNK        -0.4969 
     27 C          18.4375  -27.3705  -40.0355 C.2       3 UNK         0.5005 
     28 O          18.3659  -26.3608  -39.3312 O.2       3 UNK        -0.5279 
     29 N          18.9318  -28.5490  -39.6296 N.am      4 UNK        -0.4463 
     30 CA         19.5313  -28.8743  -38.3290 C.3       4 UNK         0.0283 
     31 CB         18.5213  -28.6762  -37.1782 C.3       4 UNK        -0.1875 
     32 C          20.8826  -28.1779  -38.0592 C.2       4 UNK         0.4949 
     33 O          21.3207  -28.1561  -36.9079 O.2       4 UNK        -0.5039 
     34 N          21.5320  -27.6444  -39.1034 N.am      5 UNK        -0.4663 
     35 CA         22.8313  -26.9701  -39.0185 C.3       5 UNK         0.0242 
     36 CB         22.6166  -25.4483  -39.0250 C.3       5 UNK        -0.1982 
     37 C          23.8061  -27.4024  -40.1260 C.2       5 UNK         0.5017 
     38 O          25.0155  -27.3643  -39.8934 O.2       5 UNK        -0.5012 
     39 N          23.2896  -27.8026  -41.2973 N.am      6 UNK        -0.4439 
     40 CA         24.0562  -28.3381  -42.4249 C.3       6 UNK         0.0297 
     41 CB         23.1057  -28.5519  -43.6168 C.3       6 UNK        -0.2006 
     42 C          24.7767  -29.6539  -42.0811 C.2       6 UNK         0.4892 
     43 O          24.3013  -30.4208  -41.2417 O.2       6 UNK        -0.5089 
     44 N          25.8865  -29.9190  -42.7841 N.am      7 UNK        -0.4243 
     45 CA         26.7269  -31.1134  -42.6180 C.3       7 UNK         0.0196 
     46 CB         27.9872  -30.9645  -43.4861 C.3       7 UNK        -0.2007 
     47 C          26.0168  -32.4467  -42.9256 C.2       7 UNK         0.5020 
     48 O          26.4707  -33.4924  -42.4610 O.2       7 UNK        -0.5147 
     49 N          24.9201  -32.3905  -43.6926 N.am      8 UNK        -0.4734 
     50 CA         24.0450  -33.5264  -43.9853 C.3       8 UNK         0.0238 
     51 CB         23.1638  -33.1740  -45.1957 C.3       8 UNK        -0.1912 
     52 C          23.1672  -33.9524  -42.7926 C.2       8 UNK         0.5038 
     53 O          22.6909  -35.0886  -42.7879 O.2       8 UNK        -0.5046 
     54 N          22.9401  -33.0489  -41.8294 N.am      9 UNK        -0.4200 
     55 CA         22.1075  -33.2911  -40.6439 C.3       9 UNK         0.0839 
     56 C          22.8376  -34.1456  -39.5739 C.2       9 UNK         0.5513 
     57 N          22.0944  -34.8984  -38.7740 N.am      9 UNK        -0.7519 
     58 O          24.0581  -34.1065  -39.4331 O.2       9 UNK        -0.4960 
     59 C59        21.5714  -31.9689  -40.0298 C.3       10 UNK        -0.0876 
     60 S60        20.7882  -30.8276  -41.2231 S.3       10 UNK        -0.2414 
     61 C61        19.5182  -31.8690  -42.0034 C.3       10 UNK         0.0169 
     62 H62        18.5491  -22.3734  -49.9040 H         1 UNK         0.0903 
     63 H63        17.1745  -23.2898  -49.2842 H         1 UNK         0.0903 
     64 H64        17.6922  -21.8154  -48.4645 H         1 UNK         0.0903 
     65 H65        17.7815  -25.1158  -48.1396 H         1 UNK         0.3096 
     66 H66        20.4858  -25.5136  -47.1976 H         1 UNK         0.1121 
     67 H67        18.0973  -27.3294  -46.6244 H         1 UNK         0.0849 
     68 H68        18.8501  -27.3009  -48.1936 H         1 UNK         0.0849 
     69 H69        18.7021  -29.8616  -47.4435 H         1 UNK         0.0865 
     70 H70        20.1318  -30.6582  -46.8463 H         1 UNK         0.0865 
     71 H71        20.3856  -31.2389  -44.4898 H         1 UNK         0.1346 
     72 H72        17.0327  -30.7293  -41.8665 H         1 UNK         0.1412 
     73 H73        16.9501  -29.0280  -45.7973 H         1 UNK         0.1426 
     74 H74        15.0298  -29.5970  -42.6454 H         1 UNK         0.0716 
     75 H75        14.8456  -29.2989  -44.3555 H         1 UNK         0.0716 
     76 H76        15.9841  -28.1187  -40.9802 H         1 UNK         0.0695 
     77 H77        16.0264  -26.3796  -41.0766 H         1 UNK         0.0695 
     78 H78        18.2948  -28.2206  -41.9936 H         1 UNK         0.0983 
     79 H79        17.9582  -25.5570  -42.6840 H         1 UNK         0.3095 
     80 H80        19.7013  -24.0553  -43.0836 H         1 UNK         0.0454 
     81 H81        22.5266  -25.2500  -42.9871 H         1 UNK         0.0851 
     82 H82        21.8372  -24.0708  -41.8783 H         1 UNK         0.0851 
     83 H83        22.1274  -23.6278  -43.5455 H         1 UNK         0.0851 
     84 H84        21.1944  -25.6363  -45.0629 H         1 UNK         0.2976 
     85 H85        18.9911  -29.2953  -40.3109 H         1 UNK         0.3116 
     86 H86        19.7590  -29.9401  -38.3720 H         1 UNK         0.0646 
     87 H87        18.3083  -27.6218  -37.0010 H         1 UNK         0.0847 
     88 H88        18.9068  -29.0871  -36.2444 H         1 UNK         0.0847 
     89 H89        17.5776  -29.1804  -37.3852 H         1 UNK         0.0847 
     90 H90        21.0951  -27.6824  -40.0162 H         1 UNK         0.3040 
     91 H91        23.3227  -27.2348  -38.0794 H         1 UNK         0.1015 
     92 H92        22.0315  -25.1337  -39.8873 H         1 UNK         0.0786 
     93 H93        23.5665  -24.9125  -39.0525 H         1 UNK         0.0786 
     94 H94        22.0861  -25.1239  -38.1296 H         1 UNK         0.0786 
     95 H95        22.2896  -27.7134  -41.4504 H         1 UNK         0.3172 
     96 H96        24.8047  -27.5927  -42.7007 H         1 UNK         0.0595 
     97 H97        23.6395  -28.9295  -44.4896 H         1 UNK         0.0839 
     98 H98        22.6246  -27.6209  -43.9157 H         1 UNK         0.0839 
     99 H99        22.3176  -29.2685  -43.3814 H         1 UNK         0.0839 
    100 H100       26.1985  -29.2430  -43.4670 H         1 UNK         0.2998 
    101 H101       27.0346  -31.1524  -41.5708 H         1 UNK         0.0822 
    102 H102       28.6508  -31.8217  -43.3623 H         1 UNK         0.0787 
    103 H103       27.7408  -30.8943  -44.5464 H         1 UNK         0.0787 
    104 H104       28.5567  -30.0761  -43.2123 H         1 UNK         0.0787 
    105 H105       24.6304  -31.4880  -44.0390 H         1 UNK         0.3055 
    106 H106       24.6683  -34.3837  -44.2501 H         1 UNK         0.1106 
    107 H107       22.5040  -34.0035  -45.4543 H         1 UNK         0.0828 
    108 H108       22.5338  -32.3064  -44.9976 H         1 UNK         0.0828 
    109 H109       23.7677  -32.9572  -46.0770 H         1 UNK         0.0828 
    110 H110       23.4098  -32.1504  -41.8574 H         1 UNK         0.2931 
    111 H111       21.2444  -33.8753  -40.9671 H         1 UNK         0.0412 
    112 H112       21.0916  -34.9366  -38.8737 H         1 UNK         0.3472 
    113 H113       22.5468  -35.4506  -38.0618 H         1 UNK         0.3472 
    114 H114       20.8476  -32.1849  -39.2422 H         1 UNK         0.0970 
    115 H115       22.3843  -31.4218  -39.5480 H         1 UNK         0.0970 
    116 H116       18.8300  -32.2405  -41.2426 H         1 UNK         0.0612 
    117 H117       19.9811  -32.7404  -42.4669 H         1 UNK         0.0612 
@<TRIPOS>BOND
     1    1    2 1    
     2    1   62 1    
     3    1   63 1    
     4    1   64 1    
     5    2    3 2    
     6    2    4 am   BACKBONE|DICT|INTERRES
     7    4    5 1    
     8    4   65 1    
     9    5    6 1    
    10    5   25 1    
    11    5   66 1    
    12    6    7 1    
    13    6   67 1    
    14    6   68 1    
    15    7    8 1    
    16    8    9 1    
    17    8   69 1    
    18    8   70 1    
    19    9   10 ar   
    20    9   14 ar   
    21   10   11 ar   
    22   10   71 1    
    23   11   12 ar   
    24   11   61 1    
    25   12   13 ar   
    26   12   72 1    
    27   13   14 ar   
    28   13   15 1    
    29   14   73 1    
    30   15   16 1    
    31   15   74 1    
    32   15   75 1    
    33   16   17 1    
    34   17   18 1    
    35   17   76 1    
    36   17   77 1    
    37   18   19 1    
    38   18   27 1    
    39   18   78 1    
    40   19   20 am   BACKBONE|DICT|INTERRES
    41   19   79 1    
    42   20   21 2    
    43   20   22 1    
    44   22   23 1    
    45   22   24 1    
    46   22   80 1    
    47   23   81 1    
    48   23   82 1    
    49   23   83 1    
    50   24   25 am   BACKBONE|DICT|INTERRES
    51   24   84 1    
    52   25   26 2    
    53   27   28 2    
    54   27   29 am   BACKBONE|DICT|INTERRES
    55   29   30 1    
    56   29   85 1    
    57   30   31 1    
    58   30   32 1    
    59   30   86 1    
    60   31   87 1    
    61   31   88 1    
    62   31   89 1    
    63   32   33 2    
    64   32   34 am   BACKBONE|DICT|INTERRES
    65   34   35 1    
    66   34   90 1    
    67   35   36 1    
    68   35   37 1    
    69   35   91 1    
    70   36   92 1    
    71   36   93 1    
    72   36   94 1    
    73   37   38 2    
    74   37   39 am   BACKBONE|DICT|INTERRES
    75   39   40 1    
    76   39   95 1    
    77   40   41 1    
    78   40   42 1    
    79   40   96 1    
    80   41   97 1    
    81   41   98 1    
    82   41   99 1    
    83   42   43 2    
    84   42   44 am   BACKBONE|DICT|INTERRES
    85   44   45 1    
    86   44  100 1    
    87   45   46 1    
    88   45   47 1    
    89   45  101 1    
    90   46  102 1    
    91   46  103 1    
    92   46  104 1    
    93   47   48 2    
    94   47   49 am   BACKBONE|DICT|INTERRES
    95   49   50 1    
    96   49  105 1    
    97   50   51 1    
    98   50   52 1    
    99   50  106 1    
   100   51  107 1    
   101   51  108 1    
   102   51  109 1    
   103   52   53 2    
   104   52   54 am   BACKBONE|DICT|INTERRES
   105   54   55 1    
   106   54  110 1    
   107   55   56 1    
   108   55   59 1    
   109   55  111 1    
   110   56   57 am   BACKBONE|DICT|INTERRES
   111   56   58 2    
   112   57  112 1    
   113   57  113 1    
   114   59   60 1    
   115   59  114 1    
   116   59  115 1    
   117   60   61 1    
   118   61  116 1    
   119   61  117 1    
@<TRIPOS>SUBSTRUCTURE
     1 UNK         1 GROUP             0       ****    0 ROOT    
