@<TRIPOS>MOLECULE
3R8
117   119    1
SMALL
USER_CHARGES


@<TRIPOS>ATOM
      1 CA         15.5847  -25.6616  -48.6871 C.3       0 UNK        -0.2013 
      2 C          15.6537  -25.9287  -47.1911 C.2       0 UNK         0.4866 
      3 O          14.8550  -25.3740  -46.4364 O.2       0 UNK        -0.5176 
      4 N          16.6101  -26.7654  -46.7622 N.am      1 UNK        -0.4884 
      5 CA         16.8411  -27.1953  -45.3712 C.3       1 UNK         0.0853 
      6 C6         15.6794  -28.0504  -44.7884 C.3       10 UNK        -0.0849 
      7 S7         15.5357  -29.6400  -45.6821 S.3       10 UNK        -0.2776 
      8 C8         16.1694  -30.8570  -44.4735 C.3       10 UNK         0.0316 
      9 C9         17.4726  -30.4221  -43.8131 C.ar      10 UNK        -0.0863 
     10 C10        17.5005  -30.1466  -42.4427 C.ar      10 UNK        -0.1009 
     11 C11        18.6751  -29.7042  -41.8308 C.ar      10 UNK        -0.0712 
     12 C12        19.8270  -29.5262  -42.6019 C.ar      10 UNK        -0.0894 
     13 C13        19.8151  -29.8010  -43.9717 C.ar      10 UNK        -0.0745 
     14 C14        18.6403  -30.2713  -44.5679 C.ar      10 UNK        -0.0972 
     15 C15        21.0615  -29.5757  -44.8137 C.3       10 UNK         0.0209 
     16 S16        20.9026  -28.0606  -45.8108 S.3       10 UNK        -0.2568 
     17 C17        22.2582  -26.9945  -45.1895 C.3       10 UNK        -0.0983 
     18 CA         21.8547  -25.9994  -44.0594 C.3       3 UNK         0.0876 
     19 N          20.5413  -25.4035  -44.3334 N.am      3 UNK        -0.4424 
     20 C          19.9956  -24.2908  -43.8274 C.2       2 UNK         0.4918 
     21 O          20.5514  -23.5818  -42.9890 O.2       2 UNK        -0.4875 
     22 CA         18.5883  -23.9119  -44.3297 C.3       2 UNK         0.0481 
     23 CB         18.6642  -22.6945  -45.2648 C.3       2 UNK        -0.1831 
     24 N          17.9228  -25.0135  -45.0337 N.am      2 UNK        -0.4498 
     25 C          17.3060  -26.0485  -44.4423 C.2       1 UNK         0.5027 
     26 O          17.1507  -26.1332  -43.2233 O.2       1 UNK        -0.4969 
     27 C          22.0099  -26.5909  -42.6351 C.2       3 UNK         0.5005 
     28 O          22.7225  -27.5801  -42.4519 O.2       3 UNK        -0.5279 
     29 N          21.3799  -25.9727  -41.6277 N.am      4 UNK        -0.4463 
     30 CA         21.3838  -26.3742  -40.2169 C.3       4 UNK         0.0283 
     31 CB         20.1402  -25.7825  -39.5284 C.3       4 UNK        -0.1875 
     32 C          22.6973  -26.0269  -39.4872 C.2       4 UNK         0.4949 
     33 O          22.6752  -25.4490  -38.3997 O.2       4 UNK        -0.5039 
     34 N          23.8201  -26.4003  -40.1037 N.am      5 UNK        -0.4663 
     35 CA         25.1848  -26.2534  -39.6023 C.3       5 UNK         0.0242 
     36 CB         25.6927  -24.8203  -39.8623 C.3       5 UNK        -0.1982 
     37 C          26.0853  -27.3330  -40.2280 C.2       5 UNK         0.5017 
     38 O          27.2645  -27.0784  -40.4794 O.2       5 UNK        -0.5012 
     39 N          25.5105  -28.5118  -40.4983 N.am      6 UNK        -0.4439 
     40 CA         26.1546  -29.6422  -41.1556 C.3       6 UNK         0.0297 
     41 CB         26.0455  -29.4772  -42.6837 C.3       6 UNK        -0.2006 
     42 C          25.4766  -30.9379  -40.7008 C.2       6 UNK         0.4892 
     43 O          24.3223  -30.9104  -40.2632 O.2       6 UNK        -0.5089 
     44 N          26.1938  -32.0577  -40.8650 N.am      7 UNK        -0.4243 
     45 CA         25.7346  -33.4167  -40.5503 C.3       7 UNK         0.0196 
     46 CB         26.9268  -34.3830  -40.6446 C.3       7 UNK        -0.2007 
     47 C          24.5711  -33.9117  -41.4309 C.2       7 UNK         0.5020 
     48 O          23.9101  -34.8826  -41.0627 O.2       7 UNK        -0.5147 
     49 N          24.3165  -33.2267  -42.5555 N.am      8 UNK        -0.4734 
     50 CA         23.2106  -33.4710  -43.4883 C.3       8 UNK         0.0238 
     51 CB         23.3620  -32.5291  -44.6937 C.3       8 UNK        -0.1912 
     52 C          21.8039  -33.3442  -42.8684 C.2       8 UNK         0.5038 
     53 O          20.8574  -33.8928  -43.4339 O.2       8 UNK        -0.5046 
     54 N          21.6938  -32.6630  -41.7182 N.am      9 UNK        -0.4200 
     55 CA         20.4910  -32.6516  -40.8720 C.3       9 UNK         0.0839 
     56 C          20.1725  -34.0221  -40.1956 C.2       9 UNK         0.5513 
     57 N          21.1109  -34.9585  -40.1029 N.am      9 UNK        -0.7519 
     58 O          19.0477  -34.2508  -39.7596 O.2       9 UNK        -0.4960 
     59 C59        20.5507  -31.4944  -39.8363 C.3       10 UNK        -0.0876 
     60 S60        18.8928  -30.9097  -39.3366 S.3       10 UNK        -0.2414 
     61 C61        18.6905  -29.4050  -40.3395 C.3       10 UNK         0.0169 
     62 H62        14.6113  -25.9599  -49.0757 H         1 UNK         0.0903 
     63 H63        15.7194  -24.5987  -48.8855 H         1 UNK         0.0903 
     64 H64        16.3503  -26.2091  -49.2365 H         1 UNK         0.0903 
     65 H65        17.2245  -27.1903  -47.4439 H         1 UNK         0.3096 
     66 H66        17.7171  -27.8423  -45.4175 H         1 UNK         0.1121 
     67 H67        14.7304  -27.5177  -44.8583 H         1 UNK         0.0849 
     68 H68        15.8203  -28.2525  -43.7262 H         1 UNK         0.0849 
     69 H69        15.3979  -31.0344  -43.7225 H         1 UNK         0.0865 
     70 H70        16.3247  -31.8112  -44.9788 H         1 UNK         0.0865 
     71 H71        16.6054  -30.2676  -41.8477 H         1 UNK         0.1346 
     72 H72        20.7348  -29.1765  -42.1331 H         1 UNK         0.1412 
     73 H73        18.6228  -30.4790  -45.6293 H         1 UNK         0.1426 
     74 H74        21.2066  -30.4249  -45.4825 H         1 UNK         0.0716 
     75 H75        21.9487  -29.5270  -44.1815 H         1 UNK         0.0716 
     76 H76        23.1262  -27.6020  -44.9271 H         1 UNK         0.0695 
     77 H77        22.5899  -26.4096  -46.0487 H         1 UNK         0.0695 
     78 H78        22.5783  -25.1818  -44.0881 H         1 UNK         0.0983 
     79 H79        19.9886  -25.9306  -44.9931 H         1 UNK         0.3095 
     80 H80        17.9899  -23.6356  -43.4592 H         1 UNK         0.0454 
     81 H81        17.6716  -22.3802  -45.5879 H         1 UNK         0.0851 
     82 H82        19.1227  -21.8429  -44.7602 H         1 UNK         0.0851 
     83 H83        19.2580  -22.9029  -46.1556 H         1 UNK         0.0851 
     84 H84        17.9802  -25.0131  -46.0424 H         1 UNK         0.2976 
     85 H85        20.9008  -25.1059  -41.8523 H         1 UNK         0.3116 
     86 H86        21.3049  -27.4606  -40.1768 H         1 UNK         0.0646 
     87 H87        20.1696  -24.6924  -39.5139 H         1 UNK         0.0847 
     88 H88        20.0649  -26.1221  -38.4946 H         1 UNK         0.0847 
     89 H89        19.2234  -26.0864  -40.0343 H         1 UNK         0.0847 
     90 H90        23.7181  -26.8745  -40.9996 H         1 UNK         0.3040 
     91 H91        25.1872  -26.4337  -38.5250 H         1 UNK         0.1015 
     92 H92        25.0515  -24.0776  -39.3874 H         1 UNK         0.0786 
     93 H93        25.7307  -24.5973  -40.9291 H         1 UNK         0.0786 
     94 H94        26.6969  -24.6794  -39.4606 H         1 UNK         0.0786 
     95 H95        24.5569  -28.6897  -40.2065 H         1 UNK         0.3172 
     96 H96        27.2060  -29.6842  -40.8627 H         1 UNK         0.0595 
     97 H97        26.5409  -28.5662  -43.0198 H         1 UNK         0.0839 
     98 H98        25.0047  -29.4269  -43.0085 H         1 UNK         0.0839 
     99 H99        26.5151  -30.3095  -43.2091 H         1 UNK         0.0839 
    100 H100       27.1289  -31.9790  -41.2401 H         1 UNK         0.2998 
    101 H101       25.3747  -33.4152  -39.5191 H         1 UNK         0.0822 
    102 H102       27.3415  -34.4155  -41.6530 H         1 UNK         0.0787 
    103 H103       27.7258  -34.0970  -39.9602 H         1 UNK         0.0787 
    104 H104       26.6283  -35.3992  -40.3825 H         1 UNK         0.0787 
    105 H105       24.9215  -32.4484  -42.7708 H         1 UNK         0.3055 
    106 H106       23.3026  -34.5002  -43.8425 H         1 UNK         0.1106 
    107 H107       24.2888  -32.7228  -45.2339 H         1 UNK         0.0828 
    108 H108       22.5438  -32.6630  -45.4029 H         1 UNK         0.0828 
    109 H109       23.3654  -31.4828  -44.3883 H         1 UNK         0.0828 
    110 H110       22.5269  -32.2480  -41.3236 H         1 UNK         0.2931 
    111 H111       19.6576  -32.4487  -41.5477 H         1 UNK         0.0412 
    112 H112       20.8810  -35.8384  -39.6690 H         1 UNK         0.3472 
    113 H113       22.0458  -34.8120  -40.4703 H         1 UNK         0.3472 
    114 H114       21.1052  -30.6458  -40.2389 H         1 UNK         0.0970 
    115 H115       21.1043  -31.7967  -38.9453 H         1 UNK         0.0970 
    116 H116       17.7569  -28.9166  -40.0563 H         1 UNK         0.0612 
    117 H117       19.4832  -28.7028  -40.0929 H         1 UNK         0.0612 
@<TRIPOS>BOND
     1    1    2 1    
     2    1   62 1    
     3    1   63 1    
     4    1   64 1    
     5    2    3 2    
     6    2    4 am   BACKBONE|DICT|INTERRES
     7    4    5 1    
     8    4   65 1    
     9    5    6 1    
    10    5   25 1    
    11    5   66 1    
    12    6    7 1    
    13    6   67 1    
    14    6   68 1    
    15    7    8 1    
    16    8    9 1    
    17    8   69 1    
    18    8   70 1    
    19    9   10 ar   
    20    9   14 ar   
    21   10   11 ar   
    22   10   71 1    
    23   11   12 ar   
    24   11   61 1    
    25   12   13 ar   
    26   12   72 1    
    27   13   14 ar   
    28   13   15 1    
    29   14   73 1    
    30   15   16 1    
    31   15   74 1    
    32   15   75 1    
    33   16   17 1    
    34   17   18 1    
    35   17   76 1    
    36   17   77 1    
    37   18   19 1    
    38   18   27 1    
    39   18   78 1    
    40   19   20 am   BACKBONE|DICT|INTERRES
    41   19   79 1    
    42   20   21 2    
    43   20   22 1    
    44   22   23 1    
    45   22   24 1    
    46   22   80 1    
    47   23   81 1    
    48   23   82 1    
    49   23   83 1    
    50   24   25 am   BACKBONE|DICT|INTERRES
    51   24   84 1    
    52   25   26 2    
    53   27   28 2    
    54   27   29 am   BACKBONE|DICT|INTERRES
    55   29   30 1    
    56   29   85 1    
    57   30   31 1    
    58   30   32 1    
    59   30   86 1    
    60   31   87 1    
    61   31   88 1    
    62   31   89 1    
    63   32   33 2    
    64   32   34 am   BACKBONE|DICT|INTERRES
    65   34   35 1    
    66   34   90 1    
    67   35   36 1    
    68   35   37 1    
    69   35   91 1    
    70   36   92 1    
    71   36   93 1    
    72   36   94 1    
    73   37   38 2    
    74   37   39 am   BACKBONE|DICT|INTERRES
    75   39   40 1    
    76   39   95 1    
    77   40   41 1    
    78   40   42 1    
    79   40   96 1    
    80   41   97 1    
    81   41   98 1    
    82   41   99 1    
    83   42   43 2    
    84   42   44 am   BACKBONE|DICT|INTERRES
    85   44   45 1    
    86   44  100 1    
    87   45   46 1    
    88   45   47 1    
    89   45  101 1    
    90   46  102 1    
    91   46  103 1    
    92   46  104 1    
    93   47   48 2    
    94   47   49 am   BACKBONE|DICT|INTERRES
    95   49   50 1    
    96   49  105 1    
    97   50   51 1    
    98   50   52 1    
    99   50  106 1    
   100   51  107 1    
   101   51  108 1    
   102   51  109 1    
   103   52   53 2    
   104   52   54 am   BACKBONE|DICT|INTERRES
   105   54   55 1    
   106   54  110 1    
   107   55   56 1    
   108   55   59 1    
   109   55  111 1    
   110   56   57 am   BACKBONE|DICT|INTERRES
   111   56   58 2    
   112   57  112 1    
   113   57  113 1    
   114   59   60 1    
   115   59  114 1    
   116   59  115 1    
   117   60   61 1    
   118   61  116 1    
   119   61  117 1    
@<TRIPOS>SUBSTRUCTURE
     1 UNK         1 GROUP             0       ****    0 ROOT    
