@<TRIPOS>MOLECULE
3R8
117   119    1
SMALL
USER_CHARGES


@<TRIPOS>ATOM
      1 CA         16.6658  -23.3698  -40.9287 C.3       0 UNK        -0.2013 
      2 C          17.2372  -23.7498  -42.2866 C.2       0 UNK         0.4866 
      3 O          17.6646  -22.8729  -43.0385 O.2       0 UNK        -0.5176 
      4 N          17.2384  -25.0489  -42.6095 N.am      1 UNK        -0.4884 
      5 CA         17.8020  -25.6072  -43.8437 C.3       1 UNK         0.0853 
      6 C6         17.3979  -27.0892  -44.0384 C.3       10 UNK        -0.0849 
      7 S7         15.5921  -27.3462  -44.1024 S.3       10 UNK        -0.2776 
      8 C8         15.4170  -28.4817  -45.5214 C.3       10 UNK         0.0316 
      9 C9         16.2892  -29.7252  -45.3860 C.ar      10 UNK        -0.0863 
     10 C10        16.1090  -30.6042  -44.3128 C.ar      10 UNK        -0.1009 
     11 C11        16.9273  -31.7280  -44.1579 C.ar      10 UNK        -0.0712 
     12 C12        17.9109  -31.9840  -45.1220 C.ar      10 UNK        -0.0894 
     13 C13        18.1199  -31.1010  -46.1845 C.ar      10 UNK        -0.0745 
     14 C14        17.2969  -29.9809  -46.3211 C.ar      10 UNK        -0.0972 
     15 C15        19.2792  -31.3315  -47.1447 C.3       10 UNK         0.0209 
     16 S16        20.6416  -30.1413  -46.8869 S.3       10 UNK        -0.2568 
     17 C17        20.9459  -30.2615  -45.0876 C.3       10 UNK        -0.0983 
     18 CA         21.8359  -29.1233  -44.5295 C.3       3 UNK         0.0876 
     19 N          21.4045  -27.7963  -44.9800 N.am      3 UNK        -0.4424 
     20 C          22.0784  -26.6563  -44.7743 C.2       2 UNK         0.4918 
     21 O          23.1650  -26.5958  -44.2015 O.2       2 UNK        -0.4875 
     22 CA         21.3929  -25.3581  -45.2384 C.3       2 UNK         0.0481 
     23 CB         21.7113  -25.0808  -46.7156 C.3       2 UNK        -0.1831 
     24 N          19.9380  -25.3676  -45.0373 N.am      2 UNK        -0.4498 
     25 C          19.3400  -25.5005  -43.8439 C.2       1 UNK         0.5027 
     26 O          19.9589  -25.6230  -42.7835 O.2       1 UNK        -0.4969 
     27 C          21.8797  -29.2052  -42.9905 C.2       3 UNK         0.5005 
     28 O          22.8350  -29.7435  -42.4337 O.2       3 UNK        -0.5279 
     29 N          20.8535  -28.6486  -42.3301 N.am      4 UNK        -0.4463 
     30 CA         20.7471  -28.5795  -40.8725 C.3       4 UNK         0.0283 
     31 CB         19.3149  -28.2000  -40.4653 C.3       4 UNK        -0.1875 
     32 C          21.7773  -27.6181  -40.2620 C.2       4 UNK         0.4949 
     33 O          22.3860  -27.9561  -39.2482 O.2       4 UNK        -0.5039 
     34 N          22.0044  -26.4702  -40.9176 N.am      5 UNK        -0.4663 
     35 CA         23.0476  -25.5006  -40.5635 C.3       5 UNK         0.0242 
     36 CB         22.8914  -24.2401  -41.4285 C.3       5 UNK        -0.1982 
     37 C          24.4711  -26.0770  -40.6850 C.2       5 UNK         0.5017 
     38 O          25.3246  -25.7629  -39.8554 O.2       5 UNK        -0.5012 
     39 N          24.6847  -26.9429  -41.6855 N.am      6 UNK        -0.4439 
     40 CA         25.9103  -27.7205  -41.8901 C.3       6 UNK         0.0297 
     41 CB         25.9711  -28.1687  -43.3606 C.3       6 UNK        -0.2006 
     42 C          26.0442  -28.9383  -40.9508 C.2       6 UNK         0.4892 
     43 O          27.0833  -29.5984  -40.9902 O.2       6 UNK        -0.5089 
     44 N          25.0079  -29.2270  -40.1466 N.am      7 UNK        -0.4243 
     45 CA         24.8704  -30.3659  -39.2289 C.3       7 UNK         0.0196 
     46 CB         25.9305  -30.3136  -38.1078 C.3       7 UNK        -0.2007 
     47 C          24.8136  -31.7319  -39.9434 C.2       7 UNK         0.5020 
     48 O          25.1809  -32.7488  -39.3531 O.2       7 UNK        -0.5147 
     49 N          24.3272  -31.7407  -41.1905 N.am      8 UNK        -0.4734 
     50 CA         24.0949  -32.9373  -42.0028 C.3       8 UNK         0.0238 
     51 CB         24.4588  -32.6172  -43.4634 C.3       8 UNK        -0.1912 
     52 C          22.6400  -33.4330  -41.9036 C.2       8 UNK         0.5038 
     53 O          22.3354  -34.4983  -42.4411 O.2       8 UNK        -0.5046 
     54 N          21.7712  -32.6652  -41.2355 N.am      9 UNK        -0.4200 
     55 CA         20.3546  -32.9637  -41.0038 C.3       9 UNK         0.0839 
     56 C          19.8659  -32.3486  -39.6650 C.2       9 UNK         0.5513 
     57 N          18.5985  -32.5294  -39.3237 N.am      9 UNK        -0.7519 
     58 O          20.6216  -31.7157  -38.9297 O.2       9 UNK        -0.4960 
     59 C59        19.4782  -32.5713  -42.2279 C.3       10 UNK        -0.0876 
     60 S60        18.1038  -33.7407  -42.5121 S.3       10 UNK        -0.2414 
     61 C61        16.7197  -32.6198  -42.9300 C.3       10 UNK         0.0169 
     62 H62        15.8284  -22.6837  -41.0523 H         1 UNK         0.0903 
     63 H63        16.3123  -24.2405  -40.3767 H         1 UNK         0.0903 
     64 H64        17.4275  -22.8740  -40.3276 H         1 UNK         0.0903 
     65 H65        16.8674  -25.7249  -41.9578 H         1 UNK         0.3096 
     66 H66        17.4159  -25.0229  -44.6821 H         1 UNK         0.1121 
     67 H67        17.7910  -27.7115  -43.2321 H         1 UNK         0.0849 
     68 H68        17.8398  -27.4732  -44.9594 H         1 UNK         0.0849 
     69 H69        14.3729  -28.7858  -45.6058 H         1 UNK         0.0865 
     70 H70        15.6517  -27.9388  -46.4383 H         1 UNK         0.0865 
     71 H71        15.3410  -30.3953  -43.5801 H         1 UNK         0.1346 
     72 H72        18.5505  -32.8499  -45.0336 H         1 UNK         0.1412 
     73 H73        17.4638  -29.2958  -47.1414 H         1 UNK         0.1426 
     74 H74        18.9227  -31.2468  -48.1722 H         1 UNK         0.0716 
     75 H75        19.6724  -32.3440  -47.0402 H         1 UNK         0.0716 
     76 H76        21.3956  -31.2343  -44.8800 H         1 UNK         0.0695 
     77 H77        19.9855  -30.2504  -44.5720 H         1 UNK         0.0695 
     78 H78        22.8538  -29.2763  -44.8950 H         1 UNK         0.0983 
     79 H79        20.5420  -27.7634  -45.5022 H         1 UNK         0.3095 
     80 H80        21.8015  -24.5384  -44.6442 H         1 UNK         0.0454 
     81 H81        21.3094  -24.1192  -47.0352 H         1 UNK         0.0851 
     82 H82        21.3039  -25.8511  -47.3715 H         1 UNK         0.0851 
     83 H83        22.7891  -25.0491  -46.8818 H         1 UNK         0.0851 
     84 H84        19.3675  -25.2750  -45.8660 H         1 UNK         0.2976 
     85 H85        20.1424  -28.1698  -42.8610 H         1 UNK         0.3116 
     86 H86        20.9562  -29.5744  -40.4777 H         1 UNK         0.0646 
     87 H87        18.5889  -28.9150  -40.8528 H         1 UNK         0.0847 
     88 H88        19.0371  -27.2079  -40.8218 H         1 UNK         0.0847 
     89 H89        19.2121  -28.1945  -39.3793 H         1 UNK         0.0847 
     90 H90        21.4095  -26.2378  -41.7095 H         1 UNK         0.3040 
     91 H91        22.8962  -25.2201  -39.5188 H         1 UNK         0.1015 
     92 H92        23.6179  -23.4785  -41.1420 H         1 UNK         0.0786 
     93 H93        21.8992  -23.8021  -41.3168 H         1 UNK         0.0786 
     94 H94        23.0445  -24.4547  -42.4861 H         1 UNK         0.0786 
     95 H95        23.9441  -27.0793  -42.3662 H         1 UNK         0.3172 
     96 H96        26.7661  -27.0699  -41.6991 H         1 UNK         0.0595 
     97 H97        25.1481  -28.8382  -43.6120 H         1 UNK         0.0839 
     98 H98        26.8994  -28.7012  -43.5717 H         1 UNK         0.0839 
     99 H99        25.9277  -27.3159  -44.0383 H         1 UNK         0.0839 
    100 H100       24.1970  -28.6210  -40.1908 H         1 UNK         0.2998 
    101 H101       23.8947  -30.2450  -38.7557 H         1 UNK         0.0822 
    102 H102       25.9403  -29.3403  -37.6172 H         1 UNK         0.0787 
    103 H103       25.7240  -31.0597  -37.3396 H         1 UNK         0.0787 
    104 H104       26.9336  -30.5096  -38.4873 H         1 UNK         0.0787 
    105 H105       23.9942  -30.8651  -41.5942 H         1 UNK         0.3055 
    106 H106       24.7389  -33.7501  -41.6596 H         1 UNK         0.1106 
    107 H107       23.8202  -31.8375  -43.8792 H         1 UNK         0.0828 
    108 H108       24.3499  -33.4989  -44.0963 H         1 UNK         0.0828 
    109 H109       25.4930  -32.2834  -43.5492 H         1 UNK         0.0828 
    110 H110       22.1112  -31.8276  -40.7836 H         1 UNK         0.2931 
    111 H111       20.2947  -34.0436  -40.8539 H         1 UNK         0.0412 
    112 H112       18.2609  -32.1435  -38.4559 H         1 UNK         0.3472 
    113 H113       17.9770  -33.0533  -39.9210 H         1 UNK         0.3472 
    114 H114       19.1049  -31.5491  -42.1379 H         1 UNK         0.0970 
    115 H115       20.0779  -32.5807  -43.1386 H         1 UNK         0.0970 
    116 H116       15.8269  -33.2249  -43.0913 H         1 UNK         0.0612 
    117 H117       16.5172  -31.9951  -42.0583 H         1 UNK         0.0612 
@<TRIPOS>BOND
     1    1    2 1    
     2    1   62 1    
     3    1   63 1    
     4    1   64 1    
     5    2    3 2    
     6    2    4 am   BACKBONE|DICT|INTERRES
     7    4    5 1    
     8    4   65 1    
     9    5    6 1    
    10    5   25 1    
    11    5   66 1    
    12    6    7 1    
    13    6   67 1    
    14    6   68 1    
    15    7    8 1    
    16    8    9 1    
    17    8   69 1    
    18    8   70 1    
    19    9   10 ar   
    20    9   14 ar   
    21   10   11 ar   
    22   10   71 1    
    23   11   12 ar   
    24   11   61 1    
    25   12   13 ar   
    26   12   72 1    
    27   13   14 ar   
    28   13   15 1    
    29   14   73 1    
    30   15   16 1    
    31   15   74 1    
    32   15   75 1    
    33   16   17 1    
    34   17   18 1    
    35   17   76 1    
    36   17   77 1    
    37   18   19 1    
    38   18   27 1    
    39   18   78 1    
    40   19   20 am   BACKBONE|DICT|INTERRES
    41   19   79 1    
    42   20   21 2    
    43   20   22 1    
    44   22   23 1    
    45   22   24 1    
    46   22   80 1    
    47   23   81 1    
    48   23   82 1    
    49   23   83 1    
    50   24   25 am   BACKBONE|DICT|INTERRES
    51   24   84 1    
    52   25   26 2    
    53   27   28 2    
    54   27   29 am   BACKBONE|DICT|INTERRES
    55   29   30 1    
    56   29   85 1    
    57   30   31 1    
    58   30   32 1    
    59   30   86 1    
    60   31   87 1    
    61   31   88 1    
    62   31   89 1    
    63   32   33 2    
    64   32   34 am   BACKBONE|DICT|INTERRES
    65   34   35 1    
    66   34   90 1    
    67   35   36 1    
    68   35   37 1    
    69   35   91 1    
    70   36   92 1    
    71   36   93 1    
    72   36   94 1    
    73   37   38 2    
    74   37   39 am   BACKBONE|DICT|INTERRES
    75   39   40 1    
    76   39   95 1    
    77   40   41 1    
    78   40   42 1    
    79   40   96 1    
    80   41   97 1    
    81   41   98 1    
    82   41   99 1    
    83   42   43 2    
    84   42   44 am   BACKBONE|DICT|INTERRES
    85   44   45 1    
    86   44  100 1    
    87   45   46 1    
    88   45   47 1    
    89   45  101 1    
    90   46  102 1    
    91   46  103 1    
    92   46  104 1    
    93   47   48 2    
    94   47   49 am   BACKBONE|DICT|INTERRES
    95   49   50 1    
    96   49  105 1    
    97   50   51 1    
    98   50   52 1    
    99   50  106 1    
   100   51  107 1    
   101   51  108 1    
   102   51  109 1    
   103   52   53 2    
   104   52   54 am   BACKBONE|DICT|INTERRES
   105   54   55 1    
   106   54  110 1    
   107   55   56 1    
   108   55   59 1    
   109   55  111 1    
   110   56   57 am   BACKBONE|DICT|INTERRES
   111   56   58 2    
   112   57  112 1    
   113   57  113 1    
   114   59   60 1    
   115   59  114 1    
   116   59  115 1    
   117   60   61 1    
   118   61  116 1    
   119   61  117 1    
@<TRIPOS>SUBSTRUCTURE
     1 UNK         1 GROUP             0       ****    0 ROOT    
