@<TRIPOS>MOLECULE
3R8
117   119    1
SMALL
USER_CHARGES


@<TRIPOS>ATOM
      1 CA         14.5390  -28.0835  -40.4452 C.3       0 UNK        -0.2013 
      2 C          14.2333  -26.7415  -41.1037 C.2       0 UNK         0.4866 
      3 O          13.7532  -25.8416  -40.4172 O.2       0 UNK        -0.5176 
      4 N          14.4716  -26.5326  -42.4081 N.am      1 UNK        -0.4884 
      5 CA         15.0772  -27.4145  -43.4159 C.3       1 UNK         0.0853 
      6 C6         14.1879  -28.6255  -43.8113 C.3       10 UNK        -0.0849 
      7 S7         14.3148  -29.0147  -45.5901 S.3       10 UNK        -0.2776 
      8 C8         15.5206  -30.3891  -45.6225 C.3       10 UNK         0.0316 
      9 C9         16.9639  -29.9657  -45.9015 C.ar      10 UNK        -0.0863 
     10 C10        18.0138  -30.6163  -45.2410 C.ar      10 UNK        -0.1009 
     11 C11        19.3447  -30.3284  -45.5598 C.ar      10 UNK        -0.0712 
     12 C12        19.6238  -29.3819  -46.5466 C.ar      10 UNK        -0.0894 
     13 C13        18.5926  -28.6982  -47.1942 C.ar      10 UNK        -0.0745 
     14 C14        17.2649  -28.9984  -46.8701 C.ar      10 UNK        -0.0972 
     15 C15        18.9111  -27.6792  -48.2820 C.3       10 UNK         0.0209 
     16 S16        19.3610  -26.0445  -47.6088 S.3       10 UNK        -0.2568 
     17 C17        21.1218  -26.2681  -47.1682 C.3       10 UNK        -0.0983 
     18 CA         21.4597  -25.9781  -45.6784 C.3       3 UNK         0.0876 
     19 N          20.6126  -26.6864  -44.7149 N.am      3 UNK        -0.4424 
     20 C          19.5884  -26.1383  -44.0567 C.2       2 UNK         0.4918 
     21 O          19.2054  -24.9737  -44.1936 O.2       2 UNK        -0.4875 
     22 CA         18.8719  -27.0460  -43.0591 C.3       2 UNK         0.0481 
     23 CB         19.3102  -26.7484  -41.6161 C.3       2 UNK        -0.1831 
     24 N          17.4384  -26.8435  -43.2059 N.am      2 UNK        -0.4498 
     25 C          16.5223  -27.8027  -43.0487 C.2       1 UNK         0.5027 
     26 O          16.7738  -28.9258  -42.6074 O.2       1 UNK        -0.4969 
     27 C          22.9348  -26.2965  -45.3830 C.2       3 UNK         0.5005 
     28 O          23.7540  -25.3778  -45.3248 O.2       3 UNK        -0.5279 
     29 N          23.2498  -27.5877  -45.1955 N.am      4 UNK        -0.4463 
     30 CA         24.5821  -28.0739  -44.8405 C.3       4 UNK         0.0283 
     31 CB         24.6872  -29.5632  -45.2118 C.3       4 UNK        -0.1875 
     32 C          24.8694  -27.8798  -43.3439 C.2       4 UNK         0.4949 
     33 O          23.9484  -27.9068  -42.5247 O.2       4 UNK        -0.5039 
     34 N          26.1579  -27.7358  -43.0129 N.am      5 UNK        -0.4663 
     35 CA         26.6446  -27.6393  -41.6335 C.3       5 UNK         0.0242 
     36 CB         28.0405  -26.9955  -41.6348 C.3       5 UNK        -0.1982 
     37 C          26.6822  -28.9972  -40.9101 C.2       5 UNK         0.5017 
     38 O          26.6627  -29.0127  -39.6792 O.2       5 UNK        -0.5012 
     39 N          26.7400  -30.0985  -41.6766 N.am      6 UNK        -0.4439 
     40 CA         26.8035  -31.4914  -41.2208 C.3       6 UNK         0.0297 
     41 CB         26.8438  -32.4181  -42.4484 C.3       6 UNK        -0.2006 
     42 C          25.6336  -31.8522  -40.2898 C.2       6 UNK         0.4892 
     43 O          24.5139  -32.0523  -40.7662 O.2       6 UNK        -0.5089 
     44 N          25.9106  -31.8424  -38.9760 N.am      7 UNK        -0.4243 
     45 CA         24.9653  -31.9978  -37.8590 C.3       7 UNK         0.0196 
     46 CB         24.4461  -33.4502  -37.7986 C.3       7 UNK        -0.2007 
     47 C          23.8116  -30.9702  -37.8716 C.2       7 UNK         0.5020 
     48 O          22.7518  -31.2424  -37.3058 O.2       7 UNK        -0.5147 
     49 N          24.0123  -29.8367  -38.5649 N.am      8 UNK        -0.4734 
     50 CA         23.0110  -28.8263  -38.9350 C.3       8 UNK         0.0238 
     51 CB         22.6474  -27.9648  -37.7079 C.3       8 UNK        -0.1912 
     52 C          21.7672  -29.4185  -39.6381 C.2       8 UNK         0.5038 
     53 O          20.6645  -28.9038  -39.4478 O.2       8 UNK        -0.5046 
     54 N          21.9606  -30.5090  -40.3973 N.am      9 UNK        -0.4200 
     55 CA         20.9112  -31.3356  -41.0199 C.3       9 UNK         0.0839 
     56 C          19.9937  -32.0916  -40.0085 C.2       9 UNK         0.5513 
     57 N          20.3443  -32.2005  -38.7319 N.am      9 UNK        -0.7519 
     58 O          18.9588  -32.6305  -40.3926 O.2       9 UNK        -0.4960 
     59 C59        20.1076  -30.5791  -42.1170 C.3       10 UNK        -0.0876 
     60 S60        21.1759  -30.0656  -43.5064 S.3       10 UNK        -0.2414 
     61 C61        20.4933  -31.0530  -44.8734 C.3       10 UNK         0.0169 
     62 H62        14.0251  -28.1592  -39.4872 H         1 UNK         0.0903 
     63 H63        14.2089  -28.9224  -41.0524 H         1 UNK         0.0903 
     64 H64        15.6068  -28.1832  -40.2538 H         1 UNK         0.0903 
     65 H65        14.2414  -25.6144  -42.7633 H         1 UNK         0.3096 
     66 H66        15.1576  -26.7788  -44.3001 H         1 UNK         0.1121 
     67 H67        13.1394  -28.3857  -43.6278 H         1 UNK         0.0849 
     68 H68        14.3851  -29.5171  -43.2154 H         1 UNK         0.0849 
     69 H69        15.4574  -30.9538  -44.6911 H         1 UNK         0.0865 
     70 H70        15.2213  -31.0808  -46.4109 H         1 UNK         0.0865 
     71 H71        17.7953  -31.3660  -44.4932 H         1 UNK         0.1346 
     72 H72        20.6513  -29.1892  -46.8136 H         1 UNK         0.1412 
     73 H73        16.4637  -28.4978  -47.3963 H         1 UNK         0.1426 
     74 H74        18.0451  -27.5525  -48.9334 H         1 UNK         0.0716 
     75 H75        19.7118  -28.0504  -48.9234 H         1 UNK         0.0716 
     76 H76        21.6954  -25.5915  -47.8045 H         1 UNK         0.0695 
     77 H77        21.4454  -27.2668  -47.4576 H         1 UNK         0.0695 
     78 H78        21.3459  -24.9027  -45.5222 H         1 UNK         0.0983 
     79 H79        20.8618  -27.6395  -44.4955 H         1 UNK         0.3095 
     80 H80        19.1089  -28.0800  -43.3086 H         1 UNK         0.0454 
     81 H81        18.7988  -27.3970  -40.9048 H         1 UNK         0.0851 
     82 H82        19.1035  -25.7151  -41.3356 H         1 UNK         0.0851 
     83 H83        20.3812  -26.9155  -41.4932 H         1 UNK         0.0851 
     84 H84        17.1730  -25.9370  -43.5697 H         1 UNK         0.2976 
     85 H85        22.5269  -28.2887  -45.2304 H         1 UNK         0.3116 
     86 H86        25.3229  -27.5183  -45.4201 H         1 UNK         0.0646 
     87 H87        24.0066  -30.1784  -44.6218 H         1 UNK         0.0847 
     88 H88        25.6954  -29.9407  -45.0384 H         1 UNK         0.0847 
     89 H89        24.4612  -29.7284  -46.2654 H         1 UNK         0.0847 
     90 H90        26.8537  -27.7079  -43.7456 H         1 UNK         0.3040 
     91 H91        25.9703  -26.9902  -41.0695 H         1 UNK         0.1015 
     92 H92        28.7642  -27.5963  -42.1873 H         1 UNK         0.0786 
     93 H93        28.4194  -26.8836  -40.6177 H         1 UNK         0.0786 
     94 H94        28.0184  -26.0008  -42.0805 H         1 UNK         0.0786 
     95 H95        26.7275  -29.9594  -42.6753 H         1 UNK         0.3172 
     96 H96        27.7392  -31.6190  -40.6728 H         1 UNK         0.0595 
     97 H97        25.9603  -32.2971  -43.0770 H         1 UNK         0.0839 
     98 H98        26.8843  -33.4651  -42.1446 H         1 UNK         0.0839 
     99 H99        27.7231  -32.2273  -43.0639 H         1 UNK         0.0839 
    100 H100       26.8554  -31.6042  -38.7048 H         1 UNK         0.2998 
    101 H101       25.5308  -31.8055  -36.9460 H         1 UNK         0.0822 
    102 H102       25.2682  -34.1657  -37.7838 H         1 UNK         0.0787 
    103 H103       23.8558  -33.6202  -36.8972 H         1 UNK         0.0787 
    104 H104       23.8101  -33.6869  -38.6525 H         1 UNK         0.0787 
    105 H105       24.9359  -29.6960  -38.9656 H         1 UNK         0.3055 
    106 H106       23.4855  -28.1762  -39.6724 H         1 UNK         0.1106 
    107 H107       22.1210  -28.5462  -36.9503 H         1 UNK         0.0828 
    108 H108       23.5370  -27.5372  -37.2456 H         1 UNK         0.0828 
    109 H109       21.9997  -27.1336  -37.9894 H         1 UNK         0.0828 
    110 H110       22.9008  -30.8829  -40.4811 H         1 UNK         0.2931 
    111 H111       21.4556  -32.1361  -41.5222 H         1 UNK         0.0412 
    112 H112       21.1965  -31.7765  -38.3788 H         1 UNK         0.3472 
    113 H113       19.7425  -32.7057  -38.1016 H         1 UNK         0.3472 
    114 H114       19.6146  -29.7028  -41.6973 H         1 UNK         0.0970 
    115 H115       19.2998  -31.2000  -42.5059 H         1 UNK         0.0970 
    116 H116       20.1795  -32.0344  -44.5145 H         1 UNK         0.0612 
    117 H117       21.2893  -31.2398  -45.5958 H         1 UNK         0.0612 
@<TRIPOS>BOND
     1    1    2 1    
     2    1   62 1    
     3    1   63 1    
     4    1   64 1    
     5    2    3 2    
     6    2    4 am   BACKBONE|DICT|INTERRES
     7    4    5 1    
     8    4   65 1    
     9    5    6 1    
    10    5   25 1    
    11    5   66 1    
    12    6    7 1    
    13    6   67 1    
    14    6   68 1    
    15    7    8 1    
    16    8    9 1    
    17    8   69 1    
    18    8   70 1    
    19    9   10 ar   
    20    9   14 ar   
    21   10   11 ar   
    22   10   71 1    
    23   11   12 ar   
    24   11   61 1    
    25   12   13 ar   
    26   12   72 1    
    27   13   14 ar   
    28   13   15 1    
    29   14   73 1    
    30   15   16 1    
    31   15   74 1    
    32   15   75 1    
    33   16   17 1    
    34   17   18 1    
    35   17   76 1    
    36   17   77 1    
    37   18   19 1    
    38   18   27 1    
    39   18   78 1    
    40   19   20 am   BACKBONE|DICT|INTERRES
    41   19   79 1    
    42   20   21 2    
    43   20   22 1    
    44   22   23 1    
    45   22   24 1    
    46   22   80 1    
    47   23   81 1    
    48   23   82 1    
    49   23   83 1    
    50   24   25 am   BACKBONE|DICT|INTERRES
    51   24   84 1    
    52   25   26 2    
    53   27   28 2    
    54   27   29 am   BACKBONE|DICT|INTERRES
    55   29   30 1    
    56   29   85 1    
    57   30   31 1    
    58   30   32 1    
    59   30   86 1    
    60   31   87 1    
    61   31   88 1    
    62   31   89 1    
    63   32   33 2    
    64   32   34 am   BACKBONE|DICT|INTERRES
    65   34   35 1    
    66   34   90 1    
    67   35   36 1    
    68   35   37 1    
    69   35   91 1    
    70   36   92 1    
    71   36   93 1    
    72   36   94 1    
    73   37   38 2    
    74   37   39 am   BACKBONE|DICT|INTERRES
    75   39   40 1    
    76   39   95 1    
    77   40   41 1    
    78   40   42 1    
    79   40   96 1    
    80   41   97 1    
    81   41   98 1    
    82   41   99 1    
    83   42   43 2    
    84   42   44 am   BACKBONE|DICT|INTERRES
    85   44   45 1    
    86   44  100 1    
    87   45   46 1    
    88   45   47 1    
    89   45  101 1    
    90   46  102 1    
    91   46  103 1    
    92   46  104 1    
    93   47   48 2    
    94   47   49 am   BACKBONE|DICT|INTERRES
    95   49   50 1    
    96   49  105 1    
    97   50   51 1    
    98   50   52 1    
    99   50  106 1    
   100   51  107 1    
   101   51  108 1    
   102   51  109 1    
   103   52   53 2    
   104   52   54 am   BACKBONE|DICT|INTERRES
   105   54   55 1    
   106   54  110 1    
   107   55   56 1    
   108   55   59 1    
   109   55  111 1    
   110   56   57 am   BACKBONE|DICT|INTERRES
   111   56   58 2    
   112   57  112 1    
   113   57  113 1    
   114   59   60 1    
   115   59  114 1    
   116   59  115 1    
   117   60   61 1    
   118   61  116 1    
   119   61  117 1    
@<TRIPOS>SUBSTRUCTURE
     1 UNK         1 GROUP             0       ****    0 ROOT    
