@<TRIPOS>MOLECULE
3R8
117   119    1
SMALL
USER_CHARGES


@<TRIPOS>ATOM
      1 CA         13.9300  -23.3061  -45.1270 C.3       0 UNK        -0.2013 
      2 C          14.5081  -24.6745  -44.7972 C.2       0 UNK         0.4866 
      3 O          14.0364  -25.6798  -45.3276 O.2       0 UNK        -0.5176 
      4 N          15.5271  -24.7142  -43.9338 N.am      1 UNK        -0.4884 
      5 CA         16.2551  -25.9145  -43.5218 C.3       1 UNK         0.0853 
      6 C6         15.5188  -26.7174  -42.4034 C.3       10 UNK        -0.0849 
      7 S7         14.7809  -28.2623  -43.0338 S.3       10 UNK        -0.2776 
      8 C8         16.0078  -29.5292  -42.5437 C.3       10 UNK         0.0316 
      9 C9         17.3264  -29.4942  -43.3203 C.ar      10 UNK        -0.0863 
     10 C10        18.4983  -29.9410  -42.6970 C.ar      10 UNK        -0.1009 
     11 C11        19.7132  -29.9594  -43.3906 C.ar      10 UNK        -0.0712 
     12 C12        19.7582  -29.5057  -44.7102 C.ar      10 UNK        -0.0894 
     13 C13        18.6034  -29.0429  -45.3438 C.ar      10 UNK        -0.0745 
     14 C14        17.3881  -29.0684  -44.6543 C.ar      10 UNK        -0.0972 
     15 C15        18.6595  -28.5340  -46.7775 C.3       10 UNK         0.0209 
     16 S16        18.9343  -26.7321  -46.8560 S.3       10 UNK        -0.2568 
     17 C17        20.7459  -26.6123  -46.6460 C.3       10 UNK        -0.0983 
     18 CA         21.1802  -25.4359  -45.7228 C.3       3 UNK         0.0876 
     19 N          20.5534  -25.5076  -44.3969 N.am      3 UNK        -0.4424 
     20 C          20.8540  -26.3382  -43.3883 C.2       2 UNK         0.4918 
     21 O          21.8183  -27.1003  -43.3745 O.2       2 UNK        -0.4875 
     22 CA         19.8777  -26.3718  -42.2019 C.3       2 UNK         0.0481 
     23 CB         20.1334  -25.2218  -41.2074 C.3       2 UNK        -0.1831 
     24 N          18.4710  -26.4564  -42.6185 N.am      2 UNK        -0.4498 
     25 C          17.6883  -25.4998  -43.1376 C.2       1 UNK         0.5027 
     26 O          18.0669  -24.3415  -43.3382 O.2       1 UNK        -0.4969 
     27 C          22.7148  -25.2681  -45.6124 C.2       3 UNK         0.5005 
     28 O          23.1787  -24.2044  -45.1955 O.2       3 UNK        -0.5279 
     29 N          23.4612  -26.3249  -45.9502 N.am      4 UNK        -0.4463 
     30 CA         24.8709  -26.5272  -45.6433 C.3       4 UNK         0.0283 
     31 CB         25.6971  -26.4553  -46.9377 C.3       4 UNK        -0.1875 
     32 C          24.9772  -27.9144  -44.9946 C.2       4 UNK         0.4949 
     33 O          24.1573  -28.7844  -45.3021 O.2       4 UNK        -0.5039 
     34 N          25.9783  -28.0892  -44.1193 N.am      5 UNK        -0.4663 
     35 CA         26.1850  -29.2581  -43.2478 C.3       5 UNK         0.0242 
     36 CB         26.4858  -30.5326  -44.0673 C.3       5 UNK        -0.1982 
     37 C          25.0240  -29.4358  -42.2469 C.2       5 UNK         0.5017 
     38 O          24.4644  -30.5264  -42.1232 O.2       5 UNK        -0.5012 
     39 N          24.6834  -28.3325  -41.5651 N.am      6 UNK        -0.4439 
     40 CA         23.6172  -28.2243  -40.5666 C.3       6 UNK         0.0297 
     41 CB         23.5458  -26.7671  -40.0843 C.3       6 UNK        -0.2006 
     42 C          23.8077  -29.1703  -39.3681 C.2       6 UNK         0.4892 
     43 O          24.9415  -29.5221  -39.0341 O.2       6 UNK        -0.5089 
     44 N          22.6849  -29.5566  -38.7449 N.am      7 UNK        -0.4243 
     45 CA         22.5326  -30.4656  -37.5951 C.3       7 UNK         0.0196 
     46 CB         23.2942  -29.9544  -36.3564 C.3       7 UNK        -0.2007 
     47 C          22.8733  -31.9398  -37.8861 C.2       7 UNK         0.5020 
     48 O          22.1940  -32.8236  -37.3629 O.2       7 UNK        -0.5147 
     49 N          23.8723  -32.1925  -38.7421 N.am      8 UNK        -0.4734 
     50 CA         24.3048  -33.5206  -39.1954 C.3       8 UNK         0.0238 
     51 CB         25.5770  -33.3715  -40.0455 C.3       8 UNK        -0.1912 
     52 C          23.2274  -34.3050  -39.9688 C.2       8 UNK         0.5038 
     53 O          23.3112  -35.5322  -40.0352 O.2       8 UNK        -0.5046 
     54 N          22.2336  -33.5923  -40.5149 N.am      9 UNK        -0.4200 
     55 CA         21.0301  -34.1526  -41.1479 C.3       9 UNK         0.0839 
     56 C          20.0657  -34.8803  -40.1644 C.2       9 UNK         0.5513 
     57 N          20.1877  -34.7058  -38.8525 N.am      9 UNK        -0.7519 
     58 O          19.1885  -35.6186  -40.6046 O.2       9 UNK        -0.4960 
     59 C59        20.2552  -33.0888  -41.9716 C.3       10 UNK        -0.0876 
     60 S60        21.3128  -32.2015  -43.1666 S.3       10 UNK        -0.2414 
     61 C61        20.9889  -30.4637  -42.7320 C.3       10 UNK         0.0169 
     62 H62        12.8728  -23.2728  -44.8650 H         1 UNK         0.0903 
     63 H63        14.4381  -22.5072  -44.5870 H         1 UNK         0.0903 
     64 H64        14.0233  -23.1066  -46.1942 H         1 UNK         0.0903 
     65 H65        15.9390  -23.8550  -43.5889 H         1 UNK         0.3096 
     66 H66        16.3771  -26.5324  -44.4124 H         1 UNK         0.1121 
     67 H67        14.7124  -26.1197  -41.9748 H         1 UNK         0.0849 
     68 H68        16.1546  -26.9602  -41.5506 H         1 UNK         0.0849 
     69 H69        16.1938  -29.4392  -41.4722 H         1 UNK         0.0865 
     70 H70        15.5582  -30.5121  -42.6910 H         1 UNK         0.0865 
     71 H71        18.4633  -30.2910  -41.6744 H         1 UNK         0.1346 
     72 H72        20.7006  -29.5189  -45.2396 H         1 UNK         0.1412 
     73 H73        16.4904  -28.7475  -45.1643 H         1 UNK         0.1426 
     74 H74        17.7206  -28.7639  -47.2834 H         1 UNK         0.0716 
     75 H75        19.4377  -29.0525  -47.3398 H         1 UNK         0.0716 
     76 H76        21.1188  -27.5592  -46.2582 H         1 UNK         0.0695 
     77 H77        21.1810  -26.4948  -47.6402 H         1 UNK         0.0695 
     78 H78        20.8153  -24.5137  -46.1779 H         1 UNK         0.0983 
     79 H79        19.7435  -24.9117  -44.2643 H         1 UNK         0.3095 
     80 H80        20.0711  -27.3034  -41.6674 H         1 UNK         0.0454 
     81 H81        21.1454  -25.2711  -40.8088 H         1 UNK         0.0851 
     82 H82        19.4500  -25.2707  -40.3599 H         1 UNK         0.0851 
     83 H83        20.0261  -24.2406  -41.6697 H         1 UNK         0.0851 
     84 H84        18.0881  -27.3923  -42.5811 H         1 UNK         0.2976 
     85 H85        22.9836  -27.1894  -46.1741 H         1 UNK         0.3116 
     86 H86        25.2220  -25.7731  -44.9355 H         1 UNK         0.0646 
     87 H87        25.3904  -27.2171  -47.6557 H         1 UNK         0.0847 
     88 H88        26.7577  -26.6066  -46.7336 H         1 UNK         0.0847 
     89 H89        25.5943  -25.4822  -47.4182 H         1 UNK         0.0847 
     90 H90        26.6119  -27.3160  -43.9659 H         1 UNK         0.3040 
     91 H91        27.0711  -29.0461  -42.6469 H         1 UNK         0.1015 
     92 H92        25.6224  -30.8608  -44.6466 H         1 UNK         0.0786 
     93 H93        26.7627  -31.3580  -43.4102 H         1 UNK         0.0786 
     94 H94        27.3141  -30.3751  -44.7577 H         1 UNK         0.0786 
     95 H95        25.2122  -27.4919  -41.7408 H         1 UNK         0.3172 
     96 H96        22.6793  -28.4763  -41.0646 H         1 UNK         0.0595 
     97 H97        23.3903  -26.0817  -40.9177 H         1 UNK         0.0839 
     98 H98        24.4607  -26.4678  -39.5710 H         1 UNK         0.0839 
     99 H99        22.7206  -26.6234  -39.3856 H         1 UNK         0.0839 
    100 H100       21.8119  -29.2040  -39.1124 H         1 UNK         0.2998 
    101 H101       21.4693  -30.4439  -37.3499 H         1 UNK         0.0822 
    102 H102       23.0698  -30.5688  -35.4834 H         1 UNK         0.0787 
    103 H103       24.3749  -29.9816  -36.4984 H         1 UNK         0.0787 
    104 H104       23.0131  -28.9300  -36.1124 H         1 UNK         0.0787 
    105 H105       24.3930  -31.3927  -39.0920 H         1 UNK         0.3055 
    106 H106       24.5495  -34.1072  -38.3073 H         1 UNK         0.1106 
    107 H107       26.3743  -32.8810  -39.4870 H         1 UNK         0.0828 
    108 H108       25.9541  -34.3459  -40.3593 H         1 UNK         0.0828 
    109 H109       25.3914  -32.7885  -40.9483 H         1 UNK         0.0828 
    110 H110       22.2739  -32.5877  -40.4391 H         1 UNK         0.2931 
    111 H111       21.3755  -34.9144  -41.8496 H         1 UNK         0.0412 
    112 H112       19.5555  -35.1871  -38.2324 H         1 UNK         0.3472 
    113 H113       20.9047  -34.1020  -38.4686 H         1 UNK         0.3472 
    114 H114       19.7754  -32.3737  -41.3019 H         1 UNK         0.0970 
    115 H115       19.4464  -33.5594  -42.5338 H         1 UNK         0.0970 
    116 H116       21.8339  -29.8619  -43.0711 H         1 UNK         0.0612 
    117 H117       20.9481  -30.3426  -41.6489 H         1 UNK         0.0612 
@<TRIPOS>BOND
     1    1    2 1    
     2    1   62 1    
     3    1   63 1    
     4    1   64 1    
     5    2    3 2    
     6    2    4 am   BACKBONE|DICT|INTERRES
     7    4    5 1    
     8    4   65 1    
     9    5    6 1    
    10    5   25 1    
    11    5   66 1    
    12    6    7 1    
    13    6   67 1    
    14    6   68 1    
    15    7    8 1    
    16    8    9 1    
    17    8   69 1    
    18    8   70 1    
    19    9   10 ar   
    20    9   14 ar   
    21   10   11 ar   
    22   10   71 1    
    23   11   12 ar   
    24   11   61 1    
    25   12   13 ar   
    26   12   72 1    
    27   13   14 ar   
    28   13   15 1    
    29   14   73 1    
    30   15   16 1    
    31   15   74 1    
    32   15   75 1    
    33   16   17 1    
    34   17   18 1    
    35   17   76 1    
    36   17   77 1    
    37   18   19 1    
    38   18   27 1    
    39   18   78 1    
    40   19   20 am   BACKBONE|DICT|INTERRES
    41   19   79 1    
    42   20   21 2    
    43   20   22 1    
    44   22   23 1    
    45   22   24 1    
    46   22   80 1    
    47   23   81 1    
    48   23   82 1    
    49   23   83 1    
    50   24   25 am   BACKBONE|DICT|INTERRES
    51   24   84 1    
    52   25   26 2    
    53   27   28 2    
    54   27   29 am   BACKBONE|DICT|INTERRES
    55   29   30 1    
    56   29   85 1    
    57   30   31 1    
    58   30   32 1    
    59   30   86 1    
    60   31   87 1    
    61   31   88 1    
    62   31   89 1    
    63   32   33 2    
    64   32   34 am   BACKBONE|DICT|INTERRES
    65   34   35 1    
    66   34   90 1    
    67   35   36 1    
    68   35   37 1    
    69   35   91 1    
    70   36   92 1    
    71   36   93 1    
    72   36   94 1    
    73   37   38 2    
    74   37   39 am   BACKBONE|DICT|INTERRES
    75   39   40 1    
    76   39   95 1    
    77   40   41 1    
    78   40   42 1    
    79   40   96 1    
    80   41   97 1    
    81   41   98 1    
    82   41   99 1    
    83   42   43 2    
    84   42   44 am   BACKBONE|DICT|INTERRES
    85   44   45 1    
    86   44  100 1    
    87   45   46 1    
    88   45   47 1    
    89   45  101 1    
    90   46  102 1    
    91   46  103 1    
    92   46  104 1    
    93   47   48 2    
    94   47   49 am   BACKBONE|DICT|INTERRES
    95   49   50 1    
    96   49  105 1    
    97   50   51 1    
    98   50   52 1    
    99   50  106 1    
   100   51  107 1    
   101   51  108 1    
   102   51  109 1    
   103   52   53 2    
   104   52   54 am   BACKBONE|DICT|INTERRES
   105   54   55 1    
   106   54  110 1    
   107   55   56 1    
   108   55   59 1    
   109   55  111 1    
   110   56   57 am   BACKBONE|DICT|INTERRES
   111   56   58 2    
   112   57  112 1    
   113   57  113 1    
   114   59   60 1    
   115   59  114 1    
   116   59  115 1    
   117   60   61 1    
   118   61  116 1    
   119   61  117 1    
@<TRIPOS>SUBSTRUCTURE
     1 UNK         1 GROUP             0       ****    0 ROOT    
