@<TRIPOS>MOLECULE
3R8
117   119    1
SMALL
USER_CHARGES


@<TRIPOS>ATOM
      1 CA         14.3765  -23.0981  -46.7174 C.3       0 UNK        -0.2013 
      2 C          15.1219  -24.0756  -45.8209 C.2       0 UNK         0.4866 
      3 O          16.2053  -23.7539  -45.3320 O.2       0 UNK        -0.5176 
      4 N          14.5543  -25.2692  -45.6081 N.am      1 UNK        -0.4884 
      5 CA         15.1136  -26.3181  -44.7472 C.3       1 UNK         0.0853 
      6 C6         14.4108  -27.6798  -44.9758 C.3       10 UNK        -0.0849 
      7 S7         14.5949  -28.2851  -46.6848 S.3       10 UNK        -0.2776 
      8 C8         15.6171  -29.7777  -46.4453 C.3       10 UNK         0.0316 
      9 C9         17.0625  -29.4768  -46.0583 C.ar      10 UNK        -0.0863 
     10 C10        17.6653  -30.1706  -45.0022 C.ar      10 UNK        -0.1009 
     11 C11        19.0181  -29.9688  -44.6904 C.ar      10 UNK        -0.0712 
     12 C12        19.7600  -29.0682  -45.4599 C.ar      10 UNK        -0.0894 
     13 C13        19.1650  -28.3437  -46.4962 C.ar      10 UNK        -0.0745 
     14 C14        17.8176  -28.5575  -46.7934 C.ar      10 UNK        -0.0972 
     15 C15        19.9798  -27.3528  -47.3168 C.3       10 UNK         0.0209 
     16 S16        19.9802  -25.6859  -46.5776 S.3       10 UNK        -0.2568 
     17 C17        21.1402  -25.9009  -45.1830 C.3       10 UNK        -0.0983 
     18 CA         20.4875  -25.7461  -43.7834 C.3       3 UNK         0.0876 
     19 N          19.2163  -26.4756  -43.6544 N.am      3 UNK        -0.4424 
     20 C          18.3049  -26.2305  -42.7055 C.2       2 UNK         0.4918 
     21 O          18.4075  -25.3326  -41.8675 O.2       2 UNK        -0.4875 
     22 CA         17.1053  -27.1839  -42.6425 C.3       2 UNK         0.0481 
     23 CB         17.3093  -28.2098  -41.5167 C.3       2 UNK        -0.1831 
     24 N          15.8915  -26.4149  -42.3684 N.am      2 UNK        -0.4498 
     25 C          15.0100  -25.9265  -43.2519 C.2       1 UNK         0.5027 
     26 O          14.0752  -25.2120  -42.8843 O.2       1 UNK        -0.4969 
     27 C          21.4993  -26.1594  -42.6895 C.2       3 UNK         0.5005 
     28 O          22.4280  -25.4024  -42.4014 O.2       3 UNK        -0.5279 
     29 N          21.3008  -27.3599  -42.1204 N.am      4 UNK        -0.4463 
     30 CA         22.1008  -28.0560  -41.1098 C.3       4 UNK         0.0283 
     31 CB         22.1950  -27.2564  -39.7939 C.3       4 UNK        -0.1875 
     32 C          23.4772  -28.4923  -41.6326 C.2       4 UNK         0.4949 
     33 O          23.7020  -29.6925  -41.7975 O.2       4 UNK        -0.5039 
     34 N          24.3615  -27.5157  -41.8743 N.am      5 UNK        -0.4663 
     35 CA         25.7730  -27.6657  -42.2509 C.3       5 UNK         0.0242 
     36 CB         25.8846  -28.2732  -43.6682 C.3       5 UNK        -0.1982 
     37 C          26.5896  -28.4411  -41.1924 C.2       5 UNK         0.5017 
     38 O          26.1548  -28.5690  -40.0447 O.2       5 UNK        -0.5012 
     39 N          27.7620  -28.9554  -41.5896 N.am      6 UNK        -0.4439 
     40 CA         28.6437  -29.7738  -40.7466 C.3       6 UNK         0.0297 
     41 CB         29.9902  -29.9698  -41.4620 C.3       6 UNK        -0.2006 
     42 C          28.0382  -31.1372  -40.3572 C.2       6 UNK         0.4892 
     43 O          28.4349  -31.7048  -39.3392 O.2       6 UNK        -0.5089 
     44 N          27.0888  -31.6298  -41.1648 N.am      7 UNK        -0.4243 
     45 CA         26.3393  -32.8645  -40.9293 C.3       7 UNK         0.0196 
     46 CB         25.7315  -33.3311  -42.2631 C.3       7 UNK        -0.2007 
     47 C          25.2315  -32.7209  -39.8700 C.2       7 UNK         0.5020 
     48 O          24.7124  -33.7423  -39.4190 O.2       7 UNK        -0.5147 
     49 N          24.8456  -31.4790  -39.5319 N.am      8 UNK        -0.4734 
     50 CA         23.7360  -31.1065  -38.6395 C.3       8 UNK         0.0238 
     51 CB         24.0753  -31.4625  -37.1771 C.3       8 UNK        -0.1912 
     52 C          22.3724  -31.6756  -39.0920 C.2       8 UNK         0.5038 
     53 O          21.5262  -31.9919  -38.2543 O.2       8 UNK        -0.5046 
     54 N          22.2022  -31.8142  -40.4140 N.am      9 UNK        -0.4200 
     55 CA         21.0824  -32.4855  -41.0911 C.3       9 UNK         0.0839 
     56 C          20.9662  -34.0177  -40.8137 C.2       9 UNK         0.5513 
     57 N          21.9918  -34.6800  -40.2898 N.am      9 UNK        -0.7519 
     58 O          19.9420  -34.6300  -41.1041 O.2       9 UNK        -0.4960 
     59 C59        19.7407  -31.7095  -40.9214 C.3       10 UNK        -0.0876 
     60 S60        18.7028  -31.6815  -42.4250 S.3       10 UNK        -0.2414 
     61 C61        19.7460  -30.7022  -43.5612 C.3       10 UNK         0.0169 
     62 H62        14.9940  -22.8292  -47.5741 H         1 UNK         0.0903 
     63 H63        13.4426  -23.5177  -47.0912 H         1 UNK         0.0903 
     64 H64        14.1427  -22.1876  -46.1663 H         1 UNK         0.0903 
     65 H65        13.6598  -25.4805  -46.0267 H         1 UNK         0.3096 
     66 H66        16.1636  -26.4064  -45.0296 H         1 UNK         0.1121 
     67 H67        13.3438  -27.6009  -44.7578 H         1 UNK         0.0849 
     68 H68        14.7979  -28.4353  -44.2892 H         1 UNK         0.0849 
     69 H69        15.1383  -30.4219  -45.7060 H         1 UNK         0.0865 
     70 H70        15.6251  -30.3432  -47.3779 H         1 UNK         0.0865 
     71 H71        17.0778  -30.8846  -44.4433 H         1 UNK         0.1346 
     72 H72        20.8117  -28.9351  -45.2481 H         1 UNK         0.1412 
     73 H73        17.3589  -28.0199  -47.6125 H         1 UNK         0.1426 
     74 H74        19.5683  -27.2835  -48.3250 H         1 UNK         0.0716 
     75 H75        21.0048  -27.7070  -47.4373 H         1 UNK         0.0716 
     76 H76        21.9271  -25.1533  -45.2997 H         1 UNK         0.0695 
     77 H77        21.6470  -26.8612  -45.2794 H         1 UNK         0.0695 
     78 H78        20.2745  -24.6847  -43.6351 H         1 UNK         0.0983 
     79 H79        19.0441  -27.1942  -44.3455 H         1 UNK         0.3095 
     80 H80        17.0278  -27.7420  -43.5743 H         1 UNK         0.0454 
     81 H81        17.3845  -27.7333  -40.5383 H         1 UNK         0.0851 
     82 H82        18.2244  -28.7816  -41.6683 H         1 UNK         0.0851 
     83 H83        16.4873  -28.9249  -41.4792 H         1 UNK         0.0851 
     84 H84        15.7953  -26.1134  -41.4094 H         1 UNK         0.2976 
     85 H85        20.5069  -27.8794  -42.4612 H         1 UNK         0.3116 
     86 H86        21.5549  -28.9712  -40.8815 H         1 UNK         0.0646 
     87 H87        21.2052  -27.0642  -39.3799 H         1 UNK         0.0847 
     88 H88        22.6911  -26.2946  -39.9233 H         1 UNK         0.0847 
     89 H89        22.7588  -27.8067  -39.0406 H         1 UNK         0.0847 
     90 H90        24.0286  -26.5640  -41.7584 H         1 UNK         0.3040 
     91 H91        26.1888  -26.6573  -42.2801 H         1 UNK         0.1015 
     92 H92        25.6077  -29.3281  -43.6833 H         1 UNK         0.0786 
     93 H93        26.8972  -28.1909  -44.0639 H         1 UNK         0.0786 
     94 H94        25.2323  -27.7525  -44.3696 H         1 UNK         0.0786 
     95 H95        28.0612  -28.7976  -42.5415 H         1 UNK         0.3172 
     96 H96        28.8268  -29.2233  -39.8212 H         1 UNK         0.0595 
     97 H97        29.8736  -30.5017  -42.4072 H         1 UNK         0.0839 
     98 H98        30.6781  -30.5506  -40.8455 H         1 UNK         0.0839 
     99 H99        30.4740  -29.0151  -41.6694 H         1 UNK         0.0839 
    100 H100       26.8309  -31.0918  -41.9790 H         1 UNK         0.2998 
    101 H101       27.0317  -33.6324  -40.5771 H         1 UNK         0.0822 
    102 H102       26.5039  -33.5048  -43.0126 H         1 UNK         0.0787 
    103 H103       25.1870  -34.2685  -42.1392 H         1 UNK         0.0787 
    104 H104       25.0302  -32.5983  -42.6653 H         1 UNK         0.0787 
    105 H105       25.3169  -30.6994  -39.9765 H         1 UNK         0.3055 
    106 H106       23.6469  -30.0217  -38.7027 H         1 UNK         0.1106 
    107 H107       24.1237  -32.5411  -37.0242 H         1 UNK         0.0828 
    108 H108       23.3216  -31.0709  -36.4927 H         1 UNK         0.0828 
    109 H109       25.0336  -31.0378  -36.8782 H         1 UNK         0.0828 
    110 H110       22.9376  -31.4640  -41.0181 H         1 UNK         0.2931 
    111 H111       21.3720  -32.4372  -42.1397 H         1 UNK         0.0412 
    112 H112       21.9010  -35.6704  -40.1279 H         1 UNK         0.3472 
    113 H113       22.8507  -34.2077  -40.0287 H         1 UNK         0.3472 
    114 H114       19.9257  -30.6719  -40.6434 H         1 UNK         0.0970 
    115 H115       19.1569  -32.1199  -40.0953 H         1 UNK         0.0970 
    116 H116       20.4844  -31.3680  -44.0094 H         1 UNK         0.0612 
    117 H117       20.3047  -29.9722  -42.9758 H         1 UNK         0.0612 
@<TRIPOS>BOND
     1    1    2 1    
     2    1   62 1    
     3    1   63 1    
     4    1   64 1    
     5    2    3 2    
     6    2    4 am   BACKBONE|DICT|INTERRES
     7    4    5 1    
     8    4   65 1    
     9    5    6 1    
    10    5   25 1    
    11    5   66 1    
    12    6    7 1    
    13    6   67 1    
    14    6   68 1    
    15    7    8 1    
    16    8    9 1    
    17    8   69 1    
    18    8   70 1    
    19    9   10 ar   
    20    9   14 ar   
    21   10   11 ar   
    22   10   71 1    
    23   11   12 ar   
    24   11   61 1    
    25   12   13 ar   
    26   12   72 1    
    27   13   14 ar   
    28   13   15 1    
    29   14   73 1    
    30   15   16 1    
    31   15   74 1    
    32   15   75 1    
    33   16   17 1    
    34   17   18 1    
    35   17   76 1    
    36   17   77 1    
    37   18   19 1    
    38   18   27 1    
    39   18   78 1    
    40   19   20 am   BACKBONE|DICT|INTERRES
    41   19   79 1    
    42   20   21 2    
    43   20   22 1    
    44   22   23 1    
    45   22   24 1    
    46   22   80 1    
    47   23   81 1    
    48   23   82 1    
    49   23   83 1    
    50   24   25 am   BACKBONE|DICT|INTERRES
    51   24   84 1    
    52   25   26 2    
    53   27   28 2    
    54   27   29 am   BACKBONE|DICT|INTERRES
    55   29   30 1    
    56   29   85 1    
    57   30   31 1    
    58   30   32 1    
    59   30   86 1    
    60   31   87 1    
    61   31   88 1    
    62   31   89 1    
    63   32   33 2    
    64   32   34 am   BACKBONE|DICT|INTERRES
    65   34   35 1    
    66   34   90 1    
    67   35   36 1    
    68   35   37 1    
    69   35   91 1    
    70   36   92 1    
    71   36   93 1    
    72   36   94 1    
    73   37   38 2    
    74   37   39 am   BACKBONE|DICT|INTERRES
    75   39   40 1    
    76   39   95 1    
    77   40   41 1    
    78   40   42 1    
    79   40   96 1    
    80   41   97 1    
    81   41   98 1    
    82   41   99 1    
    83   42   43 2    
    84   42   44 am   BACKBONE|DICT|INTERRES
    85   44   45 1    
    86   44  100 1    
    87   45   46 1    
    88   45   47 1    
    89   45  101 1    
    90   46  102 1    
    91   46  103 1    
    92   46  104 1    
    93   47   48 2    
    94   47   49 am   BACKBONE|DICT|INTERRES
    95   49   50 1    
    96   49  105 1    
    97   50   51 1    
    98   50   52 1    
    99   50  106 1    
   100   51  107 1    
   101   51  108 1    
   102   51  109 1    
   103   52   53 2    
   104   52   54 am   BACKBONE|DICT|INTERRES
   105   54   55 1    
   106   54  110 1    
   107   55   56 1    
   108   55   59 1    
   109   55  111 1    
   110   56   57 am   BACKBONE|DICT|INTERRES
   111   56   58 2    
   112   57  112 1    
   113   57  113 1    
   114   59   60 1    
   115   59  114 1    
   116   59  115 1    
   117   60   61 1    
   118   61  116 1    
   119   61  117 1    
@<TRIPOS>SUBSTRUCTURE
     1 UNK         1 GROUP             0       ****    0 ROOT    
