@<TRIPOS>MOLECULE
3R8
117   119    1
SMALL
USER_CHARGES


@<TRIPOS>ATOM
      1 CA         15.1061  -28.8249  -44.9485 C.3       0 UNK        -0.2013 
      2 C          16.0971  -27.8240  -45.5202 C.2       0 UNK         0.4866 
      3 O          15.7052  -26.9185  -46.2559 O.2       0 UNK        -0.5176 
      4 N          17.3808  -27.9689  -45.1697 N.am      1 UNK        -0.4884 
      5 CA         18.4865  -27.1199  -45.6445 C.3       1 UNK         0.0853 
      6 C6         19.8436  -27.8763  -45.6277 C.3       10 UNK        -0.0849 
      7 S7         19.7778  -29.5172  -46.4218 S.3       10 UNK        -0.2776 
      8 C8         20.3074  -30.5992  -45.0542 C.3       10 UNK         0.0316 
      9 C9         19.3058  -30.6466  -43.9070 C.ar      10 UNK        -0.0863 
     10 C10        18.0670  -31.2644  -44.0931 C.ar      10 UNK        -0.1009 
     11 C11        17.1852  -31.4240  -43.0214 C.ar      10 UNK        -0.0712 
     12 C12        17.5325  -30.9207  -41.7637 C.ar      10 UNK        -0.0894 
     13 C13        18.7657  -30.2941  -41.5617 C.ar      10 UNK        -0.0745 
     14 C14        19.6469  -30.1566  -42.6405 C.ar      10 UNK        -0.0972 
     15 C15        19.1659  -29.8517  -40.1576 C.3       10 UNK         0.0209 
     16 S16        18.5233  -28.2018  -39.7372 S.3       10 UNK        -0.2568 
     17 C17        20.0526  -27.1983  -39.6529 C.3       10 UNK        -0.0983 
     18 CA         20.5600  -26.7662  -41.0527 C.3       3 UNK         0.0876 
     19 N          19.5109  -26.1606  -41.8796 N.am      3 UNK        -0.4424 
     20 C          18.9244  -24.9620  -41.7406 C.2       2 UNK         0.4918 
     21 O          19.2200  -24.1457  -40.8676 O.2       2 UNK        -0.4875 
     22 CA         17.8022  -24.6296  -42.7501 C.3       2 UNK         0.0481 
     23 CB         17.8833  -23.1749  -43.2583 C.3       2 UNK        -0.1831 
     24 N          17.7210  -25.5947  -43.8595 N.am      2 UNK        -0.4498 
     25 C          18.6207  -25.8088  -44.8350 C.2       1 UNK         0.5027 
     26 O          19.5911  -25.0771  -45.0346 O.2       1 UNK        -0.4969 
     27 C          21.8640  -25.9357  -41.0260 C.2       3 UNK         0.5005 
     28 O          22.5910  -25.9439  -40.0299 O.2       3 UNK        -0.5279 
     29 N          22.1389  -25.2368  -42.1376 N.am      4 UNK        -0.4463 
     30 CA         23.3483  -24.4492  -42.3693 C.3       4 UNK         0.0283 
     31 CB         23.1355  -23.5753  -43.6160 C.3       4 UNK        -0.1875 
     32 C          24.5849  -25.3443  -42.5475 C.2       4 UNK         0.4949 
     33 O          24.4556  -26.4941  -42.9730 O.2       4 UNK        -0.5039 
     34 N          25.7626  -24.7910  -42.2218 N.am      5 UNK        -0.4663 
     35 CA         27.0961  -25.4051  -42.3496 C.3       5 UNK         0.0242 
     36 CB         27.4713  -25.5566  -43.8397 C.3       5 UNK        -0.1982 
     37 C          27.2677  -26.7261  -41.5673 C.2       5 UNK         0.5017 
     38 O          28.1101  -27.5468  -41.9344 O.2       5 UNK        -0.5012 
     39 N          26.4569  -26.9065  -40.5131 N.am      6 UNK        -0.4439 
     40 CA         26.3319  -28.1049  -39.6753 C.3       6 UNK         0.0297 
     41 CB         27.6243  -28.3534  -38.8676 C.3       6 UNK        -0.2006 
     42 C          25.8542  -29.3576  -40.4430 C.2       6 UNK         0.4892 
     43 O          26.1585  -30.4762  -40.0231 O.2       6 UNK        -0.5089 
     44 N          25.1051  -29.1620  -41.5395 N.am      7 UNK        -0.4243 
     45 CA         24.4518  -30.2336  -42.2953 C.3       7 UNK         0.0196 
     46 CB         23.9885  -29.6778  -43.6513 C.3       7 UNK        -0.2007 
     47 C          23.2647  -30.8275  -41.5163 C.2       7 UNK         0.5020 
     48 O          22.7056  -30.1578  -40.6455 O.2       7 UNK        -0.5147 
     49 N          22.8823  -32.0597  -41.8649 N.am      8 UNK        -0.4734 
     50 CA         21.7759  -32.8017  -41.2588 C.3       8 UNK         0.0238 
     51 CB         22.3420  -33.8064  -40.2397 C.3       8 UNK        -0.1912 
     52 C          20.9683  -33.5164  -42.3500 C.2       8 UNK         0.5038 
     53 O          21.4633  -33.6777  -43.4690 O.2       8 UNK        -0.5046 
     54 N          19.7467  -33.9365  -41.9953 N.am      9 UNK        -0.4200 
     55 CA         18.7938  -34.6106  -42.8948 C.3       9 UNK         0.0839 
     56 C          19.1632  -36.0754  -43.2753 C.2       9 UNK         0.5513 
     57 N          20.1293  -36.7096  -42.6213 N.am      9 UNK        -0.7519 
     58 O          18.5643  -36.6465  -44.1828 O.2       9 UNK        -0.4960 
     59 C59        17.3311  -34.4984  -42.3631 C.3       10 UNK        -0.0876 
     60 S60        16.1651  -33.9419  -43.6558 S.3       10 UNK        -0.2414 
     61 C61        15.8838  -32.1941  -43.2067 C.3       10 UNK         0.0169 
     62 H62        14.9709  -29.6570  -45.6389 H         1 UNK         0.0903 
     63 H63        15.4476  -29.2185  -43.9916 H         1 UNK         0.0903 
     64 H64        14.1370  -28.3529  -44.7878 H         1 UNK         0.0903 
     65 H65        17.6540  -28.7571  -44.5968 H         1 UNK         0.3096 
     66 H66        18.2800  -26.8291  -46.6771 H         1 UNK         0.1121 
     67 H67        20.2111  -27.9877  -44.6063 H         1 UNK         0.0849 
     68 H68        20.6048  -27.2940  -46.1510 H         1 UNK         0.0849 
     69 H69        20.4481  -31.6107  -45.4389 H         1 UNK         0.0865 
     70 H70        21.2858  -30.2752  -44.7015 H         1 UNK         0.0865 
     71 H71        17.8104  -31.6704  -45.0624 H         1 UNK         0.1346 
     72 H72        16.8587  -31.0505  -40.9277 H         1 UNK         0.1412 
     73 H73        20.6205  -29.7167  -42.4834 H         1 UNK         0.1426 
     74 H74        20.2483  -29.8715  -40.0455 H         1 UNK         0.0716 
     75 H75        18.7826  -30.5669  -39.4283 H         1 UNK         0.0716 
     76 H76        20.8189  -27.7639  -39.1193 H         1 UNK         0.0695 
     77 H77        19.8440  -26.3186  -39.0417 H         1 UNK         0.0695 
     78 H78        20.8494  -27.6784  -41.5719 H         1 UNK         0.0983 
     79 H79        19.1471  -26.7540  -42.6083 H         1 UNK         0.3095 
     80 H80        16.8655  -24.7319  -42.2006 H         1 UNK         0.0454 
     81 H81        18.8455  -22.9550  -43.7212 H         1 UNK         0.0851 
     82 H82        17.7558  -22.4691  -42.4367 H         1 UNK         0.0851 
     83 H83        17.1020  -22.9643  -43.9883 H         1 UNK         0.0851 
     84 H84        16.9581  -26.2557  -43.8017 H         1 UNK         0.2976 
     85 H85        21.4926  -25.3011  -42.9111 H         1 UNK         0.3116 
     86 H86        23.5034  -23.8003  -41.5047 H         1 UNK         0.0646 
     87 H87        22.2779  -22.9128  -43.4957 H         1 UNK         0.0847 
     88 H88        24.0050  -22.9453  -43.8083 H         1 UNK         0.0847 
     89 H89        22.9684  -24.1800  -44.5087 H         1 UNK         0.0847 
     90 H90        25.7575  -23.8434  -41.8674 H         1 UNK         0.3040 
     91 H91        27.8023  -24.7037  -41.9020 H         1 UNK         0.1015 
     92 H92        26.8475  -26.2989  -44.3393 H         1 UNK         0.0786 
     93 H93        28.5086  -25.8735  -43.9550 H         1 UNK         0.0786 
     94 H94        27.3630  -24.6131  -44.3745 H         1 UNK         0.0786 
     95 H95        25.7930  -26.1695  -40.3168 H         1 UNK         0.3172 
     96 H96        25.5393  -27.8820  -38.9595 H         1 UNK         0.0595 
     97 H97        28.4511  -28.6593  -39.5092 H         1 UNK         0.0839 
     98 H98        27.4791  -29.1433  -38.1296 H         1 UNK         0.0839 
     99 H99        27.9325  -27.4599  -38.3248 H         1 UNK         0.0839 
    100 H100       24.8952  -28.2133  -41.8304 H         1 UNK         0.2998 
    101 H101       25.1852  -31.0236  -42.4710 H         1 UNK         0.0822 
    102 H102       23.6074  -30.4749  -44.2900 H         1 UNK         0.0787 
    103 H103       23.1968  -28.9363  -43.5346 H         1 UNK         0.0787 
    104 H104       24.8109  -29.2030  -44.1871 H         1 UNK         0.0787 
    105 H105       23.3170  -32.5178  -42.6560 H         1 UNK         0.3055 
    106 H106       21.1008  -32.1137  -40.7463 H         1 UNK         0.1106 
    107 H107       21.5454  -34.3641  -39.7461 H         1 UNK         0.0828 
    108 H108       23.0050  -34.5312  -40.7139 H         1 UNK         0.0828 
    109 H109       22.9085  -33.2981  -39.4591 H         1 UNK         0.0828 
    110 H110       19.4319  -33.7866  -41.0488 H         1 UNK         0.2931 
    111 H111       18.8547  -34.0584  -43.8348 H         1 UNK         0.0412 
    112 H112       20.3614  -37.6562  -42.8792 H         1 UNK         0.3472 
    113 H113       20.6315  -36.2510  -41.8787 H         1 UNK         0.3472 
    114 H114       16.9725  -35.4487  -41.9621 H         1 UNK         0.0970 
    115 H115       17.2662  -33.8065  -41.5228 H         1 UNK         0.0970 
    116 H116       15.2785  -32.1576  -42.2996 H         1 UNK         0.0612 
    117 H117       15.2921  -31.7227  -43.9917 H         1 UNK         0.0612 
@<TRIPOS>BOND
     1    1    2 1    
     2    1   62 1    
     3    1   63 1    
     4    1   64 1    
     5    2    3 2    
     6    2    4 am   BACKBONE|DICT|INTERRES
     7    4    5 1    
     8    4   65 1    
     9    5    6 1    
    10    5   25 1    
    11    5   66 1    
    12    6    7 1    
    13    6   67 1    
    14    6   68 1    
    15    7    8 1    
    16    8    9 1    
    17    8   69 1    
    18    8   70 1    
    19    9   10 ar   
    20    9   14 ar   
    21   10   11 ar   
    22   10   71 1    
    23   11   12 ar   
    24   11   61 1    
    25   12   13 ar   
    26   12   72 1    
    27   13   14 ar   
    28   13   15 1    
    29   14   73 1    
    30   15   16 1    
    31   15   74 1    
    32   15   75 1    
    33   16   17 1    
    34   17   18 1    
    35   17   76 1    
    36   17   77 1    
    37   18   19 1    
    38   18   27 1    
    39   18   78 1    
    40   19   20 am   BACKBONE|DICT|INTERRES
    41   19   79 1    
    42   20   21 2    
    43   20   22 1    
    44   22   23 1    
    45   22   24 1    
    46   22   80 1    
    47   23   81 1    
    48   23   82 1    
    49   23   83 1    
    50   24   25 am   BACKBONE|DICT|INTERRES
    51   24   84 1    
    52   25   26 2    
    53   27   28 2    
    54   27   29 am   BACKBONE|DICT|INTERRES
    55   29   30 1    
    56   29   85 1    
    57   30   31 1    
    58   30   32 1    
    59   30   86 1    
    60   31   87 1    
    61   31   88 1    
    62   31   89 1    
    63   32   33 2    
    64   32   34 am   BACKBONE|DICT|INTERRES
    65   34   35 1    
    66   34   90 1    
    67   35   36 1    
    68   35   37 1    
    69   35   91 1    
    70   36   92 1    
    71   36   93 1    
    72   36   94 1    
    73   37   38 2    
    74   37   39 am   BACKBONE|DICT|INTERRES
    75   39   40 1    
    76   39   95 1    
    77   40   41 1    
    78   40   42 1    
    79   40   96 1    
    80   41   97 1    
    81   41   98 1    
    82   41   99 1    
    83   42   43 2    
    84   42   44 am   BACKBONE|DICT|INTERRES
    85   44   45 1    
    86   44  100 1    
    87   45   46 1    
    88   45   47 1    
    89   45  101 1    
    90   46  102 1    
    91   46  103 1    
    92   46  104 1    
    93   47   48 2    
    94   47   49 am   BACKBONE|DICT|INTERRES
    95   49   50 1    
    96   49  105 1    
    97   50   51 1    
    98   50   52 1    
    99   50  106 1    
   100   51  107 1    
   101   51  108 1    
   102   51  109 1    
   103   52   53 2    
   104   52   54 am   BACKBONE|DICT|INTERRES
   105   54   55 1    
   106   54  110 1    
   107   55   56 1    
   108   55   59 1    
   109   55  111 1    
   110   56   57 am   BACKBONE|DICT|INTERRES
   111   56   58 2    
   112   57  112 1    
   113   57  113 1    
   114   59   60 1    
   115   59  114 1    
   116   59  115 1    
   117   60   61 1    
   118   61  116 1    
   119   61  117 1    
@<TRIPOS>SUBSTRUCTURE
     1 UNK         1 GROUP             0       ****    0 ROOT    
