@<TRIPOS>MOLECULE
3R8
117   119    1
SMALL
USER_CHARGES


@<TRIPOS>ATOM
      1 CA         16.2108  -25.2316  -49.1622 C.3       0 UNK        -0.2013 
      2 C          16.5677  -26.2616  -48.1006 C.2       0 UNK         0.4866 
      3 O          17.2447  -27.2427  -48.4080 O.2       0 UNK        -0.5176 
      4 N          16.1226  -26.0369  -46.8602 N.am      1 UNK        -0.4884 
      5 CA         16.3994  -26.8699  -45.6880 C.3       1 UNK         0.0853 
      6 C6         15.2379  -27.8582  -45.3775 C.3       10 UNK        -0.0849 
      7 S7         15.4254  -29.4200  -46.2975 S.3       10 UNK        -0.2776 
      8 C8         16.1053  -30.5344  -45.0172 C.3       10 UNK         0.0316 
      9 C9         17.4211  -30.0457  -44.4139 C.ar      10 UNK        -0.0863 
     10 C10        17.5731  -29.9715  -43.0254 C.ar      10 UNK        -0.1009 
     11 C11        18.7840  -29.5541  -42.4615 C.ar      10 UNK        -0.0712 
     12 C12        19.8418  -29.1901  -43.2984 C.ar      10 UNK        -0.0894 
     13 C13        19.6953  -29.2323  -44.6877 C.ar      10 UNK        -0.0745 
     14 C14        18.4937  -29.6881  -45.2369 C.ar      10 UNK        -0.0972 
     15 C15        20.8285  -28.7927  -45.6031 C.3       10 UNK         0.0209 
     16 S16        20.9070  -26.9764  -45.7650 S.3       10 UNK        -0.2568 
     17 C17        21.9079  -26.5044  -44.3106 C.3       10 UNK        -0.0983 
     18 CA         21.1929  -25.5406  -43.3253 C.3       3 UNK         0.0876 
     19 N          19.8351  -25.9851  -42.9902 N.am      3 UNK        -0.4424 
     20 C          18.9274  -25.2863  -42.2929 C.2       2 UNK         0.4918 
     21 O          19.1351  -24.1709  -41.8140 O.2       2 UNK        -0.4875 
     22 CA         17.5588  -25.9699  -42.1158 C.3       2 UNK         0.0481 
     23 CB         16.4866  -25.0508  -41.4920 C.3       2 UNK        -0.1831 
     24 N          17.0944  -26.5870  -43.3644 N.am      2 UNK        -0.4498 
     25 C          16.7263  -25.9586  -44.4922 C.2       1 UNK         0.5027 
     26 O          16.6502  -24.7323  -44.6118 O.2       1 UNK        -0.4969 
     27 C          22.0835  -25.3365  -42.0811 C.2       3 UNK         0.5005 
     28 O          22.9816  -24.4937  -42.1127 O.2       3 UNK        -0.5279 
     29 N          21.8426  -26.1407  -41.0313 N.am      4 UNK        -0.4463 
     30 CA         22.5462  -26.2308  -39.7424 C.3       4 UNK         0.0283 
     31 CB         22.4862  -24.9023  -38.9641 C.3       4 UNK        -0.1875 
     32 C          23.9902  -26.7514  -39.8522 C.2       4 UNK         0.4949 
     33 O          24.3357  -27.7225  -39.1797 O.2       4 UNK        -0.5039 
     34 N          24.7930  -26.1341  -40.7282 N.am      5 UNK        -0.4663 
     35 CA         26.1976  -26.4625  -41.0017 C.3       5 UNK         0.0242 
     36 CB         26.7856  -25.3899  -41.9326 C.3       5 UNK        -0.1982 
     37 C          26.4173  -27.8674  -41.5934 C.2       5 UNK         0.5017 
     38 O          27.5281  -28.3908  -41.5046 O.2       5 UNK        -0.5012 
     39 N          25.3575  -28.4561  -42.1661 N.am      6 UNK        -0.4439 
     40 CA         25.3171  -29.8353  -42.6568 C.3       6 UNK         0.0297 
     41 CB         24.0279  -30.0438  -43.4677 C.3       6 UNK        -0.2006 
     42 C          25.4196  -30.8903  -41.5391 C.2       6 UNK         0.4892 
     43 O          25.8415  -32.0115  -41.8249 O.2       6 UNK        -0.5089 
     44 N          25.0264  -30.5227  -40.3077 N.am      7 UNK        -0.4243 
     45 CA         25.0356  -31.2970  -39.0577 C.3       7 UNK         0.0196 
     46 CB         26.4709  -31.6806  -38.6476 C.3       7 UNK        -0.2007 
     47 C          24.1054  -32.5239  -39.0441 C.2       7 UNK         0.5020 
     48 O          23.2918  -32.6526  -38.1295 O.2       7 UNK        -0.5147 
     49 N          24.2425  -33.4052  -40.0410 N.am      8 UNK        -0.4734 
     50 CA         23.4348  -34.6148  -40.2146 C.3       8 UNK         0.0238 
     51 CB         24.1538  -35.5714  -41.1795 C.3       8 UNK        -0.1912 
     52 C          22.0116  -34.3143  -40.7122 C.2       8 UNK         0.5038 
     53 O          21.0859  -35.0359  -40.3377 O.2       8 UNK        -0.5046 
     54 N          21.8731  -33.2551  -41.5242 N.am      9 UNK        -0.4200 
     55 CA         20.6239  -32.7581  -42.1269 C.3       9 UNK         0.0839 
     56 C          19.9714  -33.7282  -43.1561 C.2       9 UNK         0.5513 
     57 N          18.9147  -33.2901  -43.8281 N.am      9 UNK        -0.7519 
     58 O          20.4237  -34.8467  -43.3919 O.2       9 UNK        -0.4960 
     59 C59        19.6216  -32.2443  -41.0506 C.3       10 UNK        -0.0876 
     60 S60        20.2000  -30.6712  -40.3282 S.3       10 UNK        -0.2414 
     61 C61        18.9483  -29.4997  -40.9465 C.3       10 UNK         0.0169 
     62 H62        15.6083  -24.4187  -48.7569 H         1 UNK         0.0903 
     63 H63        17.1172  -24.8022  -49.5881 H         1 UNK         0.0903 
     64 H64        15.6463  -25.7028  -49.9665 H         1 UNK         0.0903 
     65 H65        15.6487  -25.1690  -46.6440 H         1 UNK         0.3096 
     66 H66        17.3213  -27.4217  -45.8718 H         1 UNK         0.1121 
     67 H67        15.1618  -28.1047  -44.3172 H         1 UNK         0.0849 
     68 H68        14.2754  -27.4126  -45.6348 H         1 UNK         0.0849 
     69 H69        15.3509  -30.6748  -44.2414 H         1 UNK         0.0865 
     70 H70        16.2699  -31.5168  -45.4617 H         1 UNK         0.0865 
     71 H71        16.7524  -30.2552  -42.3797 H         1 UNK         0.1346 
     72 H72        20.7792  -28.8801  -42.8606 H         1 UNK         0.1412 
     73 H73        18.3807  -29.7402  -46.3119 H         1 UNK         0.1426 
     74 H74        20.6872  -29.2168  -46.5985 H         1 UNK         0.0716 
     75 H75        21.7796  -29.1878  -45.2474 H         1 UNK         0.0716 
     76 H76        22.2414  -27.4070  -43.7979 H         1 UNK         0.0695 
     77 H77        22.8188  -26.0341  -44.6862 H         1 UNK         0.0695 
     78 H78        21.0963  -24.5679  -43.8127 H         1 UNK         0.0983 
     79 H79        19.5533  -26.8659  -43.3960 H         1 UNK         0.3095 
     80 H80        17.7173  -26.7903  -41.4160 H         1 UNK         0.0454 
     81 H81        16.7873  -24.7269  -40.4950 H         1 UNK         0.0851 
     82 H82        15.5319  -25.5663  -41.3898 H         1 UNK         0.0851 
     83 H83        16.3212  -24.1505  -42.0840 H         1 UNK         0.0851 
     84 H84        17.1268  -27.5984  -43.3792 H         1 UNK         0.2976 
     85 H85        21.0828  -26.7967  -41.1378 H         1 UNK         0.3116 
     86 H86        21.9936  -26.9700  -39.1597 H         1 UNK         0.0646 
     87 H87        23.0294  -24.1030  -39.4688 H         1 UNK         0.0847 
     88 H88        21.4569  -24.5708  -38.8271 H         1 UNK         0.0847 
     89 H89        22.9256  -25.0137  -37.9720 H         1 UNK         0.0847 
     90 H90        24.3846  -25.3661  -41.2584 H         1 UNK         0.3040 
     91 H91        26.7357  -26.4296  -40.0518 H         1 UNK         0.1015 
     92 H92        27.8390  -25.5845  -42.1397 H         1 UNK         0.0786 
     93 H93        26.7236  -24.3982  -41.4839 H         1 UNK         0.0786 
     94 H94        26.2642  -25.3580  -42.8902 H         1 UNK         0.0786 
     95 H95        24.4982  -27.9292  -42.1987 H         1 UNK         0.3172 
     96 H96        26.1696  -29.9800  -43.3237 H         1 UNK         0.0595 
     97 H97        23.1350  -29.8949  -42.8593 H         1 UNK         0.0839 
     98 H98        23.9805  -31.0557  -43.8730 H         1 UNK         0.0839 
     99 H99        23.9830  -29.3585  -44.3140 H         1 UNK         0.0839 
    100 H100       24.6995  -29.5696  -40.1930 H         1 UNK         0.2998 
    101 H101       24.6551  -30.6135  -38.2964 H         1 UNK         0.0822 
    102 H102       26.4781  -32.1784  -37.6771 H         1 UNK         0.0787 
    103 H103       27.1059  -30.7984  -38.5645 H         1 UNK         0.0787 
    104 H104       26.9350  -32.3598  -39.3633 H         1 UNK         0.0787 
    105 H105       24.9286  -33.1845  -40.7609 H         1 UNK         0.3055 
    106 H106       23.3448  -35.1096  -39.2447 H         1 UNK         0.1106 
    107 H107       25.1341  -35.8571  -40.7975 H         1 UNK         0.0828 
    108 H108       23.5805  -36.4893  -41.3179 H         1 UNK         0.0828 
    109 H109       24.2945  -35.1232  -42.1639 H         1 UNK         0.0828 
    110 H110       22.7081  -32.7469  -41.7704 H         1 UNK         0.2931 
    111 H111       20.9352  -31.9057  -42.7326 H         1 UNK         0.0412 
    112 H112       18.4870  -33.8951  -44.5114 H         1 UNK         0.3472 
    113 H113       18.5679  -32.3519  -43.6993 H         1 UNK         0.3472 
    114 H114       18.6211  -32.1021  -41.4582 H         1 UNK         0.0970 
    115 H115       19.4924  -32.9715  -40.2487 H         1 UNK         0.0970 
    116 H116       19.2414  -28.4925  -40.6498 H         1 UNK         0.0612 
    117 H117       18.0004  -29.7036  -40.4460 H         1 UNK         0.0612 
@<TRIPOS>BOND
     1    1    2 1    
     2    1   62 1    
     3    1   63 1    
     4    1   64 1    
     5    2    3 2    
     6    2    4 am   BACKBONE|DICT|INTERRES
     7    4    5 1    
     8    4   65 1    
     9    5    6 1    
    10    5   25 1    
    11    5   66 1    
    12    6    7 1    
    13    6   67 1    
    14    6   68 1    
    15    7    8 1    
    16    8    9 1    
    17    8   69 1    
    18    8   70 1    
    19    9   10 ar   
    20    9   14 ar   
    21   10   11 ar   
    22   10   71 1    
    23   11   12 ar   
    24   11   61 1    
    25   12   13 ar   
    26   12   72 1    
    27   13   14 ar   
    28   13   15 1    
    29   14   73 1    
    30   15   16 1    
    31   15   74 1    
    32   15   75 1    
    33   16   17 1    
    34   17   18 1    
    35   17   76 1    
    36   17   77 1    
    37   18   19 1    
    38   18   27 1    
    39   18   78 1    
    40   19   20 am   BACKBONE|DICT|INTERRES
    41   19   79 1    
    42   20   21 2    
    43   20   22 1    
    44   22   23 1    
    45   22   24 1    
    46   22   80 1    
    47   23   81 1    
    48   23   82 1    
    49   23   83 1    
    50   24   25 am   BACKBONE|DICT|INTERRES
    51   24   84 1    
    52   25   26 2    
    53   27   28 2    
    54   27   29 am   BACKBONE|DICT|INTERRES
    55   29   30 1    
    56   29   85 1    
    57   30   31 1    
    58   30   32 1    
    59   30   86 1    
    60   31   87 1    
    61   31   88 1    
    62   31   89 1    
    63   32   33 2    
    64   32   34 am   BACKBONE|DICT|INTERRES
    65   34   35 1    
    66   34   90 1    
    67   35   36 1    
    68   35   37 1    
    69   35   91 1    
    70   36   92 1    
    71   36   93 1    
    72   36   94 1    
    73   37   38 2    
    74   37   39 am   BACKBONE|DICT|INTERRES
    75   39   40 1    
    76   39   95 1    
    77   40   41 1    
    78   40   42 1    
    79   40   96 1    
    80   41   97 1    
    81   41   98 1    
    82   41   99 1    
    83   42   43 2    
    84   42   44 am   BACKBONE|DICT|INTERRES
    85   44   45 1    
    86   44  100 1    
    87   45   46 1    
    88   45   47 1    
    89   45  101 1    
    90   46  102 1    
    91   46  103 1    
    92   46  104 1    
    93   47   48 2    
    94   47   49 am   BACKBONE|DICT|INTERRES
    95   49   50 1    
    96   49  105 1    
    97   50   51 1    
    98   50   52 1    
    99   50  106 1    
   100   51  107 1    
   101   51  108 1    
   102   51  109 1    
   103   52   53 2    
   104   52   54 am   BACKBONE|DICT|INTERRES
   105   54   55 1    
   106   54  110 1    
   107   55   56 1    
   108   55   59 1    
   109   55  111 1    
   110   56   57 am   BACKBONE|DICT|INTERRES
   111   56   58 2    
   112   57  112 1    
   113   57  113 1    
   114   59   60 1    
   115   59  114 1    
   116   59  115 1    
   117   60   61 1    
   118   61  116 1    
   119   61  117 1    
@<TRIPOS>SUBSTRUCTURE
     1 UNK         1 GROUP             0       ****    0 ROOT    
