@<TRIPOS>MOLECULE
3R8
117   119    1
SMALL
USER_CHARGES


@<TRIPOS>ATOM
      1 CA         15.5336  -24.7781  -43.5809 C.3       0 UNK        -0.2013 
      2 C          16.6337  -24.7834  -44.6300 C.2       0 UNK         0.4866 
      3 O          17.3900  -23.8171  -44.7235 O.2       0 UNK        -0.5176 
      4 N          16.7116  -25.8498  -45.4385 N.am      1 UNK        -0.4884 
      5 CA         17.6009  -25.9382  -46.6035 C.3       1 UNK         0.0853 
      6 C6         17.1058  -26.9951  -47.6304 C.3       10 UNK        -0.0849 
      7 S7         17.6494  -28.7255  -47.3967 S.3       10 UNK        -0.2776 
      8 C8         16.5325  -29.3573  -46.1004 C.3       10 UNK         0.0316 
      9 C9         17.2808  -29.6369  -44.8016 C.ar      10 UNK        -0.0863 
     10 C10        18.3565  -30.5287  -44.7998 C.ar      10 UNK        -0.1009 
     11 C11        19.0446  -30.8164  -43.6199 C.ar      10 UNK        -0.0712 
     12 C12        18.6487  -30.2100  -42.4249 C.ar      10 UNK        -0.0894 
     13 C13        17.5657  -29.3249  -42.4042 C.ar      10 UNK        -0.0745 
     14 C14        16.8838  -29.0466  -43.5974 C.ar      10 UNK        -0.0972 
     15 C15        17.0958  -28.7299  -41.0799 C.3       10 UNK         0.0209 
     16 S16        16.7669  -26.9398  -41.1785 S.3       10 UNK        -0.2568 
     17 C17        18.2388  -26.1385  -40.4561 C.3       10 UNK        -0.0983 
     18 CA         19.6186  -26.6359  -40.9533 C.3       3 UNK         0.0876 
     19 N          19.7346  -26.6330  -42.4145 N.am      3 UNK        -0.4424 
     20 C          20.7900  -27.1051  -43.0962 C.2       2 UNK         0.4918 
     21 O          21.7757  -27.6105  -42.5544 O.2       2 UNK        -0.4875 
     22 CA         20.7564  -26.9824  -44.6281 C.3       2 UNK         0.0481 
     23 CB         21.4001  -28.1961  -45.3253 C.3       2 UNK        -0.1831 
     24 N          19.3989  -26.7695  -45.1376 N.am      2 UNK        -0.4498 
     25 C          19.0965  -26.0592  -46.2333 C.2       1 UNK         0.5027 
     26 O          19.9362  -25.4945  -46.9371 O.2       1 UNK        -0.4969 
     27 C          20.7368  -25.7815  -40.3219 C.2       3 UNK         0.5005 
     28 O          21.0559  -24.7135  -40.8516 O.2       3 UNK        -0.5279 
     29 N          21.3290  -26.2797  -39.2277 N.am      4 UNK        -0.4463 
     30 CA         22.4919  -25.7523  -38.4933 C.3       4 UNK         0.0283 
     31 CB         22.2185  -24.3469  -37.9225 C.3       4 UNK        -0.1875 
     32 C          23.8183  -25.7814  -39.2806 C.2       4 UNK         0.4949 
     33 O          24.8470  -26.1242  -38.6989 O.2       4 UNK        -0.5039 
     34 N          23.7782  -25.4388  -40.5745 N.am      5 UNK        -0.4663 
     35 CA         24.9152  -25.4222  -41.4975 C.3       5 UNK         0.0242 
     36 CB         24.4822  -24.7762  -42.8239 C.3       5 UNK        -0.1982 
     37 C          25.5135  -26.8164  -41.7440 C.2       5 UNK         0.5017 
     38 O          26.7364  -26.9609  -41.7249 O.2       5 UNK        -0.5012 
     39 N          24.6446  -27.8122  -41.9518 N.am      6 UNK        -0.4439 
     40 CA         25.0019  -29.2159  -42.1388 C.3       6 UNK         0.0297 
     41 CB         25.4171  -29.4746  -43.6014 C.3       6 UNK        -0.2006 
     42 C          23.8191  -30.0780  -41.6846 C.2       6 UNK         0.4892 
     43 O          23.3234  -30.8968  -42.4574 O.2       6 UNK        -0.5089 
     44 N          23.3751  -29.8502  -40.4387 N.am      7 UNK        -0.4243 
     45 CA         22.1417  -30.3755  -39.8360 C.3       7 UNK         0.0196 
     46 CB         22.0470  -29.8791  -38.3843 C.3       7 UNK        -0.2007 
     47 C          21.9697  -31.9051  -39.8688 C.2       7 UNK         0.5020 
     48 O          20.8345  -32.3787  -39.8570 O.2       7 UNK        -0.5147 
     49 N          23.0842  -32.6466  -39.9096 N.am      8 UNK        -0.4734 
     50 CA         23.1100  -34.1063  -40.0411 C.3       8 UNK         0.0238 
     51 CB         24.4999  -34.6178  -39.6283 C.3       8 UNK        -0.1912 
     52 C          22.7470  -34.6117  -41.4517 C.2       8 UNK         0.5038 
     53 O          22.4816  -35.8054  -41.5999 O.2       8 UNK        -0.5046 
     54 N          22.7602  -33.7184  -42.4518 N.am      9 UNK        -0.4200 
     55 CA         22.4824  -33.9845  -43.8726 C.3       9 UNK         0.0839 
     56 C          23.5605  -34.8537  -44.5888 C.2       9 UNK         0.5513 
     57 N          24.7622  -34.9996  -44.0437 N.am      9 UNK        -0.7519 
     58 O          23.3198  -35.3808  -45.6716 O.2       9 UNK        -0.4960 
     59 C59        21.0322  -34.4938  -44.1380 C.3       10 UNK        -0.0876 
     60 S60        19.6602  -33.5006  -43.4411 S.3       10 UNK        -0.2414 
     61 C61        20.2160  -31.7821  -43.6511 C.3       10 UNK         0.0169 
     62 H62        14.7526  -24.0731  -43.8637 H         1 UNK         0.0903 
     63 H63        15.0778  -25.7606  -43.4613 H         1 UNK         0.0903 
     64 H64        15.9337  -24.4675  -42.6163 H         1 UNK         0.0903 
     65 H65        16.0583  -26.6092  -45.3213 H         1 UNK         0.3096 
     66 H66        17.5142  -24.9728  -47.1093 H         1 UNK         0.1121 
     67 H67        16.0183  -26.9685  -47.7161 H         1 UNK         0.0849 
     68 H68        17.4664  -26.7029  -48.6183 H         1 UNK         0.0849 
     69 H69        15.7023  -28.6687  -45.9415 H         1 UNK         0.0865 
     70 H70        16.0868  -30.2894  -46.4506 H         1 UNK         0.0865 
     71 H71        18.6600  -31.0025  -45.7235 H         1 UNK         0.1346 
     72 H72        19.1720  -30.4488  -41.5094 H         1 UNK         0.1412 
     73 H73        16.0297  -28.3841  -43.5790 H         1 UNK         0.1426 
     74 H74        17.8010  -28.9348  -40.2735 H         1 UNK         0.0716 
     75 H75        16.1675  -29.2293  -40.8001 H         1 UNK         0.0716 
     76 H76        18.1704  -26.2533  -39.3726 H         1 UNK         0.0695 
     77 H77        18.1347  -25.0683  -40.6482 H         1 UNK         0.0695 
     78 H78        19.7583  -27.6686  -40.6299 H         1 UNK         0.0983 
     79 H79        18.9950  -26.1668  -42.9157 H         1 UNK         0.3095 
     80 H80        21.3603  -26.1024  -44.8576 H         1 UNK         0.0454 
     81 H81        20.8583  -29.1151  -45.1074 H         1 UNK         0.0851 
     82 H82        22.4300  -28.3398  -44.9979 H         1 UNK         0.0851 
     83 H83        21.4216  -28.0693  -46.4075 H         1 UNK         0.0851 
     84 H84        18.6524  -27.2505  -44.6540 H         1 UNK         0.2976 
     85 H85        20.9809  -27.1600  -38.8754 H         1 UNK         0.3116 
     86 H86        22.6256  -26.4215  -37.6418 H         1 UNK         0.0646 
     87 H87        22.1055  -23.5987  -38.7073 H         1 UNK         0.0847 
     88 H88        23.0419  -24.0212  -37.2856 H         1 UNK         0.0847 
     89 H89        21.3144  -24.3340  -37.3140 H         1 UNK         0.0847 
     90 H90        22.8759  -25.1442  -40.9409 H         1 UNK         0.3040 
     91 H91        25.6965  -24.8028  -41.0514 H         1 UNK         0.1015 
     92 H92        23.6747  -25.3334  -43.3009 H         1 UNK         0.0786 
     93 H93        25.3136  -24.7368  -43.5290 H         1 UNK         0.0786 
     94 H94        24.1377  -23.7530  -42.6722 H         1 UNK         0.0786 
     95 H95        23.6471  -27.6075  -41.9834 H         1 UNK         0.3172 
     96 H96        25.8434  -29.4652  -41.4890 H         1 UNK         0.0595 
     97 H97        25.6832  -30.5214  -43.7527 H         1 UNK         0.0839 
     98 H98        26.2847  -28.8776  -43.8818 H         1 UNK         0.0839 
     99 H99        24.6096  -29.2390  -44.2948 H         1 UNK         0.0839 
    100 H100       23.8818  -29.1725  -39.8874 H         1 UNK         0.2998 
    101 H101       21.3130  -29.9479  -40.4032 H         1 UNK         0.0822 
    102 H102       21.0963  -30.1677  -37.9331 H         1 UNK         0.0787 
    103 H103       22.8406  -30.2996  -37.7653 H         1 UNK         0.0787 
    104 H104       22.1202  -28.7958  -38.3215 H         1 UNK         0.0787 
    105 H105       23.9739  -32.1691  -39.9098 H         1 UNK         0.3055 
    106 H106       22.3722  -34.5256  -39.3539 H         1 UNK         0.1106 
    107 H107       24.5482  -35.7064  -39.6825 H         1 UNK         0.0828 
    108 H108       25.2846  -34.2252  -40.2751 H         1 UNK         0.0828 
    109 H109       24.7374  -34.3371  -38.6022 H         1 UNK         0.0828 
    110 H110       22.9937  -32.7516  -42.2421 H         1 UNK         0.2931 
    111 H111       22.5821  -33.0150  -44.3585 H         1 UNK         0.0412 
    112 H112       24.9800  -34.5600  -43.1645 H         1 UNK         0.3472 
    113 H113       25.4567  -35.5545  -44.5186 H         1 UNK         0.3472 
    114 H114       20.8553  -34.5538  -45.2130 H         1 UNK         0.0970 
    115 H115       20.9217  -35.5144  -43.7688 H         1 UNK         0.0970 
    116 H116       20.9186  -31.5358  -42.8574 H         1 UNK         0.0612 
    117 H117       20.7480  -31.6733  -44.5966 H         1 UNK         0.0612 
@<TRIPOS>BOND
     1    1    2 1    
     2    1   62 1    
     3    1   63 1    
     4    1   64 1    
     5    2    3 2    
     6    2    4 am   BACKBONE|DICT|INTERRES
     7    4    5 1    
     8    4   65 1    
     9    5    6 1    
    10    5   25 1    
    11    5   66 1    
    12    6    7 1    
    13    6   67 1    
    14    6   68 1    
    15    7    8 1    
    16    8    9 1    
    17    8   69 1    
    18    8   70 1    
    19    9   10 ar   
    20    9   14 ar   
    21   10   11 ar   
    22   10   71 1    
    23   11   12 ar   
    24   11   61 1    
    25   12   13 ar   
    26   12   72 1    
    27   13   14 ar   
    28   13   15 1    
    29   14   73 1    
    30   15   16 1    
    31   15   74 1    
    32   15   75 1    
    33   16   17 1    
    34   17   18 1    
    35   17   76 1    
    36   17   77 1    
    37   18   19 1    
    38   18   27 1    
    39   18   78 1    
    40   19   20 am   BACKBONE|DICT|INTERRES
    41   19   79 1    
    42   20   21 2    
    43   20   22 1    
    44   22   23 1    
    45   22   24 1    
    46   22   80 1    
    47   23   81 1    
    48   23   82 1    
    49   23   83 1    
    50   24   25 am   BACKBONE|DICT|INTERRES
    51   24   84 1    
    52   25   26 2    
    53   27   28 2    
    54   27   29 am   BACKBONE|DICT|INTERRES
    55   29   30 1    
    56   29   85 1    
    57   30   31 1    
    58   30   32 1    
    59   30   86 1    
    60   31   87 1    
    61   31   88 1    
    62   31   89 1    
    63   32   33 2    
    64   32   34 am   BACKBONE|DICT|INTERRES
    65   34   35 1    
    66   34   90 1    
    67   35   36 1    
    68   35   37 1    
    69   35   91 1    
    70   36   92 1    
    71   36   93 1    
    72   36   94 1    
    73   37   38 2    
    74   37   39 am   BACKBONE|DICT|INTERRES
    75   39   40 1    
    76   39   95 1    
    77   40   41 1    
    78   40   42 1    
    79   40   96 1    
    80   41   97 1    
    81   41   98 1    
    82   41   99 1    
    83   42   43 2    
    84   42   44 am   BACKBONE|DICT|INTERRES
    85   44   45 1    
    86   44  100 1    
    87   45   46 1    
    88   45   47 1    
    89   45  101 1    
    90   46  102 1    
    91   46  103 1    
    92   46  104 1    
    93   47   48 2    
    94   47   49 am   BACKBONE|DICT|INTERRES
    95   49   50 1    
    96   49  105 1    
    97   50   51 1    
    98   50   52 1    
    99   50  106 1    
   100   51  107 1    
   101   51  108 1    
   102   51  109 1    
   103   52   53 2    
   104   52   54 am   BACKBONE|DICT|INTERRES
   105   54   55 1    
   106   54  110 1    
   107   55   56 1    
   108   55   59 1    
   109   55  111 1    
   110   56   57 am   BACKBONE|DICT|INTERRES
   111   56   58 2    
   112   57  112 1    
   113   57  113 1    
   114   59   60 1    
   115   59  114 1    
   116   59  115 1    
   117   60   61 1    
   118   61  116 1    
   119   61  117 1    
@<TRIPOS>SUBSTRUCTURE
     1 UNK         1 GROUP             0       ****    0 ROOT    
