@<TRIPOS>MOLECULE
3R8
117   119    1
SMALL
USER_CHARGES


@<TRIPOS>ATOM
      1 CA         16.4128  -24.7206  -47.5695 C.3       0 UNK        -0.2013 
      2 C          16.9735  -25.7239  -46.5731 C.2       0 UNK         0.4866 
      3 O          18.1812  -25.7356  -46.3323 O.2       0 UNK        -0.5176 
      4 N          16.1068  -26.5666  -45.9957 N.am      1 UNK        -0.4884 
      5 CA         16.4508  -27.5765  -44.9902 C.3       1 UNK         0.0853 
      6 C6         15.3503  -28.6639  -44.8648 C.3       10 UNK        -0.0849 
      7 S7         15.5795  -29.9571  -46.1322 S.3       10 UNK        -0.2776 
      8 C8         16.4149  -31.2753  -45.1800 C.3       10 UNK         0.0316 
      9 C9         17.6452  -30.7683  -44.4358 C.ar      10 UNK        -0.0863 
     10 C10        17.5970  -30.5710  -43.0527 C.ar      10 UNK        -0.1009 
     11 C11        18.7021  -30.0604  -42.3673 C.ar      10 UNK        -0.0712 
     12 C12        19.8741  -29.7691  -43.0716 C.ar      10 UNK        -0.0894 
     13 C13        19.9416  -29.9781  -44.4523 C.ar      10 UNK        -0.0745 
     14 C14        18.8227  -30.4752  -45.1291 C.ar      10 UNK        -0.0972 
     15 C15        21.2223  -29.6863  -45.2180 C.3       10 UNK         0.0209 
     16 S16        21.3507  -27.9331  -45.6823 S.3       10 UNK        -0.2568 
     17 C17        22.4426  -27.2770  -44.3750 C.3       10 UNK        -0.0983 
     18 CA         22.1045  -25.8042  -44.0111 C.3       3 UNK         0.0876 
     19 N          20.7278  -25.6446  -43.5150 N.am      3 UNK        -0.4424 
     20 C          20.1891  -26.1780  -42.4075 C.2       2 UNK         0.4918 
     21 O          20.8258  -26.7947  -41.5542 O.2       2 UNK        -0.4875 
     22 CA         18.6733  -26.0213  -42.2653 C.3       2 UNK         0.0481 
     23 CB         18.2673  -24.5505  -42.0508 C.3       2 UNK        -0.1831 
     24 N          18.0612  -26.5797  -43.4650 N.am      2 UNK        -0.4498 
     25 C          16.7792  -26.9100  -43.6399 C.2       1 UNK         0.5027 
     26 O          15.8873  -26.7042  -42.8143 O.2       1 UNK        -0.4969 
     27 C          23.2019  -25.1795  -43.1152 C.2       3 UNK         0.5005 
     28 O          24.3807  -25.2963  -43.4555 O.2       3 UNK        -0.5279 
     29 N          22.8237  -24.5427  -41.9950 N.am      4 UNK        -0.4463 
     30 CA         23.6472  -23.9298  -40.9390 C.3       4 UNK         0.0283 
     31 CB         24.5029  -22.7706  -41.4858 C.3       4 UNK        -0.1875 
     32 C          24.5097  -24.9306  -40.1456 C.2       4 UNK         0.4949 
     33 O          24.4967  -24.9018  -38.9156 O.2       4 UNK        -0.5039 
     34 N          25.2257  -25.8054  -40.8586 N.am      5 UNK        -0.4663 
     35 CA         26.0921  -26.8557  -40.3214 C.3       5 UNK         0.0242 
     36 CB         27.1991  -27.1398  -41.3518 C.3       5 UNK        -0.1982 
     37 C          25.3409  -28.1535  -39.9681 C.2       5 UNK         0.5017 
     38 O          25.9771  -29.0792  -39.4637 O.2       5 UNK        -0.5012 
     39 N          24.0294  -28.2170  -40.2582 N.am      6 UNK        -0.4439 
     40 CA         23.1374  -29.3744  -40.0825 C.3       6 UNK         0.0297 
     41 CB         22.9818  -29.7249  -38.5859 C.3       6 UNK        -0.2006 
     42 C          23.5565  -30.5879  -40.9402 C.2       6 UNK         0.4892 
     43 O          23.4255  -31.7339  -40.5047 O.2       6 UNK        -0.5089 
     44 N          24.0623  -30.3043  -42.1499 N.am      7 UNK        -0.4243 
     45 CA         24.7653  -31.2340  -43.0426 C.3       7 UNK         0.0196 
     46 CB         25.2637  -30.4565  -44.2731 C.3       7 UNK        -0.2007 
     47 C          23.9976  -32.4988  -43.4745 C.2       7 UNK         0.5020 
     48 O          24.6401  -33.4596  -43.8996 O.2       7 UNK        -0.5147 
     49 N          22.6642  -32.4949  -43.3622 N.am      8 UNK        -0.4734 
     50 CA         21.8051  -33.6453  -43.6517 C.3       8 UNK         0.0238 
     51 CB         21.2120  -33.5144  -45.0673 C.3       8 UNK        -0.1912 
     52 C          20.7325  -33.8412  -42.5666 C.2       8 UNK         0.5038 
     53 O          19.6714  -34.3928  -42.8642 O.2       8 UNK        -0.5046 
     54 N          21.0206  -33.4117  -41.3308 N.am      9 UNK        -0.4200 
     55 CA         20.1320  -33.5810  -40.1699 C.3       9 UNK         0.0839 
     56 C          20.8710  -33.8078  -38.8215 C.2       9 UNK         0.5513 
     57 N          22.1623  -33.5243  -38.6992 N.am      9 UNK        -0.7519 
     58 O          20.2614  -34.2854  -37.8678 O.2       9 UNK        -0.4960 
     59 C59        19.0416  -32.4792  -40.0820 C.3       10 UNK        -0.0876 
     60 S60        19.7371  -30.8031  -39.8867 S.3       10 UNK        -0.2414 
     61 C61        18.6072  -29.7808  -40.8742 C.3       10 UNK         0.0169 
     62 H62        15.3350  -24.8256  -47.6932 H         1 UNK         0.0903 
     63 H63        16.6187  -23.7045  -47.2340 H         1 UNK         0.0903 
     64 H64        16.8809  -24.8592  -48.5437 H         1 UNK         0.0903 
     65 H65        15.1258  -26.5001  -46.2271 H         1 UNK         0.3096 
     66 H66        17.3700  -28.0660  -45.3202 H         1 UNK         0.1121 
     67 H67        14.3550  -28.2288  -44.9690 H         1 UNK         0.0849 
     68 H68        15.3528  -29.1386  -43.8823 H         1 UNK         0.0849 
     69 H69        15.7008  -31.7183  -44.4839 H         1 UNK         0.0865 
     70 H70        16.7076  -32.0754  -45.8615 H         1 UNK         0.0865 
     71 H71        16.6871  -30.7908  -42.5112 H         1 UNK         0.1346 
     72 H72        20.7267  -29.3697  -42.5414 H         1 UNK         0.1412 
     73 H73        18.8632  -30.6266  -46.1994 H         1 UNK         0.1426 
     74 H74        21.2574  -30.2879  -46.1275 H         1 UNK         0.0716 
     75 H75        22.0887  -29.9866  -44.6304 H         1 UNK         0.0716 
     76 H76        23.4652  -27.3653  -44.7468 H         1 UNK         0.0695 
     77 H77        22.3864  -27.9101  -43.4891 H         1 UNK         0.0695 
     78 H78        22.1474  -25.2256  -44.9354 H         1 UNK         0.0983 
     79 H79        20.1166  -25.1334  -44.1374 H         1 UNK         0.3095 
     80 H80        18.3474  -26.6029  -41.4021 H         1 UNK         0.0454 
     81 H81        17.2002  -24.4596  -41.8480 H         1 UNK         0.0851 
     82 H82        18.4915  -23.9313  -42.9198 H         1 UNK         0.0851 
     83 H83        18.7918  -24.1213  -41.1962 H         1 UNK         0.0851 
     84 H84        18.7023  -26.7821  -44.2233 H         1 UNK         0.2976 
     85 H85        21.8324  -24.5529  -41.7995 H         1 UNK         0.3116 
     86 H86        22.9380  -23.5009  -40.2290 H         1 UNK         0.0646 
     87 H87        25.2531  -23.1132  -42.1990 H         1 UNK         0.0847 
     88 H88        23.8856  -22.0226  -41.9830 H         1 UNK         0.0847 
     89 H89        25.0342  -22.2663  -40.6777 H         1 UNK         0.0847 
     90 H90        25.1530  -25.7350  -41.8730 H         1 UNK         0.3040 
     91 H91        26.5603  -26.4948  -39.4028 H         1 UNK         0.1015 
     92 H92        27.9015  -27.8875  -40.9806 H         1 UNK         0.0786 
     93 H93        27.7750  -26.2407  -41.5722 H         1 UNK         0.0786 
     94 H94        26.7896  -27.5140  -42.2911 H         1 UNK         0.0786 
     95 H95        23.6025  -27.3886  -40.6495 H         1 UNK         0.3172 
     96 H96        22.1599  -29.0629  -40.4521 H         1 UNK         0.0595 
     97 H97        23.9156  -30.0803  -38.1502 H         1 UNK         0.0839 
     98 H98        22.2453  -30.5142  -38.4379 H         1 UNK         0.0839 
     99 H99        22.6481  -28.8620  -38.0101 H         1 UNK         0.0839 
    100 H100       24.1187  -29.3299  -42.4036 H         1 UNK         0.2998 
    101 H101       25.6412  -31.5848  -42.4928 H         1 UNK         0.0822 
    102 H102       25.8279  -31.1057  -44.9445 H         1 UNK         0.0787 
    103 H103       25.9279  -29.6409  -43.9862 H         1 UNK         0.0787 
    104 H104       24.4411  -30.0326  -44.8490 H         1 UNK         0.0787 
    105 H105       22.2098  -31.6769  -42.9824 H         1 UNK         0.3055 
    106 H106       22.4003  -34.5610  -43.6263 H         1 UNK         0.1106 
    107 H107       21.9912  -33.3628  -45.8142 H         1 UNK         0.0828 
    108 H108       20.6673  -34.4164  -45.3486 H         1 UNK         0.0828 
    109 H109       20.5139  -32.6825  -45.1339 H         1 UNK         0.0828 
    110 H110       21.9154  -32.9738  -41.1455 H         1 UNK         0.2931 
    111 H111       19.6010  -34.5234  -40.3198 H         1 UNK         0.0412 
    112 H112       22.6715  -33.0214  -39.4198 H         1 UNK         0.3472 
    113 H113       22.6121  -33.7046  -37.8160 H         1 UNK         0.3472 
    114 H114       18.4232  -32.5137  -40.9795 H         1 UNK         0.0970 
    115 H115       18.3625  -32.6744  -39.2503 H         1 UNK         0.0970 
    116 H116       17.5884  -29.9215  -40.5098 H         1 UNK         0.0612 
    117 H117       18.8553  -28.7356  -40.6943 H         1 UNK         0.0612 
@<TRIPOS>BOND
     1    1    2 1    
     2    1   62 1    
     3    1   63 1    
     4    1   64 1    
     5    2    3 2    
     6    2    4 am   BACKBONE|DICT|INTERRES
     7    4    5 1    
     8    4   65 1    
     9    5    6 1    
    10    5   25 1    
    11    5   66 1    
    12    6    7 1    
    13    6   67 1    
    14    6   68 1    
    15    7    8 1    
    16    8    9 1    
    17    8   69 1    
    18    8   70 1    
    19    9   10 ar   
    20    9   14 ar   
    21   10   11 ar   
    22   10   71 1    
    23   11   12 ar   
    24   11   61 1    
    25   12   13 ar   
    26   12   72 1    
    27   13   14 ar   
    28   13   15 1    
    29   14   73 1    
    30   15   16 1    
    31   15   74 1    
    32   15   75 1    
    33   16   17 1    
    34   17   18 1    
    35   17   76 1    
    36   17   77 1    
    37   18   19 1    
    38   18   27 1    
    39   18   78 1    
    40   19   20 am   BACKBONE|DICT|INTERRES
    41   19   79 1    
    42   20   21 2    
    43   20   22 1    
    44   22   23 1    
    45   22   24 1    
    46   22   80 1    
    47   23   81 1    
    48   23   82 1    
    49   23   83 1    
    50   24   25 am   BACKBONE|DICT|INTERRES
    51   24   84 1    
    52   25   26 2    
    53   27   28 2    
    54   27   29 am   BACKBONE|DICT|INTERRES
    55   29   30 1    
    56   29   85 1    
    57   30   31 1    
    58   30   32 1    
    59   30   86 1    
    60   31   87 1    
    61   31   88 1    
    62   31   89 1    
    63   32   33 2    
    64   32   34 am   BACKBONE|DICT|INTERRES
    65   34   35 1    
    66   34   90 1    
    67   35   36 1    
    68   35   37 1    
    69   35   91 1    
    70   36   92 1    
    71   36   93 1    
    72   36   94 1    
    73   37   38 2    
    74   37   39 am   BACKBONE|DICT|INTERRES
    75   39   40 1    
    76   39   95 1    
    77   40   41 1    
    78   40   42 1    
    79   40   96 1    
    80   41   97 1    
    81   41   98 1    
    82   41   99 1    
    83   42   43 2    
    84   42   44 am   BACKBONE|DICT|INTERRES
    85   44   45 1    
    86   44  100 1    
    87   45   46 1    
    88   45   47 1    
    89   45  101 1    
    90   46  102 1    
    91   46  103 1    
    92   46  104 1    
    93   47   48 2    
    94   47   49 am   BACKBONE|DICT|INTERRES
    95   49   50 1    
    96   49  105 1    
    97   50   51 1    
    98   50   52 1    
    99   50  106 1    
   100   51  107 1    
   101   51  108 1    
   102   51  109 1    
   103   52   53 2    
   104   52   54 am   BACKBONE|DICT|INTERRES
   105   54   55 1    
   106   54  110 1    
   107   55   56 1    
   108   55   59 1    
   109   55  111 1    
   110   56   57 am   BACKBONE|DICT|INTERRES
   111   56   58 2    
   112   57  112 1    
   113   57  113 1    
   114   59   60 1    
   115   59  114 1    
   116   59  115 1    
   117   60   61 1    
   118   61  116 1    
   119   61  117 1    
@<TRIPOS>SUBSTRUCTURE
     1 UNK         1 GROUP             0       ****    0 ROOT    
