@<TRIPOS>MOLECULE
3R8
117   119    1
SMALL
USER_CHARGES


@<TRIPOS>ATOM
      1 CA         20.5852  -25.3546  -49.5327 C.3       0 UNK        -0.2013 
      2 C          21.0627  -26.4456  -48.5864 C.2       0 UNK         0.4866 
      3 O          22.2685  -26.6199  -48.4110 O.2       0 UNK        -0.5176 
      4 N          20.1260  -27.1822  -47.9742 N.am      1 UNK        -0.4884 
      5 CA         20.3990  -28.2636  -47.0167 C.3       1 UNK         0.0853 
      6 C6         19.1974  -29.2311  -46.8970 C.3       10 UNK        -0.0849 
      7 S7         17.6233  -28.4336  -46.4236 S.3       10 UNK        -0.2776 
      8 C8         16.7674  -29.8174  -45.6065 C.3       10 UNK         0.0316 
      9 C9         17.0744  -29.8789  -44.1168 C.ar      10 UNK        -0.0863 
     10 C10        18.1563  -30.6237  -43.6371 C.ar      10 UNK        -0.1009 
     11 C11        18.4108  -30.7048  -42.2647 C.ar      10 UNK        -0.0712 
     12 C12        17.5634  -30.0469  -41.3672 C.ar      10 UNK        -0.0894 
     13 C13        16.4849  -29.2890  -41.8353 C.ar      10 UNK        -0.0745 
     14 C14        16.2492  -29.2073  -43.2108 C.ar      10 UNK        -0.0972 
     15 C15        15.5572  -28.5705  -40.8627 C.3       10 UNK         0.0209 
     16 S16        16.4113  -27.3187  -39.8495 S.3       10 UNK        -0.2568 
     17 C17        17.1792  -26.2386  -41.1068 C.3       10 UNK        -0.0983 
     18 CA         18.7182  -26.4210  -41.1493 C.3       3 UNK         0.0876 
     19 N          19.2686  -26.0873  -42.4677 N.am      3 UNK        -0.4424 
     20 C          20.5331  -26.3283  -42.8382 C.2       2 UNK         0.4918 
     21 O          21.3315  -26.9832  -42.1652 O.2       2 UNK        -0.4875 
     22 CA         20.9774  -25.6995  -44.1682 C.3       2 UNK         0.0481 
     23 CB         22.4918  -25.4159  -44.2024 C.3       2 UNK        -0.1831 
     24 N          20.5761  -26.4880  -45.3341 N.am      2 UNK        -0.4498 
     25 C          20.8829  -27.7604  -45.6374 C.2       1 UNK         0.5027 
     26 O          21.5336  -28.5211  -44.9165 O.2       1 UNK        -0.4969 
     27 C          19.4268  -25.6212  -40.0285 C.2       3 UNK         0.5005 
     28 O          20.0230  -24.5741  -40.2976 O.2       3 UNK        -0.5279 
     29 N          19.3846  -26.1500  -38.7976 N.am      4 UNK        -0.4463 
     30 CA         20.0790  -25.6990  -37.5794 C.3       4 UNK         0.0283 
     31 CB         19.7416  -24.2407  -37.2108 C.3       4 UNK        -0.1875 
     32 C          21.5997  -25.9387  -37.6194 C.2       4 UNK         0.4949 
     33 O          22.1500  -26.4476  -36.6430 O.2       4 UNK        -0.5039 
     34 N          22.2435  -25.6258  -38.7524 N.am      5 UNK        -0.4663 
     35 CA         23.6126  -26.0418  -39.0758 C.3       5 UNK         0.0242 
     36 CB         24.1082  -25.2646  -40.3056 C.3       5 UNK        -0.1982 
     37 C          23.7014  -27.5593  -39.3215 C.2       5 UNK         0.5017 
     38 O          24.6863  -28.1821  -38.9249 O.2       5 UNK        -0.5012 
     39 N          22.6490  -28.1099  -39.9457 N.am      6 UNK        -0.4439 
     40 CA         22.4050  -29.5195  -40.2555 C.3       6 UNK         0.0297 
     41 CB         22.2745  -30.3480  -38.9598 C.3       6 UNK        -0.2006 
     42 C          23.4230  -30.0985  -41.2540 C.2       6 UNK         0.4892 
     43 O          23.8418  -31.2476  -41.1036 O.2       6 UNK        -0.5089 
     44 N          23.8007  -29.2911  -42.2568 N.am      7 UNK        -0.4243 
     45 CA         24.8741  -29.5890  -43.2113 C.3       7 UNK         0.0196 
     46 CB         25.1314  -28.3693  -44.1096 C.3       7 UNK        -0.2007 
     47 C          24.6232  -30.8431  -44.0627 C.2       7 UNK         0.5020 
     48 O          25.5436  -31.6406  -44.2439 O.2       7 UNK        -0.5147 
     49 N          23.3889  -31.0054  -44.5580 N.am      8 UNK        -0.4734 
     50 CA         22.9840  -32.1814  -45.3361 C.3       8 UNK         0.0238 
     51 CB         21.7162  -31.8528  -46.1346 C.3       8 UNK        -0.1912 
     52 C          22.7462  -33.4328  -44.4743 C.2       8 UNK         0.5038 
     53 O          22.9075  -34.5450  -44.9787 O.2       8 UNK        -0.5046 
     54 N          22.3388  -33.2333  -43.2153 N.am      9 UNK        -0.4200 
     55 CA         22.0159  -34.3101  -42.2684 C.3       9 UNK         0.0839 
     56 C          23.2755  -34.9148  -41.5930 C.2       9 UNK         0.5513 
     57 N          24.2994  -34.1240  -41.2962 N.am      9 UNK        -0.7519 
     58 O          23.3235  -36.1155  -41.3395 O.2       9 UNK        -0.4960 
     59 C59        20.9827  -33.8633  -41.2030 C.3       10 UNK        -0.0876 
     60 S60        19.4098  -33.2752  -41.9239 S.3       10 UNK        -0.2414 
     61 C61        19.6184  -31.4773  -41.7572 C.3       10 UNK         0.0169 
     62 H62        20.9422  -24.3821  -49.1947 H         1 UNK         0.0903 
     63 H63        20.9748  -25.5309  -50.5350 H         1 UNK         0.0903 
     64 H64        19.4978  -25.3143  -49.5943 H         1 UNK         0.0903 
     65 H65        19.1468  -27.0061  -48.1562 H         1 UNK         0.3096 
     66 H66        21.2340  -28.8389  -47.4218 H         1 UNK         0.1121 
     67 H67        19.4269  -30.0236  -46.1882 H         1 UNK         0.0849 
     68 H68        19.0409  -29.7337  -47.8528 H         1 UNK         0.0849 
     69 H69        15.6932  -29.6959  -45.7549 H         1 UNK         0.0865 
     70 H70        17.0273  -30.7605  -46.0902 H         1 UNK         0.0865 
     71 H71        18.7993  -31.1518  -44.3256 H         1 UNK         0.1346 
     72 H72        17.7481  -30.1104  -40.3035 H         1 UNK         0.1412 
     73 H73        15.4134  -28.6282  -43.5796 H         1 UNK         0.1426 
     74 H74        15.1004  -29.3067  -40.2000 H         1 UNK         0.0716 
     75 H75        14.7356  -28.0868  -41.3934 H         1 UNK         0.0716 
     76 H76        16.7402  -26.4750  -42.0772 H         1 UNK         0.0695 
     77 H77        16.9039  -25.2011  -40.9068 H         1 UNK         0.0695 
     78 H78        18.9481  -27.4777  -40.9943 H         1 UNK         0.0983 
     79 H79        18.6844  -25.5260  -43.0688 H         1 UNK         0.3095 
     80 H80        20.4693  -24.7382  -44.2590 H         1 UNK         0.0454 
     81 H81        22.7752  -24.7290  -43.4047 H         1 UNK         0.0851 
     82 H82        23.0765  -26.3243  -44.0712 H         1 UNK         0.0851 
     83 H83        22.7905  -24.9591  -45.1458 H         1 UNK         0.0851 
     84 H84        20.0139  -25.9963  -46.0140 H         1 UNK         0.2976 
     85 H85        18.8493  -27.0010  -38.6832 H         1 UNK         0.3116 
     86 H86        19.6874  -26.3287  -36.7786 H         1 UNK         0.0646 
     87 H87        20.1527  -23.9860  -36.2332 H         1 UNK         0.0847 
     88 H88        18.6644  -24.0831  -37.1603 H         1 UNK         0.0847 
     89 H89        20.1527  -23.5272  -37.9251 H         1 UNK         0.0847 
     90 H90        21.7003  -25.1782  -39.4857 H         1 UNK         0.3040 
     91 H91        24.2575  -25.8008  -38.2276 H         1 UNK         0.1015 
     92 H92        24.1033  -24.1897  -40.1239 H         1 UNK         0.0786 
     93 H93        23.4900  -25.4595  -41.1820 H         1 UNK         0.0786 
     94 H94        25.1313  -25.5463  -40.5587 H         1 UNK         0.0786 
     95 H95        21.9731  -27.4718  -40.3526 H         1 UNK         0.3172 
     96 H96        21.4409  -29.5367  -40.7618 H         1 UNK         0.0595 
     97 H97        21.5363  -29.9149  -38.2848 H         1 UNK         0.0839 
     98 H98        23.2220  -30.4110  -38.4238 H         1 UNK         0.0839 
     99 H99        21.9583  -31.3681  -39.1707 H         1 UNK         0.0839 
    100 H100       23.3480  -28.3898  -42.3372 H         1 UNK         0.2998 
    101 H101       25.7773  -29.7699  -42.6245 H         1 UNK         0.0822 
    102 H102       25.9999  -28.5362  -44.7482 H         1 UNK         0.0787 
    103 H103       24.2847  -28.1677  -44.7662 H         1 UNK         0.0787 
    104 H104       25.3298  -27.4728  -43.5220 H         1 UNK         0.0787 
    105 H105       22.7047  -30.2679  -44.4214 H         1 UNK         0.3055 
    106 H106       23.7796  -32.4208  -46.0459 H         1 UNK         0.1106 
    107 H107       21.8808  -31.0137  -46.8084 H         1 UNK         0.0828 
    108 H108       21.4064  -32.7017  -46.7460 H         1 UNK         0.0828 
    109 H109       20.8872  -31.6090  -45.4715 H         1 UNK         0.0828 
    110 H110       22.3030  -32.2903  -42.8620 H         1 UNK         0.2931 
    111 H111       21.5487  -35.1191  -42.8344 H         1 UNK         0.0412 
    112 H112       25.1191  -34.5180  -40.8632 H         1 UNK         0.3472 
    113 H113       24.2292  -33.1183  -41.4224 H         1 UNK         0.3472 
    114 H114       21.4081  -33.0923  -40.5610 H         1 UNK         0.0970 
    115 H115       20.7425  -34.6989  -40.5427 H         1 UNK         0.0970 
    116 H116       19.8025  -31.2427  -40.7081 H         1 UNK         0.0612 
    117 H117       20.5016  -31.1622  -42.3137 H         1 UNK         0.0612 
@<TRIPOS>BOND
     1    1    2 1    
     2    1   62 1    
     3    1   63 1    
     4    1   64 1    
     5    2    3 2    
     6    2    4 am   BACKBONE|DICT|INTERRES
     7    4    5 1    
     8    4   65 1    
     9    5    6 1    
    10    5   25 1    
    11    5   66 1    
    12    6    7 1    
    13    6   67 1    
    14    6   68 1    
    15    7    8 1    
    16    8    9 1    
    17    8   69 1    
    18    8   70 1    
    19    9   10 ar   
    20    9   14 ar   
    21   10   11 ar   
    22   10   71 1    
    23   11   12 ar   
    24   11   61 1    
    25   12   13 ar   
    26   12   72 1    
    27   13   14 ar   
    28   13   15 1    
    29   14   73 1    
    30   15   16 1    
    31   15   74 1    
    32   15   75 1    
    33   16   17 1    
    34   17   18 1    
    35   17   76 1    
    36   17   77 1    
    37   18   19 1    
    38   18   27 1    
    39   18   78 1    
    40   19   20 am   BACKBONE|DICT|INTERRES
    41   19   79 1    
    42   20   21 2    
    43   20   22 1    
    44   22   23 1    
    45   22   24 1    
    46   22   80 1    
    47   23   81 1    
    48   23   82 1    
    49   23   83 1    
    50   24   25 am   BACKBONE|DICT|INTERRES
    51   24   84 1    
    52   25   26 2    
    53   27   28 2    
    54   27   29 am   BACKBONE|DICT|INTERRES
    55   29   30 1    
    56   29   85 1    
    57   30   31 1    
    58   30   32 1    
    59   30   86 1    
    60   31   87 1    
    61   31   88 1    
    62   31   89 1    
    63   32   33 2    
    64   32   34 am   BACKBONE|DICT|INTERRES
    65   34   35 1    
    66   34   90 1    
    67   35   36 1    
    68   35   37 1    
    69   35   91 1    
    70   36   92 1    
    71   36   93 1    
    72   36   94 1    
    73   37   38 2    
    74   37   39 am   BACKBONE|DICT|INTERRES
    75   39   40 1    
    76   39   95 1    
    77   40   41 1    
    78   40   42 1    
    79   40   96 1    
    80   41   97 1    
    81   41   98 1    
    82   41   99 1    
    83   42   43 2    
    84   42   44 am   BACKBONE|DICT|INTERRES
    85   44   45 1    
    86   44  100 1    
    87   45   46 1    
    88   45   47 1    
    89   45  101 1    
    90   46  102 1    
    91   46  103 1    
    92   46  104 1    
    93   47   48 2    
    94   47   49 am   BACKBONE|DICT|INTERRES
    95   49   50 1    
    96   49  105 1    
    97   50   51 1    
    98   50   52 1    
    99   50  106 1    
   100   51  107 1    
   101   51  108 1    
   102   51  109 1    
   103   52   53 2    
   104   52   54 am   BACKBONE|DICT|INTERRES
   105   54   55 1    
   106   54  110 1    
   107   55   56 1    
   108   55   59 1    
   109   55  111 1    
   110   56   57 am   BACKBONE|DICT|INTERRES
   111   56   58 2    
   112   57  112 1    
   113   57  113 1    
   114   59   60 1    
   115   59  114 1    
   116   59  115 1    
   117   60   61 1    
   118   61  116 1    
   119   61  117 1    
@<TRIPOS>SUBSTRUCTURE
     1 UNK         1 GROUP             0       ****    0 ROOT    
