@<TRIPOS>MOLECULE
3R8
117   119    1
SMALL
USER_CHARGES


@<TRIPOS>ATOM
      1 CA         15.3407  -23.7585  -39.6448 C.3       0 UNK        -0.2013 
      2 C          15.5566  -24.6896  -40.8292 C.2       0 UNK         0.4866 
      3 O          14.9480  -25.7587  -40.8731 O.2       0 UNK        -0.5176 
      4 N          16.4047  -24.2719  -41.7811 N.am      1 UNK        -0.4884 
      5 CA         16.8475  -24.9921  -42.9847 C.3       1 UNK         0.0853 
      6 C6         15.6804  -25.5631  -43.8377 C.3       10 UNK        -0.0849 
      7 S7         16.1631  -25.9923  -45.5493 S.3       10 UNK        -0.2776 
      8 C8         15.4331  -27.6520  -45.7415 C.3       10 UNK         0.0316 
      9 C9         16.3765  -28.7824  -45.3401 C.ar      10 UNK        -0.0863 
     10 C10        16.5089  -29.1631  -43.9997 C.ar      10 UNK        -0.1009 
     11 C11        17.2906  -30.2687  -43.6452 C.ar      10 UNK        -0.0712 
     12 C12        17.9377  -30.9988  -44.6458 C.ar      10 UNK        -0.0894 
     13 C13        17.8318  -30.6197  -45.9861 C.ar      10 UNK        -0.0745 
     14 C14        17.0562  -29.5065  -46.3262 C.ar      10 UNK        -0.0972 
     15 C15        18.5100  -31.4544  -47.0642 C.3       10 UNK         0.0209 
     16 S16        20.2958  -31.1179  -47.1818 S.3       10 UNK        -0.2568 
     17 C17        20.3123  -29.4922  -48.0172 C.3       10 UNK        -0.0983 
     18 CA         20.9717  -28.3605  -47.1900 C.3       3 UNK         0.0876 
     19 N          20.4088  -28.2642  -45.8390 N.am      3 UNK        -0.4424 
     20 C          20.4792  -27.1727  -45.0720 C.2       2 UNK         0.4918 
     21 O          20.9965  -26.1123  -45.4291 O.2       2 UNK        -0.4875 
     22 CA         19.8570  -27.2658  -43.6790 C.3       2 UNK         0.0481 
     23 CB         20.9294  -27.1397  -42.5828 C.3       2 UNK        -0.1831 
     24 N          18.8656  -26.2030  -43.5936 N.am      2 UNK        -0.4498 
     25 C          17.9138  -26.0622  -42.6662 C.2       1 UNK         0.5027 
     26 O          17.8443  -26.7365  -41.6375 O.2       1 UNK        -0.4969 
     27 C          22.5134  -28.4627  -47.1961 C.2       3 UNK         0.5005 
     28 O          23.1370  -28.0792  -48.1878 O.2       3 UNK        -0.5279 
     29 N          23.1018  -28.9580  -46.1008 N.am      4 UNK        -0.4463 
     30 CA         24.5368  -29.1075  -45.8846 C.3       4 UNK         0.0283 
     31 CB         25.0603  -30.3370  -46.6526 C.3       4 UNK        -0.1875 
     32 C          24.7913  -29.2569  -44.3803 C.2       4 UNK         0.4949 
     33 O          23.8488  -29.5110  -43.6261 O.2       4 UNK        -0.5039 
     34 N          26.0613  -29.1001  -43.9796 N.am      5 UNK        -0.4663 
     35 CA         26.6691  -29.3567  -42.6594 C.3       5 UNK         0.0242 
     36 CB         26.6184  -30.8610  -42.3356 C.3       5 UNK        -0.1982 
     37 C          26.1496  -28.5338  -41.4622 C.2       5 UNK         0.5017 
     38 O          26.8997  -28.3544  -40.5015 O.2       5 UNK        -0.5012 
     39 N          24.8996  -28.0611  -41.5213 N.am      6 UNK        -0.4439 
     40 CA         24.1428  -27.3001  -40.5204 C.3       6 UNK         0.0297 
     41 CB         24.8370  -25.9766  -40.1427 C.3       6 UNK        -0.2006 
     42 C          23.7688  -28.1251  -39.2789 C.2       6 UNK         0.4892 
     43 O          22.5816  -28.2325  -38.9709 O.2       6 UNK        -0.5089 
     44 N          24.7734  -28.6999  -38.6039 N.am      7 UNK        -0.4243 
     45 CA         24.6541  -29.5319  -37.4038 C.3       7 UNK         0.0196 
     46 CB         26.0628  -29.9099  -36.9152 C.3       7 UNK        -0.2007 
     47 C          23.7966  -30.7809  -37.6659 C.2       7 UNK         0.5020 
     48 O          24.2727  -31.7238  -38.3008 O.2       7 UNK        -0.5147 
     49 N          22.5268  -30.7245  -37.2354 N.am      8 UNK        -0.4734 
     50 CA         21.4599  -31.7114  -37.4718 C.3       8 UNK         0.0238 
     51 CB         21.7380  -33.0033  -36.6738 C.3       8 UNK        -0.1912 
     52 C          21.1922  -31.9898  -38.9683 C.2       8 UNK         0.5038 
     53 O          20.7293  -33.0796  -39.3105 O.2       8 UNK        -0.5046 
     54 N          21.5153  -31.0115  -39.8272 N.am      9 UNK        -0.4200 
     55 CA         21.5454  -31.1147  -41.2960 C.3       9 UNK         0.0839 
     56 C          22.5903  -32.1393  -41.8432 C.2       9 UNK         0.5513 
     57 N          23.5872  -32.5546  -41.0687 N.am      9 UNK        -0.7519 
     58 O          22.5035  -32.5663  -42.9917 O.2       9 UNK        -0.4960 
     59 C59        20.1406  -31.3110  -41.9356 C.3       10 UNK        -0.0876 
     60 S60        18.9022  -30.0931  -41.3771 S.3       10 UNK        -0.2414 
     61 C61        17.3913  -30.7055  -42.1886 C.3       10 UNK         0.0169 
     62 H62        14.2882  -23.4868  -39.5681 H         1 UNK         0.0903 
     63 H63        15.6321  -24.2558  -38.7200 H         1 UNK         0.0903 
     64 H64        15.9215  -22.8404  -39.7328 H         1 UNK         0.0903 
     65 H65        16.8638  -23.3815  -41.6436 H         1 UNK         0.3096 
     66 H66        17.3381  -24.2232  -43.5847 H         1 UNK         0.1121 
     67 H67        15.2339  -26.4285  -43.3477 H         1 UNK         0.0849 
     68 H68        14.8827  -24.8220  -43.9079 H         1 UNK         0.0849 
     69 H69        14.5036  -27.7227  -45.1746 H         1 UNK         0.0865 
     70 H70        15.1421  -27.7718  -46.7863 H         1 UNK         0.0865 
     71 H71        15.9850  -28.6150  -43.2292 H         1 UNK         0.1346 
     72 H72        18.5139  -31.8759  -44.3862 H         1 UNK         0.1412 
     73 H73        16.9501  -29.2259  -47.3654 H         1 UNK         0.1426 
     74 H74        18.3708  -32.5127  -46.8383 H         1 UNK         0.0716 
     75 H75        18.0410  -31.2922  -48.0360 H         1 UNK         0.0716 
     76 H76        19.2891  -29.2026  -48.2582 H         1 UNK         0.0695 
     77 H77        20.8086  -29.6060  -48.9830 H         1 UNK         0.0695 
     78 H78        20.7403  -27.4238  -47.7028 H         1 UNK         0.0983 
     79 H79        19.9322  -29.0891  -45.5007 H         1 UNK         0.3095 
     80 H80        19.3487  -28.2250  -43.5798 H         1 UNK         0.0454 
     81 H81        20.5061  -27.2761  -41.5877 H         1 UNK         0.0851 
     82 H82        21.4213  -26.1669  -42.6102 H         1 UNK         0.0851 
     83 H83        21.6982  -27.9021  -42.7102 H         1 UNK         0.0851 
     84 H84        18.8415  -25.6027  -44.4082 H         1 UNK         0.2976 
     85 H85        22.5362  -29.2306  -45.3062 H         1 UNK         0.3116 
     86 H86        25.0459  -28.2065  -46.2332 H         1 UNK         0.0646 
     87 H87        24.5615  -31.2518  -46.3294 H         1 UNK         0.0847 
     88 H88        24.9049  -30.2346  -47.7266 H         1 UNK         0.0847 
     89 H89        26.1306  -30.4766  -46.4969 H         1 UNK         0.0847 
     90 H90        26.7282  -28.8320  -44.6912 H         1 UNK         0.3040 
     91 H91        27.7207  -29.0831  -42.7636 H         1 UNK         0.1015 
     92 H92        25.5931  -31.2231  -42.2826 H         1 UNK         0.0786 
     93 H93        27.0903  -31.0770  -41.3758 H         1 UNK         0.0786 
     94 H94        27.1400  -31.4470  -43.0922 H         1 UNK         0.0786 
     95 H95        24.3611  -28.3855  -42.3231 H         1 UNK         0.3172 
     96 H96        23.2062  -27.0331  -41.0075 H         1 UNK         0.0595 
     97 H97        25.7832  -26.1360  -39.6253 H         1 UNK         0.0839 
     98 H98        24.2047  -25.3847  -39.4797 H         1 UNK         0.0839 
     99 H99        25.0369  -25.3696  -41.0256 H         1 UNK         0.0839 
    100 H100       25.7043  -28.5922  -38.9965 H         1 UNK         0.2998 
    101 H101       24.1763  -28.9329  -36.6258 H         1 UNK         0.0822 
    102 H102       26.0117  -30.5410  -36.0270 H         1 UNK         0.0787 
    103 H103       26.6202  -30.4597  -37.6752 H         1 UNK         0.0787 
    104 H104       26.6420  -29.0248  -36.6514 H         1 UNK         0.0787 
    105 H105       22.2280  -29.8718  -36.7801 H         1 UNK         0.3055 
    106 H106       20.5394  -31.2725  -37.0833 H         1 UNK         0.1106 
    107 H107       21.9100  -32.7897  -35.6190 H         1 UNK         0.0828 
    108 H108       20.8919  -33.6894  -36.7288 H         1 UNK         0.0828 
    109 H109       22.6111  -33.5335  -37.0558 H         1 UNK         0.0828 
    110 H110       21.8705  -30.1422  -39.4452 H         1 UNK         0.2931 
    111 H111       21.9130  -30.1450  -41.6323 H         1 UNK         0.0412 
    112 H112       23.6914  -32.2225  -40.1151 H         1 UNK         0.3472 
    113 H113       24.2456  -33.2204  -41.4387 H         1 UNK         0.3472 
    114 H114       20.2258  -31.2260  -43.0190 H         1 UNK         0.0970 
    115 H115       19.7654  -32.3151  -41.7315 H         1 UNK         0.0970 
    116 H116       17.3476  -31.7932  -42.1165 H         1 UNK         0.0612 
    117 H117       16.5306  -30.3325  -41.6315 H         1 UNK         0.0612 
@<TRIPOS>BOND
     1    1    2 1    
     2    1   62 1    
     3    1   63 1    
     4    1   64 1    
     5    2    3 2    
     6    2    4 am   BACKBONE|DICT|INTERRES
     7    4    5 1    
     8    4   65 1    
     9    5    6 1    
    10    5   25 1    
    11    5   66 1    
    12    6    7 1    
    13    6   67 1    
    14    6   68 1    
    15    7    8 1    
    16    8    9 1    
    17    8   69 1    
    18    8   70 1    
    19    9   10 ar   
    20    9   14 ar   
    21   10   11 ar   
    22   10   71 1    
    23   11   12 ar   
    24   11   61 1    
    25   12   13 ar   
    26   12   72 1    
    27   13   14 ar   
    28   13   15 1    
    29   14   73 1    
    30   15   16 1    
    31   15   74 1    
    32   15   75 1    
    33   16   17 1    
    34   17   18 1    
    35   17   76 1    
    36   17   77 1    
    37   18   19 1    
    38   18   27 1    
    39   18   78 1    
    40   19   20 am   BACKBONE|DICT|INTERRES
    41   19   79 1    
    42   20   21 2    
    43   20   22 1    
    44   22   23 1    
    45   22   24 1    
    46   22   80 1    
    47   23   81 1    
    48   23   82 1    
    49   23   83 1    
    50   24   25 am   BACKBONE|DICT|INTERRES
    51   24   84 1    
    52   25   26 2    
    53   27   28 2    
    54   27   29 am   BACKBONE|DICT|INTERRES
    55   29   30 1    
    56   29   85 1    
    57   30   31 1    
    58   30   32 1    
    59   30   86 1    
    60   31   87 1    
    61   31   88 1    
    62   31   89 1    
    63   32   33 2    
    64   32   34 am   BACKBONE|DICT|INTERRES
    65   34   35 1    
    66   34   90 1    
    67   35   36 1    
    68   35   37 1    
    69   35   91 1    
    70   36   92 1    
    71   36   93 1    
    72   36   94 1    
    73   37   38 2    
    74   37   39 am   BACKBONE|DICT|INTERRES
    75   39   40 1    
    76   39   95 1    
    77   40   41 1    
    78   40   42 1    
    79   40   96 1    
    80   41   97 1    
    81   41   98 1    
    82   41   99 1    
    83   42   43 2    
    84   42   44 am   BACKBONE|DICT|INTERRES
    85   44   45 1    
    86   44  100 1    
    87   45   46 1    
    88   45   47 1    
    89   45  101 1    
    90   46  102 1    
    91   46  103 1    
    92   46  104 1    
    93   47   48 2    
    94   47   49 am   BACKBONE|DICT|INTERRES
    95   49   50 1    
    96   49  105 1    
    97   50   51 1    
    98   50   52 1    
    99   50  106 1    
   100   51  107 1    
   101   51  108 1    
   102   51  109 1    
   103   52   53 2    
   104   52   54 am   BACKBONE|DICT|INTERRES
   105   54   55 1    
   106   54  110 1    
   107   55   56 1    
   108   55   59 1    
   109   55  111 1    
   110   56   57 am   BACKBONE|DICT|INTERRES
   111   56   58 2    
   112   57  112 1    
   113   57  113 1    
   114   59   60 1    
   115   59  114 1    
   116   59  115 1    
   117   60   61 1    
   118   61  116 1    
   119   61  117 1    
@<TRIPOS>SUBSTRUCTURE
     1 UNK         1 GROUP             0       ****    0 ROOT    
