@<TRIPOS>MOLECULE
3R8
117   119    1
SMALL
USER_CHARGES


@<TRIPOS>ATOM
      1 CA         20.8095  -30.0555  -45.7034 C.3       0 UNK        -0.2013 
      2 C          20.8702  -29.0360  -46.8361 C.2       0 UNK         0.4866 
      3 O          21.7572  -29.1259  -47.6820 O.2       0 UNK        -0.5176 
      4 N          19.9673  -28.0490  -46.9027 N.am      1 UNK        -0.4884 
      5 CA         18.8656  -27.7826  -45.9658 C.3       1 UNK         0.0853 
      6 C6         17.4800  -27.9034  -46.6506 C.3       10 UNK        -0.0849 
      7 S7         17.0588  -29.6391  -47.0334 S.3       10 UNK        -0.2776 
      8 C8         15.7455  -29.9927  -45.8155 C.3       10 UNK         0.0316 
      9 C9         16.2954  -30.4618  -44.4724 C.ar      10 UNK        -0.0863 
     10 C10        16.1755  -31.8025  -44.0959 C.ar      10 UNK        -0.1009 
     11 C11        16.6238  -32.2351  -42.8446 C.ar      10 UNK        -0.0712 
     12 C12        17.2254  -31.3163  -41.9771 C.ar      10 UNK        -0.0894 
     13 C13        17.3718  -29.9735  -42.3413 C.ar      10 UNK        -0.0745 
     14 C14        16.8838  -29.5545  -43.5866 C.ar      10 UNK        -0.0972 
     15 C15        18.0890  -29.0186  -41.3833 C.3       10 UNK         0.0209 
     16 S16        17.5807  -27.2721  -41.5313 S.3       10 UNK        -0.2568 
     17 C17        18.7180  -26.4544  -40.3632 C.3       10 UNK        -0.0983 
     18 CA         20.1154  -26.1328  -40.9579 C.3       3 UNK         0.0876 
     19 N          20.0255  -25.4660  -42.2695 N.am      3 UNK        -0.4424 
     20 C          21.0481  -25.1616  -43.0801 C.2       2 UNK         0.4918 
     21 O          22.2304  -25.2734  -42.7569 O.2       2 UNK        -0.4875 
     22 CA         20.6893  -24.7093  -44.5053 C.3       2 UNK         0.0481 
     23 CB         21.8707  -24.0187  -45.2113 C.3       2 UNK        -0.1831 
     24 N          20.2773  -25.8734  -45.2903 N.am      2 UNK        -0.4498 
     25 C          19.0565  -26.4261  -45.2541 C.2       1 UNK         0.5027 
     26 O          18.1133  -25.9173  -44.6476 O.2       1 UNK        -0.4969 
     27 C          20.9830  -25.4051  -39.9034 C.2       3 UNK         0.5005 
     28 O          21.3703  -26.0260  -38.9130 O.2       3 UNK        -0.5279 
     29 N          21.2781  -24.1154  -40.1197 N.am      4 UNK        -0.4463 
     30 CA         22.2154  -23.3293  -39.3141 C.3       4 UNK         0.0283 
     31 CB         22.0124  -21.8366  -39.6205 C.3       4 UNK        -0.1875 
     32 C          23.6902  -23.7233  -39.5341 C.2       4 UNK         0.4949 
     33 O          24.5056  -23.4849  -38.6427 O.2       4 UNK        -0.5039 
     34 N          24.0102  -24.2935  -40.7043 N.am      5 UNK        -0.4663 
     35 CA         25.3592  -24.7084  -41.0981 C.3       5 UNK         0.0242 
     36 CB         25.7728  -23.9349  -42.3615 C.3       5 UNK        -0.1982 
     37 C          25.4444  -26.2217  -41.3467 C.2       5 UNK         0.5017 
     38 O          26.4380  -26.8380  -40.9587 O.2       5 UNK        -0.5012 
     39 N          24.4208  -26.7923  -41.9958 N.am      6 UNK        -0.4439 
     40 CA         24.3052  -28.2190  -42.2979 C.3       6 UNK         0.0297 
     41 CB         23.2226  -28.4157  -43.3729 C.3       6 UNK        -0.2006 
     42 C          23.9695  -29.0453  -41.0462 C.2       6 UNK         0.4892 
     43 O          23.3621  -28.5280  -40.1065 O.2       6 UNK        -0.5089 
     44 N          24.3329  -30.3297  -41.0846 N.am      7 UNK        -0.4243 
     45 CA         24.0384  -31.3235  -40.0571 C.3       7 UNK         0.0196 
     46 CB         25.2552  -31.4769  -39.1270 C.3       7 UNK        -0.2007 
     47 C          23.6955  -32.6500  -40.7431 C.2       7 UNK         0.5020 
     48 O          24.0556  -32.8487  -41.9071 O.2       7 UNK        -0.5147 
     49 N          22.9937  -33.5268  -40.0099 N.am      8 UNK        -0.4734 
     50 CA         22.5647  -34.8782  -40.4120 C.3       8 UNK         0.0238 
     51 CB         23.7865  -35.8176  -40.5049 C.3       8 UNK        -0.1912 
     52 C          21.6984  -34.9171  -41.6902 C.2       8 UNK         0.5038 
     53 O          21.6983  -35.9277  -42.3957 O.2       8 UNK        -0.5046 
     54 N          20.9910  -33.8119  -41.9658 N.am      9 UNK        -0.4200 
     55 CA         20.1913  -33.5648  -43.1784 C.3       9 UNK         0.0839 
     56 C          21.0343  -33.4765  -44.4879 C.2       9 UNK         0.5513 
     57 N          22.3416  -33.2455  -44.4203 N.am      9 UNK        -0.7519 
     58 O          20.4955  -33.5887  -45.5857 O.2       9 UNK        -0.4960 
     59 C59        18.9669  -34.5169  -43.3108 C.3       10 UNK        -0.0876 
     60 S60        17.9121  -34.5099  -41.8198 S.3       10 UNK        -0.2414 
     61 C61        16.4038  -33.6840  -42.4207 C.3       10 UNK         0.0169 
     62 H62        21.6440  -30.7519  -45.7783 H         1 UNK         0.0903 
     63 H63        20.8691  -29.5728  -44.7293 H         1 UNK         0.0903 
     64 H64        19.8870  -30.6342  -45.7559 H         1 UNK         0.0903 
     65 H65        20.0287  -27.4018  -47.6772 H         1 UNK         0.3096 
     66 H66        18.8838  -28.5007  -45.1483 H         1 UNK         0.1121 
     67 H67        17.4630  -27.3284  -47.5780 H         1 UNK         0.0849 
     68 H68        16.6851  -27.4821  -46.0335 H         1 UNK         0.0849 
     69 H69        15.1096  -29.1180  -45.6728 H         1 UNK         0.0865 
     70 H70        15.0937  -30.7592  -46.2378 H         1 UNK         0.0865 
     71 H71        15.7058  -32.5069  -44.7690 H         1 UNK         0.1346 
     72 H72        17.5808  -31.6526  -41.0126 H         1 UNK         0.1412 
     73 H73        16.9592  -28.5169  -43.8745 H         1 UNK         0.1426 
     74 H74        17.9249  -29.3352  -40.3520 H         1 UNK         0.0716 
     75 H75        19.1613  -29.0928  -41.5680 H         1 UNK         0.0716 
     76 H76        18.2314  -25.5350  -40.0318 H         1 UNK         0.0695 
     77 H77        18.8124  -27.0818  -39.4746 H         1 UNK         0.0695 
     78 H78        20.6219  -27.0830  -41.1400 H         1 UNK         0.0983 
     79 H79        19.0890  -25.3872  -42.6480 H         1 UNK         0.3095 
     80 H80        19.8684  -23.9919  -44.4421 H         1 UNK         0.0454 
     81 H81        21.5863  -23.6622  -46.2013 H         1 UNK         0.0851 
     82 H82        22.2127  -23.1532  -44.6422 H         1 UNK         0.0851 
     83 H83        22.7242  -24.6876  -45.3293 H         1 UNK         0.0851 
     84 H84        21.0051  -26.3637  -45.7910 H         1 UNK         0.2976 
     85 H85        20.9024  -23.6754  -40.9472 H         1 UNK         0.3116 
     86 H86        21.9838  -23.4947  -38.2596 H         1 UNK         0.0646 
     87 H87        22.2234  -21.6051  -40.6654 H         1 UNK         0.0847 
     88 H88        20.9917  -21.5208  -39.4041 H         1 UNK         0.0847 
     89 H89        22.6754  -21.2204  -39.0114 H         1 UNK         0.0847 
     90 H90        23.2675  -24.4853  -41.3696 H         1 UNK         0.3040 
     91 H91        26.0766  -24.4737  -40.3087 H         1 UNK         0.1015 
     92 H92        25.0879  -24.1178  -43.1907 H         1 UNK         0.0786 
     93 H93        26.7713  -24.2267  -42.6899 H         1 UNK         0.0786 
     94 H94        25.7936  -22.8609  -42.1766 H         1 UNK         0.0786 
     95 H95        23.6308  -26.2126  -42.2707 H         1 UNK         0.3172 
     96 H96        25.2617  -28.5618  -42.6987 H         1 UNK         0.0595 
     97 H97        23.4358  -27.8282  -44.2662 H         1 UNK         0.0839 
     98 H98        22.2361  -28.1264  -43.0087 H         1 UNK         0.0839 
     99 H99        23.1643  -29.4607  -43.6801 H         1 UNK         0.0839 
    100 H100       24.7508  -30.7110  -41.9246 H         1 UNK         0.2998 
    101 H101       23.1699  -31.0093  -39.4729 H         1 UNK         0.0822 
    102 H102       25.0626  -32.2103  -38.3429 H         1 UNK         0.0787 
    103 H103       26.1408  -31.8061  -39.6731 H         1 UNK         0.0787 
    104 H104       25.4972  -30.5342  -38.6351 H         1 UNK         0.0787 
    105 H105       22.7358  -33.2564  -39.0697 H         1 UNK         0.3055 
    106 H106       21.9229  -35.2505  -39.6116 H         1 UNK         0.1106 
    107 H107       24.3747  -35.7965  -39.5877 H         1 UNK         0.0828 
    108 H108       23.4778  -36.8516  -40.6639 H         1 UNK         0.0828 
    109 H109       24.4436  -35.5440  -41.3311 H         1 UNK         0.0828 
    110 H110       21.0616  -33.0371  -41.3243 H         1 UNK         0.2931 
    111 H111       19.7928  -32.5577  -43.0516 H         1 UNK         0.0412 
    112 H112       22.8740  -33.1910  -45.2735 H         1 UNK         0.3472 
    113 H113       22.8134  -33.1572  -43.5274 H         1 UNK         0.3472 
    114 H114       18.3606  -34.2390  -44.1748 H         1 UNK         0.0970 
    115 H115       19.2951  -35.5405  -43.4961 H         1 UNK         0.0970 
    116 H116       15.6593  -33.7016  -41.6239 H         1 UNK         0.0612 
    117 H117       15.9882  -34.2724  -43.2403 H         1 UNK         0.0612 
@<TRIPOS>BOND
     1    1    2 1    
     2    1   62 1    
     3    1   63 1    
     4    1   64 1    
     5    2    3 2    
     6    2    4 am   BACKBONE|DICT|INTERRES
     7    4    5 1    
     8    4   65 1    
     9    5    6 1    
    10    5   25 1    
    11    5   66 1    
    12    6    7 1    
    13    6   67 1    
    14    6   68 1    
    15    7    8 1    
    16    8    9 1    
    17    8   69 1    
    18    8   70 1    
    19    9   10 ar   
    20    9   14 ar   
    21   10   11 ar   
    22   10   71 1    
    23   11   12 ar   
    24   11   61 1    
    25   12   13 ar   
    26   12   72 1    
    27   13   14 ar   
    28   13   15 1    
    29   14   73 1    
    30   15   16 1    
    31   15   74 1    
    32   15   75 1    
    33   16   17 1    
    34   17   18 1    
    35   17   76 1    
    36   17   77 1    
    37   18   19 1    
    38   18   27 1    
    39   18   78 1    
    40   19   20 am   BACKBONE|DICT|INTERRES
    41   19   79 1    
    42   20   21 2    
    43   20   22 1    
    44   22   23 1    
    45   22   24 1    
    46   22   80 1    
    47   23   81 1    
    48   23   82 1    
    49   23   83 1    
    50   24   25 am   BACKBONE|DICT|INTERRES
    51   24   84 1    
    52   25   26 2    
    53   27   28 2    
    54   27   29 am   BACKBONE|DICT|INTERRES
    55   29   30 1    
    56   29   85 1    
    57   30   31 1    
    58   30   32 1    
    59   30   86 1    
    60   31   87 1    
    61   31   88 1    
    62   31   89 1    
    63   32   33 2    
    64   32   34 am   BACKBONE|DICT|INTERRES
    65   34   35 1    
    66   34   90 1    
    67   35   36 1    
    68   35   37 1    
    69   35   91 1    
    70   36   92 1    
    71   36   93 1    
    72   36   94 1    
    73   37   38 2    
    74   37   39 am   BACKBONE|DICT|INTERRES
    75   39   40 1    
    76   39   95 1    
    77   40   41 1    
    78   40   42 1    
    79   40   96 1    
    80   41   97 1    
    81   41   98 1    
    82   41   99 1    
    83   42   43 2    
    84   42   44 am   BACKBONE|DICT|INTERRES
    85   44   45 1    
    86   44  100 1    
    87   45   46 1    
    88   45   47 1    
    89   45  101 1    
    90   46  102 1    
    91   46  103 1    
    92   46  104 1    
    93   47   48 2    
    94   47   49 am   BACKBONE|DICT|INTERRES
    95   49   50 1    
    96   49  105 1    
    97   50   51 1    
    98   50   52 1    
    99   50  106 1    
   100   51  107 1    
   101   51  108 1    
   102   51  109 1    
   103   52   53 2    
   104   52   54 am   BACKBONE|DICT|INTERRES
   105   54   55 1    
   106   54  110 1    
   107   55   56 1    
   108   55   59 1    
   109   55  111 1    
   110   56   57 am   BACKBONE|DICT|INTERRES
   111   56   58 2    
   112   57  112 1    
   113   57  113 1    
   114   59   60 1    
   115   59  114 1    
   116   59  115 1    
   117   60   61 1    
   118   61  116 1    
   119   61  117 1    
@<TRIPOS>SUBSTRUCTURE
     1 UNK         1 GROUP             0       ****    0 ROOT    
