@<TRIPOS>MOLECULE
3R8
117   119    1
SMALL
USER_CHARGES


@<TRIPOS>ATOM
      1 CA         16.0654  -25.3993  -48.6154 C.3       0 UNK        -0.2013 
      2 C          17.4897  -25.2724  -48.0955 C.2       0 UNK         0.4866 
      3 O          18.0415  -24.1712  -48.0826 O.2       0 UNK        -0.5176 
      4 N          18.0921  -26.3916  -47.6766 N.am      1 UNK        -0.4884 
      5 CA         19.4254  -26.4507  -47.0691 C.3       1 UNK         0.0853 
      6 C6         20.0469  -27.8662  -47.2136 C.3       10 UNK        -0.0849 
      7 S7         19.0605  -29.2040  -46.4527 S.3       10 UNK        -0.2776 
      8 C8         19.9806  -29.4265  -44.9007 C.3       10 UNK         0.0316 
      9 C9         19.1103  -29.9589  -43.7765 C.ar      10 UNK        -0.0863 
     10 C10        19.4521  -31.1371  -43.1138 C.ar      10 UNK        -0.1009 
     11 C11        18.7308  -31.5603  -41.9952 C.ar      10 UNK        -0.0712 
     12 C12        17.6387  -30.8063  -41.5526 C.ar      10 UNK        -0.0894 
     13 C13        17.2698  -29.6340  -42.2232 C.ar      10 UNK        -0.0745 
     14 C14        18.0059  -29.2254  -43.3407 C.ar      10 UNK        -0.0972 
     15 C15        16.0839  -28.8081  -41.7350 C.3       10 UNK         0.0209 
     16 S16        16.4195  -27.0129  -41.7126 S.3       10 UNK        -0.2568 
     17 C17        17.6420  -26.8718  -40.3674 C.3       10 UNK        -0.0983 
     18 CA         19.1218  -26.9810  -40.8253 C.3       3 UNK         0.0876 
     19 N          19.4513  -26.0985  -41.9522 N.am      3 UNK        -0.4424 
     20 C          20.5987  -26.1306  -42.6442 C.2       2 UNK         0.4918 
     21 O          21.5093  -26.9386  -42.4385 O.2       2 UNK        -0.4875 
     22 CA         20.7685  -25.0528  -43.7302 C.3       2 UNK         0.0481 
     23 CB         22.1515  -24.3865  -43.6401 C.3       2 UNK        -0.1831 
     24 N          20.5825  -25.5860  -45.0809 N.am      2 UNK        -0.4498 
     25 C          19.4029  -25.9465  -45.6054 C.2       1 UNK         0.5027 
     26 O          18.3394  -25.8927  -44.9815 O.2       1 UNK        -0.4969 
     27 C          20.0502  -26.7372  -39.6209 C.2       3 UNK         0.5005 
     28 O          20.5145  -27.6962  -39.0058 O.2       3 UNK        -0.5279 
     29 N          20.3283  -25.4573  -39.3253 N.am      4 UNK        -0.4463 
     30 CA         21.1763  -25.0133  -38.2122 C.3       4 UNK         0.0283 
     31 CB         21.0756  -23.4858  -38.0734 C.3       4 UNK        -0.1875 
     32 C          22.6479  -25.4428  -38.3444 C.2       4 UNK         0.4949 
     33 O          23.3132  -25.6437  -37.3286 O.2       4 UNK        -0.5039 
     34 N          23.1198  -25.5944  -39.5885 N.am      5 UNK        -0.4663 
     35 CA         24.4492  -26.1151  -39.9137 C.3       5 UNK         0.0242 
     36 CB         24.8805  -25.5463  -41.2755 C.3       5 UNK        -0.1982 
     37 C          24.4930  -27.6538  -39.9474 C.2       5 UNK         0.5017 
     38 O          25.5884  -28.2102  -40.0288 O.2       5 UNK        -0.5012 
     39 N          23.3175  -28.3053  -39.9220 N.am      6 UNK        -0.4439 
     40 CA         23.0855  -29.7436  -40.0951 C.3       6 UNK         0.0297 
     41 CB         23.6160  -30.5309  -38.8784 C.3       6 UNK        -0.2006 
     42 C          23.6301  -30.2674  -41.4392 C.2       6 UNK         0.4892 
     43 O          24.2219  -31.3476  -41.4877 O.2       6 UNK        -0.5089 
     44 N          23.4422  -29.4675  -42.5011 N.am      7 UNK        -0.4243 
     45 CA         24.1518  -29.5646  -43.7829 C.3       7 UNK         0.0196 
     46 CB         23.7906  -28.3401  -44.6412 C.3       7 UNK        -0.2007 
     47 C          23.9656  -30.8683  -44.5833 C.2       7 UNK         0.5020 
     48 O          24.7440  -31.1092  -45.5068 O.2       7 UNK        -0.5147 
     49 N          22.9594  -31.6798  -44.2392 N.am      8 UNK        -0.4734 
     50 CA         22.6697  -32.9610  -44.8901 C.3       8 UNK         0.0238 
     51 CB         21.7209  -32.7365  -46.0861 C.3       8 UNK        -0.1912 
     52 C          22.1312  -34.0154  -43.9071 C.2       8 UNK         0.5038 
     53 O          21.5058  -34.9773  -44.3560 O.2       8 UNK        -0.5046 
     54 N          22.3544  -33.8309  -42.5964 N.am      9 UNK        -0.4200 
     55 CA         21.8633  -34.7538  -41.5534 C.3       9 UNK         0.0839 
     56 C          22.7521  -36.0139  -41.3402 C.2       9 UNK         0.5513 
     57 N          23.9224  -36.1190  -41.9587 N.am      9 UNK        -0.7519 
     58 O          22.3670  -36.9184  -40.6039 O.2       9 UNK        -0.4960 
     59 C59        21.5674  -34.0465  -40.2004 C.3       10 UNK        -0.0876 
     60 S60        20.6857  -32.4498  -40.3038 S.3       10 UNK        -0.2414 
     61 C61        19.1772  -32.8111  -41.2561 C.3       10 UNK         0.0169 
     62 H62        15.3911  -24.7920  -48.0122 H         1 UNK         0.0903 
     63 H63        16.0091  -25.0504  -49.6463 H         1 UNK         0.0903 
     64 H64        15.7111  -26.4297  -48.5865 H         1 UNK         0.0903 
     65 H65        17.5831  -27.2647  -47.6708 H         1 UNK         0.3096 
     66 H66        20.0650  -25.7600  -47.6241 H         1 UNK         0.1121 
     67 H67        21.0666  -27.8857  -46.8250 H         1 UNK         0.0849 
     68 H68        20.1477  -28.1023  -48.2743 H         1 UNK         0.0849 
     69 H69        20.8341  -30.0764  -45.0888 H         1 UNK         0.0865 
     70 H70        20.3909  -28.4746  -44.5675 H         1 UNK         0.0865 
     71 H71        20.3032  -31.7134  -43.4395 H         1 UNK         0.1346 
     72 H72        17.0847  -31.1269  -40.6809 H         1 UNK         0.1412 
     73 H73        17.7421  -28.3110  -43.8555 H         1 UNK         0.1426 
     74 H74        15.7722  -29.1233  -40.7380 H         1 UNK         0.0716 
     75 H75        15.2379  -28.9955  -42.3973 H         1 UNK         0.0716 
     76 H76        17.4224  -27.6313  -39.6142 H         1 UNK         0.0695 
     77 H77        17.4633  -25.9102  -39.8820 H         1 UNK         0.0695 
     78 H78        19.3032  -28.0056  -41.1555 H         1 UNK         0.0983 
     79 H79        18.7267  -25.4554  -42.2392 H         1 UNK         0.3095 
     80 H80        20.0211  -24.2739  -43.5640 H         1 UNK         0.0454 
     81 H81        22.9530  -25.0809  -43.8926 H         1 UNK         0.0851 
     82 H82        22.3446  -24.0130  -42.6337 H         1 UNK         0.0851 
     83 H83        22.2245  -23.5354  -44.3173 H         1 UNK         0.0851 
     84 H84        21.4168  -25.6744  -45.6427 H         1 UNK         0.2976 
     85 H85        19.9023  -24.7346  -39.8879 H         1 UNK         0.3116 
     86 H86        20.7860  -25.4657  -37.2980 H         1 UNK         0.0646 
     87 H87        21.4305  -22.9728  -38.9682 H         1 UNK         0.0847 
     88 H88        21.6771  -23.1303  -37.2354 H         1 UNK         0.0847 
     89 H89        20.0491  -23.1693  -37.8878 H         1 UNK         0.0847 
     90 H90        22.4988  -25.4156  -40.3641 H         1 UNK         0.3040 
     91 H91        25.1641  -25.7808  -39.1582 H         1 UNK         0.1015 
     92 H92        24.2422  -25.9110  -42.0800 H         1 UNK         0.0786 
     93 H93        25.9029  -25.8420  -41.5153 H         1 UNK         0.0786 
     94 H94        24.8492  -24.4567  -41.2833 H         1 UNK         0.0786 
     95 H95        22.4749  -27.7546  -39.8033 H         1 UNK         0.3172 
     96 H96        22.0030  -29.8668  -40.1307 H         1 UNK         0.0595 
     97 H97        23.3511  -31.5859  -38.9489 H         1 UNK         0.0839 
     98 H98        23.1914  -30.1535  -37.9483 H         1 UNK         0.0839 
     99 H99        24.7021  -30.4748  -38.8009 H         1 UNK         0.0839 
    100 H100       22.8966  -28.6235  -42.3623 H         1 UNK         0.2998 
    101 H101       25.2173  -29.5039  -43.5517 H         1 UNK         0.0822 
    102 H102       24.0635  -27.4118  -44.1397 H         1 UNK         0.0787 
    103 H103       24.3193  -28.3564  -45.5954 H         1 UNK         0.0787 
    104 H104       22.7249  -28.2996  -44.8593 H         1 UNK         0.0787 
    105 H105       22.3900  -31.4207  -43.4467 H         1 UNK         0.3055 
    106 H106       23.6017  -33.3812  -45.2752 H         1 UNK         0.1106 
    107 H107       21.5901  -33.6547  -46.6601 H         1 UNK         0.0828 
    108 H108       20.7306  -32.4137  -45.7646 H         1 UNK         0.0828 
    109 H109       22.1126  -31.9858  -46.7728 H         1 UNK         0.0828 
    110 H110       22.9333  -33.0625  -42.2815 H         1 UNK         0.2931 
    111 H111       20.9115  -35.1602  -41.8976 H         1 UNK         0.0412 
    112 H112       24.2512  -35.3826  -42.5622 H         1 UNK         0.3472 
    113 H113       24.4852  -36.9429  -41.8142 H         1 UNK         0.3472 
    114 H114       22.5033  -33.8549  -39.6723 H         1 UNK         0.0970 
    115 H115       20.9907  -34.7073  -39.5505 H         1 UNK         0.0970 
    116 H116       19.3496  -33.6010  -41.9853 H         1 UNK         0.0612 
    117 H117       18.3996  -33.1713  -40.5810 H         1 UNK         0.0612 
@<TRIPOS>BOND
     1    1    2 1    
     2    1   62 1    
     3    1   63 1    
     4    1   64 1    
     5    2    3 2    
     6    2    4 am   BACKBONE|DICT|INTERRES
     7    4    5 1    
     8    4   65 1    
     9    5    6 1    
    10    5   25 1    
    11    5   66 1    
    12    6    7 1    
    13    6   67 1    
    14    6   68 1    
    15    7    8 1    
    16    8    9 1    
    17    8   69 1    
    18    8   70 1    
    19    9   10 ar   
    20    9   14 ar   
    21   10   11 ar   
    22   10   71 1    
    23   11   12 ar   
    24   11   61 1    
    25   12   13 ar   
    26   12   72 1    
    27   13   14 ar   
    28   13   15 1    
    29   14   73 1    
    30   15   16 1    
    31   15   74 1    
    32   15   75 1    
    33   16   17 1    
    34   17   18 1    
    35   17   76 1    
    36   17   77 1    
    37   18   19 1    
    38   18   27 1    
    39   18   78 1    
    40   19   20 am   BACKBONE|DICT|INTERRES
    41   19   79 1    
    42   20   21 2    
    43   20   22 1    
    44   22   23 1    
    45   22   24 1    
    46   22   80 1    
    47   23   81 1    
    48   23   82 1    
    49   23   83 1    
    50   24   25 am   BACKBONE|DICT|INTERRES
    51   24   84 1    
    52   25   26 2    
    53   27   28 2    
    54   27   29 am   BACKBONE|DICT|INTERRES
    55   29   30 1    
    56   29   85 1    
    57   30   31 1    
    58   30   32 1    
    59   30   86 1    
    60   31   87 1    
    61   31   88 1    
    62   31   89 1    
    63   32   33 2    
    64   32   34 am   BACKBONE|DICT|INTERRES
    65   34   35 1    
    66   34   90 1    
    67   35   36 1    
    68   35   37 1    
    69   35   91 1    
    70   36   92 1    
    71   36   93 1    
    72   36   94 1    
    73   37   38 2    
    74   37   39 am   BACKBONE|DICT|INTERRES
    75   39   40 1    
    76   39   95 1    
    77   40   41 1    
    78   40   42 1    
    79   40   96 1    
    80   41   97 1    
    81   41   98 1    
    82   41   99 1    
    83   42   43 2    
    84   42   44 am   BACKBONE|DICT|INTERRES
    85   44   45 1    
    86   44  100 1    
    87   45   46 1    
    88   45   47 1    
    89   45  101 1    
    90   46  102 1    
    91   46  103 1    
    92   46  104 1    
    93   47   48 2    
    94   47   49 am   BACKBONE|DICT|INTERRES
    95   49   50 1    
    96   49  105 1    
    97   50   51 1    
    98   50   52 1    
    99   50  106 1    
   100   51  107 1    
   101   51  108 1    
   102   51  109 1    
   103   52   53 2    
   104   52   54 am   BACKBONE|DICT|INTERRES
   105   54   55 1    
   106   54  110 1    
   107   55   56 1    
   108   55   59 1    
   109   55  111 1    
   110   56   57 am   BACKBONE|DICT|INTERRES
   111   56   58 2    
   112   57  112 1    
   113   57  113 1    
   114   59   60 1    
   115   59  114 1    
   116   59  115 1    
   117   60   61 1    
   118   61  116 1    
   119   61  117 1    
@<TRIPOS>SUBSTRUCTURE
     1 UNK         1 GROUP             0       ****    0 ROOT    
