@<TRIPOS>MOLECULE
3R8
117   119    1
SMALL
USER_CHARGES


@<TRIPOS>ATOM
      1 CA         16.1411  -24.1016  -40.4403 C.3       0 UNK        -0.2013 
      2 C          16.5293  -24.1566  -41.9104 C.2       0 UNK         0.4866 
      3 O          16.6100  -23.1146  -42.5622 O.2       0 UNK        -0.5176 
      4 N          16.7600  -25.3639  -42.4396 N.am      1 UNK        -0.4884 
      5 CA         17.1920  -25.6058  -43.8209 C.3       1 UNK         0.0853 
      6 C6         17.0264  -27.0922  -44.2259 C.3       10 UNK        -0.0849 
      7 S7         15.3218  -27.7134  -44.0077 S.3       10 UNK        -0.2776 
      8 C8         15.2462  -29.0710  -45.2298 C.3       10 UNK         0.0316 
      9 C9         16.4408  -30.0185  -45.1583 C.ar      10 UNK        -0.0863 
     10 C10        16.8542  -30.5598  -43.9379 C.ar      10 UNK        -0.1009 
     11 C11        17.9917  -31.3685  -43.8633 C.ar      10 UNK        -0.0712 
     12 C12        18.6954  -31.6769  -45.0331 C.ar      10 UNK        -0.0894 
     13 C13        18.2771  -31.1636  -46.2659 C.ar      10 UNK        -0.0745 
     14 C14        17.1479  -30.3395  -46.3201 C.ar      10 UNK        -0.0972 
     15 C15        19.0334  -31.4974  -47.5474 C.3       10 UNK         0.0209 
     16 S16        20.6422  -30.6457  -47.6878 S.3       10 UNK        -0.2568 
     17 C17        20.1938  -28.8745  -47.5475 C.3       10 UNK        -0.0983 
     18 CA         21.1074  -28.0309  -46.6153 C.3       3 UNK         0.0876 
     19 N          20.5442  -26.6967  -46.4104 N.am      3 UNK        -0.4424 
     20 C          21.2020  -25.6492  -45.8949 C.2       2 UNK         0.4918 
     21 O          22.4036  -25.6570  -45.6257 O.2       2 UNK        -0.4875 
     22 CA         20.3693  -24.3820  -45.6264 C.3       2 UNK         0.0481 
     23 CB         20.3507  -23.4760  -46.8678 C.3       2 UNK        -0.1831 
     24 N          18.9930  -24.6952  -45.2237 N.am      2 UNK        -0.4498 
     25 C          18.6608  -25.1747  -44.0159 C.2       1 UNK         0.5027 
     26 O          19.4667  -25.3165  -43.0927 O.2       1 UNK        -0.4969 
     27 C          21.3742  -28.6954  -45.2466 C.2       3 UNK         0.5005 
     28 O          20.5030  -28.6656  -44.3770 O.2       3 UNK        -0.5279 
     29 N          22.5758  -29.2771  -45.1062 N.am      4 UNK        -0.4463 
     30 CA         23.0680  -30.0776  -43.9770 C.3       4 UNK         0.0283 
     31 CB         22.3225  -31.4221  -43.9066 C.3       4 UNK        -0.1875 
     32 C          23.0927  -29.3590  -42.6121 C.2       4 UNK         0.4949 
     33 O          23.1338  -30.0316  -41.5756 O.2       4 UNK        -0.5039 
     34 N          23.1106  -28.0187  -42.6363 N.am      5 UNK        -0.4663 
     35 CA         23.1552  -27.1345  -41.4725 C.3       5 UNK         0.0242 
     36 CB         23.0677  -25.6743  -41.9475 C.3       5 UNK        -0.1982 
     37 C          24.4210  -27.3730  -40.6338 C.2       5 UNK         0.5017 
     38 O          25.5231  -27.0848  -41.1039 O.2       5 UNK        -0.5012 
     39 N          24.2287  -27.9419  -39.4367 N.am      6 UNK        -0.4439 
     40 CA         25.2380  -28.4002  -38.4740 C.3       6 UNK         0.0297 
     41 CB         26.1554  -27.2454  -38.0187 C.3       6 UNK        -0.2006 
     42 C          26.0377  -29.6384  -38.9317 C.2       6 UNK         0.4892 
     43 O          26.9679  -30.0355  -38.2280 O.2       6 UNK        -0.5089 
     44 N          25.6602  -30.2450  -40.0657 N.am      7 UNK        -0.4243 
     45 CA         26.2373  -31.4867  -40.5813 C.3       7 UNK         0.0196 
     46 CB         26.4259  -31.3838  -42.1031 C.3       7 UNK        -0.2007 
     47 C          25.3449  -32.6821  -40.2245 C.2       7 UNK         0.5020 
     48 O          25.8681  -33.7113  -39.7965 O.2       7 UNK        -0.5147 
     49 N          24.0230  -32.5263  -40.3870 N.am      8 UNK        -0.4734 
     50 CA         23.0282  -33.5460  -40.0365 C.3       8 UNK         0.0238 
     51 CB         22.6775  -34.3951  -41.2718 C.3       8 UNK        -0.1912 
     52 C          21.7577  -32.9639  -39.3995 C.2       8 UNK         0.5038 
     53 O          21.0174  -33.7297  -38.7800 O.2       8 UNK        -0.5046 
     54 N          21.5086  -31.6556  -39.5396 N.am      9 UNK        -0.4200 
     55 CA         20.3362  -30.9763  -38.9736 C.3       9 UNK         0.0839 
     56 C          20.6288  -29.4902  -38.6325 C.2       9 UNK         0.5513 
     57 N          19.6611  -28.7707  -38.0810 N.am      9 UNK        -0.7519 
     58 O          21.7302  -28.9839  -38.8329 O.2       9 UNK        -0.4960 
     59 C59        19.0557  -31.1989  -39.8276 C.3       10 UNK        -0.0876 
     60 S60        19.1666  -30.5230  -41.5200 S.3       10 UNK        -0.2414 
     61 C61        18.4555  -31.8782  -42.5071 C.3       10 UNK         0.0169 
     62 H62        15.1634  -23.6340  -40.3273 H         1 UNK         0.0903 
     63 H63        16.0957  -25.0945  -39.9930 H         1 UNK         0.0903 
     64 H64        16.8680  -23.5117  -39.8826 H         1 UNK         0.0903 
     65 H65        16.6885  -26.1877  -41.8598 H         1 UNK         0.3096 
     66 H66        16.5646  -24.9974  -44.4765 H         1 UNK         0.1121 
     67 H67        17.3131  -27.2319  -45.2700 H         1 UNK         0.0849 
     68 H68        17.6977  -27.7278  -43.6426 H         1 UNK         0.0849 
     69 H69        14.3310  -29.6422  -45.0688 H         1 UNK         0.0865 
     70 H70        15.1625  -28.6318  -46.2251 H         1 UNK         0.0865 
     71 H71        16.3159  -30.3140  -43.0326 H         1 UNK         0.1346 
     72 H72        19.5759  -32.3023  -44.9863 H         1 UNK         0.1412 
     73 H73        16.8294  -29.9331  -47.2705 H         1 UNK         0.1426 
     74 H74        18.4310  -31.2526  -48.4237 H         1 UNK         0.0716 
     75 H75        19.2038  -32.5740  -47.5907 H         1 UNK         0.0716 
     76 H76        19.1613  -28.7897  -47.2128 H         1 UNK         0.0695 
     77 H77        20.2080  -28.4488  -48.5519 H         1 UNK         0.0695 
     78 H78        22.0657  -27.9036  -47.1241 H         1 UNK         0.0983 
     79 H79        19.5533  -26.6051  -46.5678 H         1 UNK         0.3095 
     80 H80        20.8518  -23.8316  -44.8156 H         1 UNK         0.0454 
     81 H81        19.8723  -23.9609  -47.7196 H         1 UNK         0.0851 
     82 H82        21.3647  -23.2122  -47.1715 H         1 UNK         0.0851 
     83 H83        19.8216  -22.5436  -46.6707 H         1 UNK         0.0851 
     84 H84        18.2747  -24.5774  -45.9245 H         1 UNK         0.2976 
     85 H85        23.2155  -29.2144  -45.8867 H         1 UNK         0.3116 
     86 H86        24.1089  -30.2949  -44.2171 H         1 UNK         0.0646 
     87 H87        22.8399  -32.1084  -43.2388 H         1 UNK         0.0847 
     88 H88        22.2648  -31.9029  -44.8830 H         1 UNK         0.0847 
     89 H89        21.3074  -31.2939  -43.5315 H         1 UNK         0.0847 
     90 H90        23.0788  -27.5671  -43.5389 H         1 UNK         0.3040 
     91 H91        22.2727  -27.3448  -40.8649 H         1 UNK         0.1015 
     92 H92        23.8994  -25.4098  -42.6020 H         1 UNK         0.0786 
     93 H93        23.0851  -24.9870  -41.1008 H         1 UNK         0.0786 
     94 H94        22.1426  -25.4911  -42.4946 H         1 UNK         0.0786 
     95 H95        23.2720  -28.2117  -39.1976 H         1 UNK         0.3172 
     96 H96        24.6709  -28.7260  -37.6009 H         1 UNK         0.0595 
     97 H97        26.8240  -26.9174  -38.8150 H         1 UNK         0.0839 
     98 H98        26.7820  -27.5523  -37.1804 H         1 UNK         0.0839 
     99 H99        25.5760  -26.3833  -37.6885 H         1 UNK         0.0839 
    100 H100       24.8570  -29.8755  -40.5625 H         1 UNK         0.2998 
    101 H101       27.2205  -31.6546  -40.1360 H         1 UNK         0.0822 
    102 H102       27.0237  -30.5127  -42.3718 H         1 UNK         0.0787 
    103 H103       26.9419  -32.2642  -42.4884 H         1 UNK         0.0787 
    104 H104       25.4741  -31.3143  -42.6265 H         1 UNK         0.0787 
    105 H105       23.6788  -31.6550  -40.7803 H         1 UNK         0.3055 
    106 H106       23.4540  -34.2113  -39.2815 H         1 UNK         0.1106 
    107 H107       22.0741  -35.2577  -40.9860 H         1 UNK         0.0828 
    108 H108       22.0979  -33.8315  -42.0015 H         1 UNK         0.0828 
    109 H109       23.5713  -34.7764  -41.7657 H         1 UNK         0.0828 
    110 H110       22.1319  -31.0501  -40.0607 H         1 UNK         0.2931 
    111 H111       20.1530  -31.4294  -37.9972 H         1 UNK         0.0412 
    112 H112       18.7551  -29.1677  -37.8897 H         1 UNK         0.3472 
    113 H113       19.8448  -27.8081  -37.8459 H         1 UNK         0.3472 
    114 H114       18.8448  -32.2677  -39.8813 H         1 UNK         0.0970 
    115 H115       18.1835  -30.7610  -39.3407 H         1 UNK         0.0970 
    116 H116       17.6032  -32.3101  -41.9804 H         1 UNK         0.0612 
    117 H117       19.1958  -32.6723  -42.6155 H         1 UNK         0.0612 
@<TRIPOS>BOND
     1    1    2 1    
     2    1   62 1    
     3    1   63 1    
     4    1   64 1    
     5    2    3 2    
     6    2    4 am   BACKBONE|DICT|INTERRES
     7    4    5 1    
     8    4   65 1    
     9    5    6 1    
    10    5   25 1    
    11    5   66 1    
    12    6    7 1    
    13    6   67 1    
    14    6   68 1    
    15    7    8 1    
    16    8    9 1    
    17    8   69 1    
    18    8   70 1    
    19    9   10 ar   
    20    9   14 ar   
    21   10   11 ar   
    22   10   71 1    
    23   11   12 ar   
    24   11   61 1    
    25   12   13 ar   
    26   12   72 1    
    27   13   14 ar   
    28   13   15 1    
    29   14   73 1    
    30   15   16 1    
    31   15   74 1    
    32   15   75 1    
    33   16   17 1    
    34   17   18 1    
    35   17   76 1    
    36   17   77 1    
    37   18   19 1    
    38   18   27 1    
    39   18   78 1    
    40   19   20 am   BACKBONE|DICT|INTERRES
    41   19   79 1    
    42   20   21 2    
    43   20   22 1    
    44   22   23 1    
    45   22   24 1    
    46   22   80 1    
    47   23   81 1    
    48   23   82 1    
    49   23   83 1    
    50   24   25 am   BACKBONE|DICT|INTERRES
    51   24   84 1    
    52   25   26 2    
    53   27   28 2    
    54   27   29 am   BACKBONE|DICT|INTERRES
    55   29   30 1    
    56   29   85 1    
    57   30   31 1    
    58   30   32 1    
    59   30   86 1    
    60   31   87 1    
    61   31   88 1    
    62   31   89 1    
    63   32   33 2    
    64   32   34 am   BACKBONE|DICT|INTERRES
    65   34   35 1    
    66   34   90 1    
    67   35   36 1    
    68   35   37 1    
    69   35   91 1    
    70   36   92 1    
    71   36   93 1    
    72   36   94 1    
    73   37   38 2    
    74   37   39 am   BACKBONE|DICT|INTERRES
    75   39   40 1    
    76   39   95 1    
    77   40   41 1    
    78   40   42 1    
    79   40   96 1    
    80   41   97 1    
    81   41   98 1    
    82   41   99 1    
    83   42   43 2    
    84   42   44 am   BACKBONE|DICT|INTERRES
    85   44   45 1    
    86   44  100 1    
    87   45   46 1    
    88   45   47 1    
    89   45  101 1    
    90   46  102 1    
    91   46  103 1    
    92   46  104 1    
    93   47   48 2    
    94   47   49 am   BACKBONE|DICT|INTERRES
    95   49   50 1    
    96   49  105 1    
    97   50   51 1    
    98   50   52 1    
    99   50  106 1    
   100   51  107 1    
   101   51  108 1    
   102   51  109 1    
   103   52   53 2    
   104   52   54 am   BACKBONE|DICT|INTERRES
   105   54   55 1    
   106   54  110 1    
   107   55   56 1    
   108   55   59 1    
   109   55  111 1    
   110   56   57 am   BACKBONE|DICT|INTERRES
   111   56   58 2    
   112   57  112 1    
   113   57  113 1    
   114   59   60 1    
   115   59  114 1    
   116   59  115 1    
   117   60   61 1    
   118   61  116 1    
   119   61  117 1    
@<TRIPOS>SUBSTRUCTURE
     1 UNK         1 GROUP             0       ****    0 ROOT    
