@<TRIPOS>MOLECULE
3R8
117   119    1
SMALL
USER_CHARGES


@<TRIPOS>ATOM
      1 CA         25.4310  -27.6962  -44.6149 C.3       0 UNK        -0.2013 
      2 C          24.3452  -28.5232  -43.9468 C.2       0 UNK         0.4866 
      3 O          24.5297  -29.0015  -42.8273 O.2       0 UNK        -0.5176 
      4 N          23.2111  -28.7102  -44.6318 N.am      1 UNK        -0.4884 
      5 CA         22.0381  -29.4129  -44.1057 C.3       1 UNK         0.0853 
      6 C6         21.1681  -29.9814  -45.2494 C.3       10 UNK        -0.0849 
      7 S7         20.2287  -28.7511  -46.2249 S.3       10 UNK        -0.2776 
      8 C8         18.7930  -29.7361  -46.7762 C.3       10 UNK         0.0316 
      9 C9         17.8275  -29.9923  -45.6287 C.ar      10 UNK        -0.0863 
     10 C10        17.9500  -31.1430  -44.8481 C.ar      10 UNK        -0.1009 
     11 C11        17.1669  -31.3206  -43.7063 C.ar      10 UNK        -0.0712 
     12 C12        16.1788  -30.3764  -43.4049 C.ar      10 UNK        -0.0894 
     13 C13        15.9882  -29.2599  -44.2275 C.ar      10 UNK        -0.0745 
     14 C14        16.8257  -29.0673  -45.3305 C.ar      10 UNK        -0.0972 
     15 C15        14.8611  -28.2775  -43.9416 C.3       10 UNK         0.0209 
     16 S16        15.3200  -27.0244  -42.7050 S.3       10 UNK        -0.2568 
     17 C17        16.4770  -25.9638  -43.6392 C.3       10 UNK        -0.0983 
     18 CA         17.7965  -25.7174  -42.8688 C.3       3 UNK         0.0876 
     19 N          18.4915  -26.9669  -42.5290 N.am      3 UNK        -0.4424 
     20 C          18.9674  -27.2406  -41.3076 C.2       2 UNK         0.4918 
     21 O          18.8123  -26.5022  -40.3346 O.2       2 UNK        -0.4875 
     22 CA         19.7462  -28.5559  -41.1079 C.3       2 UNK         0.0481 
     23 CB         18.8533  -29.5974  -40.4170 C.3       2 UNK        -0.1831 
     24 N          20.3695  -29.1525  -42.3005 N.am      2 UNK        -0.4498 
     25 C          21.2696  -28.5404  -43.0852 C.2       1 UNK         0.5027 
     26 O          21.5123  -27.3341  -43.0144 O.2       1 UNK        -0.4969 
     27 C          18.7099  -24.7352  -43.6350 C.2       3 UNK         0.5005 
     28 O          18.3291  -23.5732  -43.7892 O.2       3 UNK        -0.5279 
     29 N          19.8823  -25.1894  -44.1025 N.am      4 UNK        -0.4463 
     30 CA         20.8772  -24.3663  -44.7963 C.3       4 UNK         0.0283 
     31 CB         21.5595  -25.2024  -45.8917 C.3       4 UNK        -0.1875 
     32 C          21.9208  -23.8157  -43.8130 C.2       4 UNK         0.4949 
     33 O          22.2859  -22.6434  -43.9028 O.2       4 UNK        -0.5039 
     34 N          22.3685  -24.6704  -42.8893 N.am      5 UNK        -0.4663 
     35 CA         23.3018  -24.3731  -41.8105 C.3       5 UNK         0.0242 
     36 CB         24.7550  -24.4756  -42.3226 C.3       5 UNK        -0.1982 
     37 C          22.9531  -25.3228  -40.6560 C.2       5 UNK         0.5017 
     38 O          21.8307  -25.2559  -40.1548 O.2       5 UNK        -0.5012 
     39 N          23.8844  -26.2005  -40.2700 N.am      6 UNK        -0.4439 
     40 CA         23.6832  -27.2812  -39.3112 C.3       6 UNK         0.0297 
     41 CB         23.6849  -26.7362  -37.8694 C.3       6 UNK        -0.2006 
     42 C          24.8195  -28.2965  -39.5123 C.2       6 UNK         0.4892 
     43 O          25.9734  -27.8678  -39.5527 O.2       6 UNK        -0.5089 
     44 N          24.5592  -29.6057  -39.6179 N.am      7 UNK        -0.4243 
     45 CA         23.2695  -30.2828  -39.7538 C.3       7 UNK         0.0196 
     46 CB         22.5668  -30.4234  -38.3872 C.3       7 UNK        -0.2007 
     47 C          23.5291  -31.6315  -40.4372 C.2       7 UNK         0.5020 
     48 O          23.2986  -32.6856  -39.8436 O.2       7 UNK        -0.5147 
     49 N          24.0521  -31.5698  -41.6699 N.am      8 UNK        -0.4734 
     50 CA         24.5417  -32.7107  -42.4588 C.3       8 UNK         0.0238 
     51 CB         25.1139  -32.1929  -43.7891 C.3       8 UNK        -0.1912 
     52 C          23.5300  -33.8433  -42.7229 C.2       8 UNK         0.5038 
     53 O          23.9591  -34.9682  -42.9837 O.2       8 UNK        -0.5046 
     54 N          22.2263  -33.5433  -42.6531 N.am      9 UNK        -0.4200 
     55 CA         21.1428  -34.5344  -42.7391 C.3       9 UNK         0.0839 
     56 C          20.9227  -35.3711  -41.4428 C.2       9 UNK         0.5513 
     57 N          21.5543  -35.0488  -40.3192 N.am      9 UNK        -0.7519 
     58 O          20.1739  -36.3447  -41.4647 O.2       9 UNK        -0.4960 
     59 C59        19.8304  -33.9089  -43.2803 C.3       10 UNK        -0.0876 
     60 S60        19.1169  -32.6211  -42.1965 S.3       10 UNK        -0.2414 
     61 C61        17.3939  -32.5266  -42.8019 C.3       10 UNK         0.0169 
     62 H62        25.9763  -28.3033  -45.3369 H         1 UNK         0.0903 
     63 H63        25.0064  -26.8358  -45.1319 H         1 UNK         0.0903 
     64 H64        26.1421  -27.3296  -43.8750 H         1 UNK         0.0903 
     65 H65        23.0930  -28.2844  -45.5400 H         1 UNK         0.3096 
     66 H66        22.4072  -30.2723  -43.5441 H         1 UNK         0.1121 
     67 H67        20.4941  -30.7167  -44.8233 H         1 UNK         0.0849 
     68 H68        21.7946  -30.5477  -45.9407 H         1 UNK         0.0849 
     69 H69        18.2822  -29.1997  -47.5773 H         1 UNK         0.0865 
     70 H70        19.1353  -30.6767  -47.2109 H         1 UNK         0.0865 
     71 H71        18.6880  -31.8864  -45.1059 H         1 UNK         0.1346 
     72 H72        15.5485  -30.5126  -42.5366 H         1 UNK         0.1412 
     73 H73        16.7010  -28.1984  -45.9615 H         1 UNK         0.1426 
     74 H74        13.9901  -28.8234  -43.5761 H         1 UNK         0.0716 
     75 H75        14.5408  -27.7817  -44.8594 H         1 UNK         0.0716 
     76 H76        15.9654  -25.0180  -43.8277 H         1 UNK         0.0695 
     77 H77        16.6811  -26.3900  -44.6200 H         1 UNK         0.0695 
     78 H78        17.5217  -25.1916  -41.9518 H         1 UNK         0.0983 
     79 H79        18.6037  -27.6482  -43.2658 H         1 UNK         0.3095 
     80 H80        20.5605  -28.3194  -40.4211 H         1 UNK         0.0454 
     81 H81        18.3942  -29.1864  -39.5168 H         1 UNK         0.0851 
     82 H82        19.4256  -30.4721  -40.1091 H         1 UNK         0.0851 
     83 H83        18.0450  -29.9288  -41.0692 H         1 UNK         0.0851 
     84 H84        20.1545  -30.1263  -42.4631 H         1 UNK         0.2976 
     85 H85        20.1744  -26.1280  -43.8538 H         1 UNK         0.3116 
     86 H86        20.3874  -23.5187  -45.2804 H         1 UNK         0.0646 
     87 H87        22.2986  -24.6092  -46.4316 H         1 UNK         0.0847 
     88 H88        22.0754  -26.0695  -45.4789 H         1 UNK         0.0847 
     89 H89        20.8355  -25.5624  -46.6228 H         1 UNK         0.0847 
     90 H90        21.9960  -25.6201  -42.8808 H         1 UNK         0.3040 
     91 H91        23.1252  -23.3574  -41.4496 H         1 UNK         0.1015 
     92 H92        25.4712  -24.2614  -41.5283 H         1 UNK         0.0786 
     93 H93        24.9404  -23.7538  -43.1183 H         1 UNK         0.0786 
     94 H94        24.9770  -25.4652  -42.7213 H         1 UNK         0.0786 
     95 H95        24.7860  -26.2090  -40.7297 H         1 UNK         0.3172 
     96 H96        22.7137  -27.7317  -39.5142 H         1 UNK         0.0595 
     97 H97        24.6072  -26.1992  -37.6441 H         1 UNK         0.0839 
     98 H98        23.5950  -27.5454  -37.1441 H         1 UNK         0.0839 
     99 H99        22.8513  -26.0555  -37.6974 H         1 UNK         0.0839 
    100 H100       25.3529  -30.2206  -39.7352 H         1 UNK         0.2998 
    101 H101       22.6272  -29.7212  -40.4330 H         1 UNK         0.0822 
    102 H102       23.1946  -30.9492  -37.6669 H         1 UNK         0.0787 
    103 H103       22.3036  -29.4586  -37.9574 H         1 UNK         0.0787 
    104 H104       21.6390  -30.9891  -38.4844 H         1 UNK         0.0787 
    105 H105       24.2468  -30.6454  -42.0564 H         1 UNK         0.3055 
    106 H106       25.3602  -33.1578  -41.8903 H         1 UNK         0.1106 
    107 H107       25.9108  -31.4675  -43.6241 H         1 UNK         0.0828 
    108 H108       25.5392  -33.0078  -44.3769 H         1 UNK         0.0828 
    109 H109       24.3475  -31.7169  -44.4013 H         1 UNK         0.0828 
    110 H110       21.9567  -32.6119  -42.3814 H         1 UNK         0.2931 
    111 H111       21.4477  -35.2659  -43.4903 H         1 UNK         0.0412 
    112 H112       21.4026  -35.6066  -39.4942 H         1 UNK         0.3472 
    113 H113       22.1698  -34.2427  -40.2732 H         1 UNK         0.3472 
    114 H114       20.0200  -33.4786  -44.2633 H         1 UNK         0.0970 
    115 H115       19.0888  -34.6934  -43.4412 H         1 UNK         0.0970 
    116 H116       17.1214  -33.4373  -43.3361 H         1 UNK         0.0612 
    117 H117       16.7365  -32.4751  -41.9328 H         1 UNK         0.0612 
@<TRIPOS>BOND
     1    1    2 1    
     2    1   62 1    
     3    1   63 1    
     4    1   64 1    
     5    2    3 2    
     6    2    4 am   BACKBONE|DICT|INTERRES
     7    4    5 1    
     8    4   65 1    
     9    5    6 1    
    10    5   25 1    
    11    5   66 1    
    12    6    7 1    
    13    6   67 1    
    14    6   68 1    
    15    7    8 1    
    16    8    9 1    
    17    8   69 1    
    18    8   70 1    
    19    9   10 ar   
    20    9   14 ar   
    21   10   11 ar   
    22   10   71 1    
    23   11   12 ar   
    24   11   61 1    
    25   12   13 ar   
    26   12   72 1    
    27   13   14 ar   
    28   13   15 1    
    29   14   73 1    
    30   15   16 1    
    31   15   74 1    
    32   15   75 1    
    33   16   17 1    
    34   17   18 1    
    35   17   76 1    
    36   17   77 1    
    37   18   19 1    
    38   18   27 1    
    39   18   78 1    
    40   19   20 am   BACKBONE|DICT|INTERRES
    41   19   79 1    
    42   20   21 2    
    43   20   22 1    
    44   22   23 1    
    45   22   24 1    
    46   22   80 1    
    47   23   81 1    
    48   23   82 1    
    49   23   83 1    
    50   24   25 am   BACKBONE|DICT|INTERRES
    51   24   84 1    
    52   25   26 2    
    53   27   28 2    
    54   27   29 am   BACKBONE|DICT|INTERRES
    55   29   30 1    
    56   29   85 1    
    57   30   31 1    
    58   30   32 1    
    59   30   86 1    
    60   31   87 1    
    61   31   88 1    
    62   31   89 1    
    63   32   33 2    
    64   32   34 am   BACKBONE|DICT|INTERRES
    65   34   35 1    
    66   34   90 1    
    67   35   36 1    
    68   35   37 1    
    69   35   91 1    
    70   36   92 1    
    71   36   93 1    
    72   36   94 1    
    73   37   38 2    
    74   37   39 am   BACKBONE|DICT|INTERRES
    75   39   40 1    
    76   39   95 1    
    77   40   41 1    
    78   40   42 1    
    79   40   96 1    
    80   41   97 1    
    81   41   98 1    
    82   41   99 1    
    83   42   43 2    
    84   42   44 am   BACKBONE|DICT|INTERRES
    85   44   45 1    
    86   44  100 1    
    87   45   46 1    
    88   45   47 1    
    89   45  101 1    
    90   46  102 1    
    91   46  103 1    
    92   46  104 1    
    93   47   48 2    
    94   47   49 am   BACKBONE|DICT|INTERRES
    95   49   50 1    
    96   49  105 1    
    97   50   51 1    
    98   50   52 1    
    99   50  106 1    
   100   51  107 1    
   101   51  108 1    
   102   51  109 1    
   103   52   53 2    
   104   52   54 am   BACKBONE|DICT|INTERRES
   105   54   55 1    
   106   54  110 1    
   107   55   56 1    
   108   55   59 1    
   109   55  111 1    
   110   56   57 am   BACKBONE|DICT|INTERRES
   111   56   58 2    
   112   57  112 1    
   113   57  113 1    
   114   59   60 1    
   115   59  114 1    
   116   59  115 1    
   117   60   61 1    
   118   61  116 1    
   119   61  117 1    
@<TRIPOS>SUBSTRUCTURE
     1 UNK         1 GROUP             0       ****    0 ROOT    
