@<TRIPOS>MOLECULE
3R8
117   119    1
SMALL
USER_CHARGES


@<TRIPOS>ATOM
      1 CA         15.2163  -22.0544  -42.3719 C.3       0 UNK        -0.2013 
      2 C          15.6999  -22.8726  -43.5599 C.2       0 UNK         0.4866 
      3 O          15.5495  -22.4401  -44.7034 O.2       0 UNK        -0.5176 
      4 N          16.2703  -24.0553  -43.3000 N.am      1 UNK        -0.4884 
      5 CA         16.8340  -24.9555  -44.3124 C.3       1 UNK         0.0853 
      6 C6         17.1005  -26.3704  -43.7409 C.3       10 UNK        -0.0849 
      7 S7         15.5871  -27.1675  -43.0994 S.3       10 UNK        -0.2776 
      8 C8         15.2779  -28.4781  -44.3308 C.3       10 UNK         0.0316 
      9 C9         16.3904  -29.5187  -44.3599 C.ar      10 UNK        -0.0863 
     10 C10        16.6574  -30.2969  -43.2288 C.ar      10 UNK        -0.1009 
     11 C11        17.6981  -31.2293  -43.2394 C.ar      10 UNK        -0.0712 
     12 C12        18.4683  -31.3890  -44.3946 C.ar      10 UNK        -0.0894 
     13 C13        18.2106  -30.6203  -45.5329 C.ar      10 UNK        -0.0745 
     14 C14        17.1610  -29.6958  -45.5138 C.ar      10 UNK        -0.0972 
     15 C15        19.0810  -30.7828  -46.7730 C.3       10 UNK         0.0209 
     16 S16        19.8942  -29.2306  -47.2776 S.3       10 UNK        -0.2568 
     17 C17        20.8159  -28.7702  -45.7694 C.3       10 UNK        -0.0983 
     18 CA         21.4809  -27.3762  -45.8957 C.3       3 UNK         0.0876 
     19 N          20.4950  -26.3410  -46.2148 N.am      3 UNK        -0.4424 
     20 C          20.7685  -25.1062  -46.6534 C.2       2 UNK         0.4918 
     21 O          21.9078  -24.6921  -46.8717 O.2       2 UNK        -0.4875 
     22 CA         19.5657  -24.1808  -46.9229 C.3       2 UNK         0.0481 
     23 CB         19.2670  -24.1231  -48.4299 C.3       2 UNK        -0.1831 
     24 N          18.3496  -24.5870  -46.2081 N.am      2 UNK        -0.4498 
     25 C          18.1342  -24.3709  -44.9027 C.2       1 UNK         0.5027 
     26 O          18.9245  -23.7730  -44.1678 O.2       1 UNK        -0.4969 
     27 C          22.2548  -27.0295  -44.6071 C.2       3 UNK         0.5005 
     28 O          21.7328  -26.3207  -43.7409 O.2       3 UNK        -0.5279 
     29 N          23.4751  -27.5689  -44.4815 N.am      4 UNK        -0.4463 
     30 CA         24.3531  -27.4173  -43.3176 C.3       4 UNK         0.0283 
     31 CB         25.7985  -27.7499  -43.7337 C.3       4 UNK        -0.1875 
     32 C          23.8767  -28.2820  -42.1360 C.2       4 UNK         0.4949 
     33 O          24.5319  -29.2691  -41.7928 O.2       4 UNK        -0.5039 
     34 N          22.7305  -27.9081  -41.5526 N.am      5 UNK        -0.4663 
     35 CA         22.0054  -28.5816  -40.4661 C.3       5 UNK         0.0242 
     36 CB         20.5904  -27.9795  -40.3797 C.3       5 UNK        -0.1982 
     37 C          22.7383  -28.5741  -39.1056 C.2       5 UNK         0.5017 
     38 O          22.1892  -28.1343  -38.0938 O.2       5 UNK        -0.5012 
     39 N          23.9720  -29.0733  -39.1232 N.am      6 UNK        -0.4439 
     40 CA         24.8594  -29.3341  -37.9968 C.3       6 UNK         0.0297 
     41 CB         25.6474  -28.0684  -37.6176 C.3       6 UNK        -0.2006 
     42 C          25.7894  -30.4964  -38.3701 C.2       6 UNK         0.4892 
     43 O          25.9705  -31.4087  -37.5633 O.2       6 UNK        -0.5089 
     44 N          26.3239  -30.4651  -39.6018 N.am      7 UNK        -0.4243 
     45 CA         26.9919  -31.5995  -40.2419 C.3       7 UNK         0.0196 
     46 CB         27.9208  -31.0866  -41.3551 C.3       7 UNK        -0.2007 
     47 C          25.9576  -32.5894  -40.8042 C.2       7 UNK         0.5020 
     48 O          26.0932  -33.7965  -40.6025 O.2       7 UNK        -0.5147 
     49 N          24.9324  -32.0531  -41.4789 N.am      8 UNK        -0.4734 
     50 CA         23.7430  -32.7764  -41.9245 C.3       8 UNK         0.0238 
     51 CB         23.1528  -32.0427  -43.1445 C.3       8 UNK        -0.1912 
     52 C          22.7017  -32.8687  -40.7945 C.2       8 UNK         0.5038 
     53 O          22.8506  -32.2229  -39.7539 O.2       8 UNK        -0.5046 
     54 N          21.6421  -33.6447  -41.0523 N.am      9 UNK        -0.4200 
     55 CA         20.4678  -33.8426  -40.1811 C.3       9 UNK         0.0839 
     56 C          20.7206  -34.7574  -38.9452 C.2       9 UNK         0.5513 
     57 N          21.8461  -35.4557  -38.8543 N.am      9 UNK        -0.7519 
     58 O          19.8681  -34.8638  -38.0670 O.2       9 UNK        -0.4960 
     59 C59        19.7236  -32.5270  -39.7927 C.3       10 UNK        -0.0876 
     60 S60        19.4827  -31.3562  -41.1709 S.3       10 UNK        -0.2414 
     61 C61        18.0198  -32.0418  -41.9963 C.3       10 UNK         0.0169 
     62 H62        15.3995  -22.5622  -41.4250 H         1 UNK         0.0903 
     63 H63        15.7283  -21.0929  -42.3455 H         1 UNK         0.0903 
     64 H64        14.1457  -21.8686  -42.4549 H         1 UNK         0.0903 
     65 H65        16.3740  -24.3605  -42.3428 H         1 UNK         0.3096 
     66 H66        16.1024  -25.0434  -45.1191 H         1 UNK         0.1121 
     67 H67        17.5514  -27.0108  -44.5003 H         1 UNK         0.0849 
     68 H68        17.8266  -26.3242  -42.9263 H         1 UNK         0.0849 
     69 H69        14.3361  -28.9734  -44.0905 H         1 UNK         0.0865 
     70 H70        15.1406  -28.0212  -45.3122 H         1 UNK         0.0865 
     71 H71        16.0685  -30.1571  -42.3323 H         1 UNK         0.1346 
     72 H72        19.2834  -32.0999  -44.3949 H         1 UNK         0.1412 
     73 H73        16.9637  -29.0986  -46.3938 H         1 UNK         0.1426 
     74 H74        18.4614  -31.1403  -47.5964 H         1 UNK         0.0716 
     75 H75        19.8488  -31.5416  -46.6137 H         1 UNK         0.0716 
     76 H76        20.1340  -28.7846  -44.9166 H         1 UNK         0.0695 
     77 H77        21.5633  -29.5431  -45.5801 H         1 UNK         0.0695 
     78 H78        22.1991  -27.4085  -46.7184 H         1 UNK         0.0983 
     79 H79        19.5316  -26.5933  -46.0659 H         1 UNK         0.3095 
     80 H80        19.8432  -23.1765  -46.5959 H         1 UNK         0.0454 
     81 H81        20.1431  -23.7905  -48.9885 H         1 UNK         0.0851 
     82 H82        18.9818  -25.0991  -48.8247 H         1 UNK         0.0851 
     83 H83        18.4616  -23.4220  -48.6492 H         1 UNK         0.0851 
     84 H84        17.6477  -25.0702  -46.7514 H         1 UNK         0.2976 
     85 H85        23.8181  -28.1677  -45.2194 H         1 UNK         0.3116 
     86 H86        24.3319  -26.3746  -42.9931 H         1 UNK         0.0646 
     87 H87        26.4832  -27.6325  -42.8926 H         1 UNK         0.0847 
     88 H88        26.1467  -27.0872  -44.5261 H         1 UNK         0.0847 
     89 H89        25.8938  -28.7771  -44.0883 H         1 UNK         0.0847 
     90 H90        22.2604  -27.1102  -41.9702 H         1 UNK         0.3040 
     91 H91        21.8999  -29.6316  -40.7469 H         1 UNK         0.1015 
     92 H92        20.0600  -28.0771  -41.3277 H         1 UNK         0.0786 
     93 H93        20.6175  -26.9217  -40.1158 H         1 UNK         0.0786 
     94 H94        19.9917  -28.4924  -39.6256 H         1 UNK         0.0786 
     95 H95        24.2916  -29.3991  -40.0322 H         1 UNK         0.3172 
     96 H96        24.2574  -29.6482  -37.1414 H         1 UNK         0.0595 
     97 H97        24.9794  -27.2675  -37.3004 H         1 UNK         0.0839 
     98 H98        26.2432  -27.6957  -38.4515 H         1 UNK         0.0839 
     99 H99        26.3294  -28.2683  -36.7901 H         1 UNK         0.0839 
    100 H100       26.1480  -29.6642  -40.1923 H         1 UNK         0.2998 
    101 H101       27.5997  -32.1239  -39.5011 H         1 UNK         0.0822 
    102 H102       28.6898  -30.4256  -40.9549 H         1 UNK         0.0787 
    103 H103       28.4307  -31.9151  -41.8484 H         1 UNK         0.0787 
    104 H104       27.3728  -30.5370  -42.1221 H         1 UNK         0.0787 
    105 H105       24.8923  -31.0428  -41.5852 H         1 UNK         0.3055 
    106 H106       24.0284  -33.7887  -42.2196 H         1 UNK         0.1106 
    107 H107       22.7474  -31.0672  -42.8731 H         1 UNK         0.0828 
    108 H108       23.9045  -31.8882  -43.9187 H         1 UNK         0.0828 
    109 H109       22.3403  -32.6127  -43.5961 H         1 UNK         0.0828 
    110 H110       21.6101  -34.1427  -41.9297 H         1 UNK         0.2931 
    111 H111       19.7748  -34.4159  -40.7973 H         1 UNK         0.0412 
    112 H112       21.9939  -36.0530  -38.0558 H         1 UNK         0.3472 
    113 H113       22.5536  -35.3811  -39.5674 H         1 UNK         0.3472 
    114 H114       20.2783  -32.0004  -39.0141 H         1 UNK         0.0970 
    115 H115       18.7493  -32.7550  -39.3567 H         1 UNK         0.0970 
    116 H116       17.1767  -32.0439  -41.3037 H         1 UNK         0.0612 
    117 H117       18.2061  -33.0805  -42.2724 H         1 UNK         0.0612 
@<TRIPOS>BOND
     1    1    2 1    
     2    1   62 1    
     3    1   63 1    
     4    1   64 1    
     5    2    3 2    
     6    2    4 am   BACKBONE|DICT|INTERRES
     7    4    5 1    
     8    4   65 1    
     9    5    6 1    
    10    5   25 1    
    11    5   66 1    
    12    6    7 1    
    13    6   67 1    
    14    6   68 1    
    15    7    8 1    
    16    8    9 1    
    17    8   69 1    
    18    8   70 1    
    19    9   10 ar   
    20    9   14 ar   
    21   10   11 ar   
    22   10   71 1    
    23   11   12 ar   
    24   11   61 1    
    25   12   13 ar   
    26   12   72 1    
    27   13   14 ar   
    28   13   15 1    
    29   14   73 1    
    30   15   16 1    
    31   15   74 1    
    32   15   75 1    
    33   16   17 1    
    34   17   18 1    
    35   17   76 1    
    36   17   77 1    
    37   18   19 1    
    38   18   27 1    
    39   18   78 1    
    40   19   20 am   BACKBONE|DICT|INTERRES
    41   19   79 1    
    42   20   21 2    
    43   20   22 1    
    44   22   23 1    
    45   22   24 1    
    46   22   80 1    
    47   23   81 1    
    48   23   82 1    
    49   23   83 1    
    50   24   25 am   BACKBONE|DICT|INTERRES
    51   24   84 1    
    52   25   26 2    
    53   27   28 2    
    54   27   29 am   BACKBONE|DICT|INTERRES
    55   29   30 1    
    56   29   85 1    
    57   30   31 1    
    58   30   32 1    
    59   30   86 1    
    60   31   87 1    
    61   31   88 1    
    62   31   89 1    
    63   32   33 2    
    64   32   34 am   BACKBONE|DICT|INTERRES
    65   34   35 1    
    66   34   90 1    
    67   35   36 1    
    68   35   37 1    
    69   35   91 1    
    70   36   92 1    
    71   36   93 1    
    72   36   94 1    
    73   37   38 2    
    74   37   39 am   BACKBONE|DICT|INTERRES
    75   39   40 1    
    76   39   95 1    
    77   40   41 1    
    78   40   42 1    
    79   40   96 1    
    80   41   97 1    
    81   41   98 1    
    82   41   99 1    
    83   42   43 2    
    84   42   44 am   BACKBONE|DICT|INTERRES
    85   44   45 1    
    86   44  100 1    
    87   45   46 1    
    88   45   47 1    
    89   45  101 1    
    90   46  102 1    
    91   46  103 1    
    92   46  104 1    
    93   47   48 2    
    94   47   49 am   BACKBONE|DICT|INTERRES
    95   49   50 1    
    96   49  105 1    
    97   50   51 1    
    98   50   52 1    
    99   50  106 1    
   100   51  107 1    
   101   51  108 1    
   102   51  109 1    
   103   52   53 2    
   104   52   54 am   BACKBONE|DICT|INTERRES
   105   54   55 1    
   106   54  110 1    
   107   55   56 1    
   108   55   59 1    
   109   55  111 1    
   110   56   57 am   BACKBONE|DICT|INTERRES
   111   56   58 2    
   112   57  112 1    
   113   57  113 1    
   114   59   60 1    
   115   59  114 1    
   116   59  115 1    
   117   60   61 1    
   118   61  116 1    
   119   61  117 1    
@<TRIPOS>SUBSTRUCTURE
     1 UNK         1 GROUP             0       ****    0 ROOT    
