@<TRIPOS>MOLECULE
3R8
117   119    1
SMALL
USER_CHARGES


@<TRIPOS>ATOM
      1 CA         13.9125  -24.6924  -45.1197 C.3       0 UNK        -0.2013 
      2 C          15.1486  -25.5530  -44.9082 C.2       0 UNK         0.4866 
      3 O          16.2419  -25.0193  -44.7183 O.2       0 UNK        -0.5176 
      4 N          14.9862  -26.8820  -44.9312 N.am      1 UNK        -0.4884 
      5 CA         16.0503  -27.8781  -44.7515 C.3       1 UNK         0.0853 
      6 C6         15.6674  -29.2376  -45.3919 C.3       10 UNK        -0.0849 
      7 S7         15.7470  -29.1356  -47.2125 S.3       10 UNK        -0.2776 
      8 C8         17.3474  -29.9411  -47.5664 C.3       10 UNK         0.0316 
      9 C9         18.4958  -29.3469  -46.7583 C.ar      10 UNK        -0.0863 
     10 C10        19.0545  -30.0694  -45.6988 C.ar      10 UNK        -0.1009 
     11 C11        20.0948  -29.5266  -44.9407 C.ar      10 UNK        -0.0712 
     12 C12        20.5882  -28.2604  -45.2592 C.ar      10 UNK        -0.0894 
     13 C13        20.0226  -27.5134  -46.2968 C.ar      10 UNK        -0.0745 
     14 C14        18.9846  -28.0696  -47.0528 C.ar      10 UNK        -0.0972 
     15 C15        20.5267  -26.1089  -46.6033 C.3       10 UNK         0.0209 
     16 S16        19.9420  -24.8833  -45.3817 S.3       10 UNK        -0.2568 
     17 C17        21.2568  -24.9614  -44.1155 C.3       10 UNK        -0.0983 
     18 CA         20.7630  -25.0206  -42.6419 C.3       3 UNK         0.0876 
     19 N          19.6096  -25.9109  -42.4451 N.am      3 UNK        -0.4424 
     20 C          18.8113  -25.8879  -41.3658 C.2       2 UNK         0.4918 
     21 O          19.0097  -25.1585  -40.3935 O.2       2 UNK        -0.4875 
     22 CA         17.5812  -26.8121  -41.3865 C.3       2 UNK         0.0481 
     23 CB         16.4587  -26.3422  -40.4408 C.3       2 UNK        -0.1831 
     24 N          17.0648  -26.9343  -42.7471 N.am      2 UNK        -0.4498 
     25 C          16.4565  -28.0038  -43.2687 C.2       1 UNK         0.5027 
     26 O          16.2027  -29.0294  -42.6341 O.2       1 UNK        -0.4969 
     27 C          21.9585  -25.3658  -41.7254 C.2       3 UNK         0.5005 
     28 O          22.8246  -24.5129  -41.5286 O.2       3 UNK        -0.5279 
     29 N          22.0173  -26.6212  -41.2455 N.am      4 UNK        -0.4463 
     30 CA         23.1352  -27.2552  -40.5253 C.3       4 UNK         0.0283 
     31 CB         23.4499  -26.5294  -39.2008 C.3       4 UNK        -0.1875 
     32 C          24.3891  -27.4652  -41.4013 C.2       4 UNK         0.4949 
     33 O          25.4795  -27.6854  -40.8737 O.2       4 UNK        -0.5039 
     34 N          24.2094  -27.4242  -42.7302 N.am      5 UNK        -0.4663 
     35 CA         25.2603  -27.5953  -43.7385 C.3       5 UNK         0.0242 
     36 CB         24.7226  -27.1344  -45.1036 C.3       5 UNK        -0.1982 
     37 C          25.7920  -29.0360  -43.8292 C.2       5 UNK         0.5017 
     38 O          26.9319  -29.2322  -44.2502 O.2       5 UNK        -0.5012 
     39 N          24.9648  -30.0053  -43.4188 N.am      6 UNK        -0.4439 
     40 CA         25.2889  -31.4289  -43.3403 C.3       6 UNK         0.0297 
     41 CB         24.2973  -32.2264  -44.2092 C.3       6 UNK        -0.2006 
     42 C          25.2958  -31.8807  -41.8704 C.2       6 UNK         0.4892 
     43 O          24.7019  -32.9103  -41.5445 O.2       6 UNK        -0.5089 
     44 N          25.9520  -31.0850  -41.0101 N.am      7 UNK        -0.4243 
     45 CA         26.1463  -31.2814  -39.5682 C.3       7 UNK         0.0196 
     46 CB         27.1298  -32.4451  -39.3078 C.3       7 UNK        -0.2007 
     47 C          24.8113  -31.4240  -38.8156 C.2       7 UNK         0.5020 
     48 O          24.1809  -30.4122  -38.5089 O.2       7 UNK        -0.5147 
     49 N          24.3929  -32.6717  -38.5602 N.am      8 UNK        -0.4734 
     50 CA         23.1020  -33.0309  -37.9651 C.3       8 UNK         0.0238 
     51 CB         23.0965  -34.5341  -37.6431 C.3       8 UNK        -0.1912 
     52 C          21.8895  -32.6628  -38.8419 C.2       8 UNK         0.5038 
     53 O          20.7951  -32.5037  -38.2995 O.2       8 UNK        -0.5046 
     54 N          22.1070  -32.5056  -40.1566 N.am      9 UNK        -0.4200 
     55 CA         21.1168  -32.0618  -41.1475 C.3       9 UNK         0.0839 
     56 C          19.9844  -33.1073  -41.3856 C.2       9 UNK         0.5513 
     57 N          18.8168  -32.6898  -41.8561 N.am      9 UNK        -0.7519 
     58 O          20.1715  -34.3075  -41.1949 O.2       9 UNK        -0.4960 
     59 C59        20.6143  -30.6180  -40.8309 C.3       10 UNK        -0.0876 
     60 S60        20.0466  -29.5497  -42.2051 S.3       10 UNK        -0.2414 
     61 C61        20.6615  -30.2855  -43.7524 C.3       10 UNK         0.0169 
     62 H62        13.7440  -24.0584  -44.2496 H         1 UNK         0.0903 
     63 H63        14.0487  -24.0493  -45.9887 H         1 UNK         0.0903 
     64 H64        13.0181  -25.2941  -45.2800 H         1 UNK         0.0903 
     65 H65        14.0616  -27.2614  -45.0786 H         1 UNK         0.3096 
     66 H66        16.9420  -27.5108  -45.2631 H         1 UNK         0.1121 
     67 H67        16.3246  -30.0413  -45.0563 H         1 UNK         0.0849 
     68 H68        14.6618  -29.5380  -45.0928 H         1 UNK         0.0849 
     69 H69        17.2551  -31.0113  -47.3744 H         1 UNK         0.0865 
     70 H70        17.5660  -29.8433  -48.6307 H         1 UNK         0.0865 
     71 H71        18.6680  -31.0490  -45.4520 H         1 UNK         0.1346 
     72 H72        21.3973  -27.8560  -44.6735 H         1 UNK         0.1412 
     73 H73        18.5400  -27.5024  -47.8596 H         1 UNK         0.1426 
     74 H74        21.6164  -26.1033  -46.6564 H         1 UNK         0.0716 
     75 H75        20.1805  -25.7961  -47.5896 H         1 UNK         0.0716 
     76 H76        21.9147  -25.7989  -44.3397 H         1 UNK         0.0695 
     77 H77        21.8811  -24.0758  -44.2495 H         1 UNK         0.0695 
     78 H78        20.4376  -24.0146  -42.3668 H         1 UNK         0.0983 
     79 H79        19.3771  -26.5237  -43.2136 H         1 UNK         0.3095 
     80 H80        17.9258  -27.7897  -41.0455 H         1 UNK         0.0454 
     81 H81        16.0897  -25.3541  -40.7177 H         1 UNK         0.0851 
     82 H82        15.6142  -27.0311  -40.4532 H         1 UNK         0.0851 
     83 H83        16.8100  -26.2851  -39.4099 H         1 UNK         0.0851 
     84 H84        17.1401  -26.1080  -43.3369 H         1 UNK         0.2976 
     85 H85        21.2377  -27.2300  -41.4571 H         1 UNK         0.3116 
     86 H86        22.7947  -28.2560  -40.2629 H         1 UNK         0.0646 
     87 H87        24.1449  -27.1132  -38.5955 H         1 UNK         0.0847 
     88 H88        22.5496  -26.3816  -38.6047 H         1 UNK         0.0847 
     89 H89        23.9086  -25.5546  -39.3674 H         1 UNK         0.0847 
     90 H90        23.2825  -27.2235  -43.0697 H         1 UNK         0.3040 
     91 H91        26.1016  -26.9547  -43.4636 H         1 UNK         0.1015 
     92 H92        24.4088  -26.0906  -45.0761 H         1 UNK         0.0786 
     93 H93        23.8729  -27.7351  -45.4306 H         1 UNK         0.0786 
     94 H94        25.4922  -27.2169  -45.8726 H         1 UNK         0.0786 
     95 H95        24.0664  -29.7268  -43.0531 H         1 UNK         0.3172 
     96 H96        26.2928  -31.6153  -43.7268 H         1 UNK         0.0595 
     97 H97        23.2743  -32.1419  -43.8451 H         1 UNK         0.0839 
     98 H98        24.5520  -33.2870  -44.2172 H         1 UNK         0.0839 
     99 H99        24.3138  -31.8839  -45.2439 H         1 UNK         0.0839 
    100 H100       26.3444  -30.2293  -41.3796 H         1 UNK         0.2998 
    101 H101       26.6109  -30.3684  -39.1917 H         1 UNK         0.0822 
    102 H102       28.1115  -32.2239  -39.7268 H         1 UNK         0.0787 
    103 H103       27.2694  -32.6101  -38.2384 H         1 UNK         0.0787 
    104 H104       26.7932  -33.3846  -39.7473 H         1 UNK         0.0787 
    105 H105       24.9654  -33.4340  -38.8947 H         1 UNK         0.3055 
    106 H106       23.0006  -32.4761  -37.0296 H         1 UNK         0.1106 
    107 H107       22.1585  -34.8282  -37.1697 H         1 UNK         0.0828 
    108 H108       23.2103  -35.1399  -38.5431 H         1 UNK         0.0828 
    109 H109       23.9002  -34.7971  -36.9551 H         1 UNK         0.0828 
    110 H110       23.0334  -32.7106  -40.5193 H         1 UNK         0.2931 
    111 H111       21.6934  -32.0387  -42.0688 H         1 UNK         0.0412 
    112 H112       18.0851  -33.3612  -42.0284 H         1 UNK         0.3472 
    113 H113       18.6549  -31.7082  -42.0266 H         1 UNK         0.3472 
    114 H114       19.8201  -30.6524  -40.0827 H         1 UNK         0.0970 
    115 H115       21.4184  -30.0637  -40.3478 H         1 UNK         0.0970 
    116 H116       21.7507  -30.2432  -43.7716 H         1 UNK         0.0612 
    117 H117       20.3769  -31.3357  -43.8171 H         1 UNK         0.0612 
@<TRIPOS>BOND
     1    1    2 1    
     2    1   62 1    
     3    1   63 1    
     4    1   64 1    
     5    2    3 2    
     6    2    4 am   BACKBONE|DICT|INTERRES
     7    4    5 1    
     8    4   65 1    
     9    5    6 1    
    10    5   25 1    
    11    5   66 1    
    12    6    7 1    
    13    6   67 1    
    14    6   68 1    
    15    7    8 1    
    16    8    9 1    
    17    8   69 1    
    18    8   70 1    
    19    9   10 ar   
    20    9   14 ar   
    21   10   11 ar   
    22   10   71 1    
    23   11   12 ar   
    24   11   61 1    
    25   12   13 ar   
    26   12   72 1    
    27   13   14 ar   
    28   13   15 1    
    29   14   73 1    
    30   15   16 1    
    31   15   74 1    
    32   15   75 1    
    33   16   17 1    
    34   17   18 1    
    35   17   76 1    
    36   17   77 1    
    37   18   19 1    
    38   18   27 1    
    39   18   78 1    
    40   19   20 am   BACKBONE|DICT|INTERRES
    41   19   79 1    
    42   20   21 2    
    43   20   22 1    
    44   22   23 1    
    45   22   24 1    
    46   22   80 1    
    47   23   81 1    
    48   23   82 1    
    49   23   83 1    
    50   24   25 am   BACKBONE|DICT|INTERRES
    51   24   84 1    
    52   25   26 2    
    53   27   28 2    
    54   27   29 am   BACKBONE|DICT|INTERRES
    55   29   30 1    
    56   29   85 1    
    57   30   31 1    
    58   30   32 1    
    59   30   86 1    
    60   31   87 1    
    61   31   88 1    
    62   31   89 1    
    63   32   33 2    
    64   32   34 am   BACKBONE|DICT|INTERRES
    65   34   35 1    
    66   34   90 1    
    67   35   36 1    
    68   35   37 1    
    69   35   91 1    
    70   36   92 1    
    71   36   93 1    
    72   36   94 1    
    73   37   38 2    
    74   37   39 am   BACKBONE|DICT|INTERRES
    75   39   40 1    
    76   39   95 1    
    77   40   41 1    
    78   40   42 1    
    79   40   96 1    
    80   41   97 1    
    81   41   98 1    
    82   41   99 1    
    83   42   43 2    
    84   42   44 am   BACKBONE|DICT|INTERRES
    85   44   45 1    
    86   44  100 1    
    87   45   46 1    
    88   45   47 1    
    89   45  101 1    
    90   46  102 1    
    91   46  103 1    
    92   46  104 1    
    93   47   48 2    
    94   47   49 am   BACKBONE|DICT|INTERRES
    95   49   50 1    
    96   49  105 1    
    97   50   51 1    
    98   50   52 1    
    99   50  106 1    
   100   51  107 1    
   101   51  108 1    
   102   51  109 1    
   103   52   53 2    
   104   52   54 am   BACKBONE|DICT|INTERRES
   105   54   55 1    
   106   54  110 1    
   107   55   56 1    
   108   55   59 1    
   109   55  111 1    
   110   56   57 am   BACKBONE|DICT|INTERRES
   111   56   58 2    
   112   57  112 1    
   113   57  113 1    
   114   59   60 1    
   115   59  114 1    
   116   59  115 1    
   117   60   61 1    
   118   61  116 1    
   119   61  117 1    
@<TRIPOS>SUBSTRUCTURE
     1 UNK         1 GROUP             0       ****    0 ROOT    
