@<TRIPOS>MOLECULE
3R8
117   119    1
SMALL
USER_CHARGES


@<TRIPOS>ATOM
      1 CA         19.8429  -23.2270  -40.2507 C.3       0 UNK        -0.2013 
      2 C          18.9714  -23.7032  -41.4028 C.2       0 UNK         0.4866 
      3 O          18.4802  -22.8825  -42.1789 O.2       0 UNK        -0.5176 
      4 N          18.7706  -25.0218  -41.5169 N.am      1 UNK        -0.4884 
      5 CA         18.0506  -25.6675  -42.6190 C.3       1 UNK         0.0853 
      6 C6         17.5215  -27.0662  -42.2079 C.3       10 UNK        -0.0849 
      7 S7         18.8102  -28.2201  -41.6170 S.3       10 UNK        -0.2776 
      8 C8         17.8449  -29.7602  -41.4109 C.3       10 UNK         0.0316 
      9 C9         17.7014  -30.6258  -42.6664 C.ar      10 UNK        -0.0863 
     10 C10        17.3557  -31.9741  -42.5166 C.ar      10 UNK        -0.1009 
     11 C11        17.2583  -32.8168  -43.6296 C.ar      10 UNK        -0.0712 
     12 C12        17.4812  -32.2995  -44.9073 C.ar      10 UNK        -0.0894 
     13 C13        17.8280  -30.9589  -45.0743 C.ar      10 UNK        -0.0745 
     14 C14        17.9210  -30.1273  -43.9568 C.ar      10 UNK        -0.0972 
     15 C15        18.1333  -30.4155  -46.4599 C.3       10 UNK         0.0209 
     16 S16        19.8035  -30.8804  -47.0256 S.3       10 UNK        -0.2568 
     17 C17        20.9201  -30.1118  -45.7981 C.3       10 UNK        -0.0983 
     18 CA         21.3184  -28.6661  -46.1871 C.3       3 UNK         0.0876 
     19 N          20.1896  -27.7414  -46.0434 N.am      3 UNK        -0.4424 
     20 C          20.0279  -26.6164  -46.7485 C.2       2 UNK         0.4918 
     21 O          20.7998  -26.2491  -47.6346 O.2       2 UNK        -0.4875 
     22 CA         18.8027  -25.7419  -46.4140 C.3       2 UNK         0.0481 
     23 CB         17.6868  -25.9862  -47.4430 C.3       2 UNK        -0.1831 
     24 N          18.2429  -25.8850  -45.0603 N.am      2 UNK        -0.4498 
     25 C          18.9050  -25.6947  -43.9084 C.2       1 UNK         0.5027 
     26 O          20.1286  -25.5476  -43.8453 O.2       1 UNK        -0.4969 
     27 C          22.5706  -28.1944  -45.4113 C.2       3 UNK         0.5005 
     28 O          23.6394  -28.7733  -45.6163 O.2       3 UNK        -0.5279 
     29 N          22.4414  -27.1550  -44.5676 N.am      4 UNK        -0.4463 
     30 CA         23.4793  -26.5734  -43.7118 C.3       4 UNK         0.0283 
     31 CB         24.5850  -25.8974  -44.5554 C.3       4 UNK        -0.1875 
     32 C          23.9857  -27.6000  -42.6819 C.2       4 UNK         0.4949 
     33 O          23.1692  -28.1106  -41.9151 O.2       4 UNK        -0.5039 
     34 N          25.3031  -27.8589  -42.6522 N.am      5 UNK        -0.4663 
     35 CA         25.9916  -28.8524  -41.8113 C.3       5 UNK         0.0242 
     36 CB         25.6342  -30.2784  -42.2845 C.3       5 UNK        -0.1982 
     37 C          25.7662  -28.6528  -40.2970 C.2       5 UNK         0.5017 
     38 O          25.6611  -29.6313  -39.5572 O.2       5 UNK        -0.5012 
     39 N          25.6826  -27.3809  -39.8749 N.am      6 UNK        -0.4439 
     40 CA         25.3210  -26.9173  -38.5277 C.3       6 UNK         0.0297 
     41 CB         26.3820  -27.3329  -37.4851 C.3       6 UNK        -0.2006 
     42 C          23.8838  -27.3181  -38.1295 C.2       6 UNK         0.4892 
     43 O          23.6449  -27.6910  -36.9797 O.2       6 UNK        -0.5089 
     44 N          22.9634  -27.2130  -39.1006 N.am      7 UNK        -0.4243 
     45 CA         21.5436  -27.5731  -39.0512 C.3       7 UNK         0.0196 
     46 CB         20.7837  -26.7503  -37.9875 C.3       7 UNK        -0.2007 
     47 C          21.3542  -29.0924  -38.9023 C.2       7 UNK         0.5020 
     48 O          20.7476  -29.5492  -37.9310 O.2       7 UNK        -0.5147 
     49 N          21.8896  -29.8487  -39.8671 N.am      8 UNK        -0.4734 
     50 CA         21.7972  -31.3063  -39.9273 C.3       8 UNK         0.0238 
     51 CB         23.1282  -31.9217  -39.4638 C.3       8 UNK        -0.1912 
     52 C          21.4499  -31.7595  -41.3503 C.2       8 UNK         0.5038 
     53 O          21.7180  -31.0406  -42.3145 O.2       8 UNK        -0.5046 
     54 N          20.8684  -32.9605  -41.4406 N.am      9 UNK        -0.4200 
     55 CA         20.4873  -33.6284  -42.6901 C.3       9 UNK         0.0839 
     56 C          21.7206  -34.0535  -43.5312 C.2       9 UNK         0.5513 
     57 N          21.6978  -33.8202  -44.8364 N.am      9 UNK        -0.7519 
     58 O          22.6775  -34.6246  -43.0119 O.2       9 UNK        -0.4960 
     59 C59        19.5417  -34.8230  -42.3823 C.3       10 UNK        -0.0876 
     60 S60        18.4746  -35.2920  -43.7863 S.3       10 UNK        -0.2414 
     61 C61        16.9785  -34.3016  -43.4589 C.3       10 UNK         0.0169 
     62 H62        19.2500  -22.6443  -39.5463 H         1 UNK         0.0903 
     63 H63        20.2935  -24.0590  -39.7118 H         1 UNK         0.0903 
     64 H64        20.6472  -22.5945  -40.6256 H         1 UNK         0.0903 
     65 H65        19.2208  -25.6581  -40.8752 H         1 UNK         0.3096 
     66 H66        17.1787  -25.0476  -42.8419 H         1 UNK         0.1121 
     67 H67        16.7977  -26.9449  -41.4002 H         1 UNK         0.0849 
     68 H68        16.9597  -27.5220  -43.0241 H         1 UNK         0.0849 
     69 H69        18.3421  -30.3478  -40.6373 H         1 UNK         0.0865 
     70 H70        16.8536  -29.5221  -41.0230 H         1 UNK         0.0865 
     71 H71        17.1953  -32.3783  -41.5263 H         1 UNK         0.1346 
     72 H72        17.4264  -32.9518  -45.7685 H         1 UNK         0.1412 
     73 H73        18.1990  -29.0969  -44.1046 H         1 UNK         0.1426 
     74 H74        18.0187  -29.3322  -46.4884 H         1 UNK         0.0716 
     75 H75        17.4044  -30.8095  -47.1696 H         1 UNK         0.0716 
     76 H76        21.8041  -30.7513  -45.7550 H         1 UNK         0.0695 
     77 H77        20.4922  -30.1500  -44.7963 H         1 UNK         0.0695 
     78 H78        21.6171  -28.6800  -47.2380 H         1 UNK         0.0983 
     79 H79        19.5247  -27.9523  -45.3172 H         1 UNK         0.3095 
     80 H80        19.1256  -24.7034  -46.5111 H         1 UNK         0.0454 
     81 H81        18.0579  -25.8614  -48.4614 H         1 UNK         0.0851 
     82 H82        16.8650  -25.2816  -47.3154 H         1 UNK         0.0851 
     83 H83        17.2804  -26.9954  -47.3675 H         1 UNK         0.0851 
     84 H84        17.2418  -26.0137  -45.0168 H         1 UNK         0.2976 
     85 H85        21.5203  -26.7425  -44.4444 H         1 UNK         0.3116 
     86 H86        22.9855  -25.7897  -43.1352 H         1 UNK         0.0646 
     87 H87        24.1571  -25.1611  -45.2359 H         1 UNK         0.0847 
     88 H88        25.1449  -26.6121  -45.1594 H         1 UNK         0.0847 
     89 H89        25.2959  -25.3649  -43.9224 H         1 UNK         0.0847 
     90 H90        25.8871  -27.3738  -43.3195 H         1 UNK         0.3040 
     91 H91        27.0616  -28.7117  -41.9726 H         1 UNK         0.1015 
     92 H92        26.1979  -31.0331  -41.7347 H         1 UNK         0.0786 
     93 H93        25.8624  -30.4119  -43.3419 H         1 UNK         0.0786 
     94 H94        24.5742  -30.4942  -42.1462 H         1 UNK         0.0786 
     95 H95        25.8004  -26.6574  -40.5710 H         1 UNK         0.3172 
     96 H96        25.3242  -25.8272  -38.5737 H         1 UNK         0.0595 
     97 H97        26.1845  -26.8630  -36.5208 H         1 UNK         0.0839 
     98 H98        27.3826  -27.0298  -37.7929 H         1 UNK         0.0839 
     99 H99        26.3924  -28.4108  -37.3214 H         1 UNK         0.0839 
    100 H100       23.3010  -27.0004  -40.0304 H         1 UNK         0.2998 
    101 H101       21.1347  -27.3029  -40.0254 H         1 UNK         0.0822 
    102 H102       20.9632  -25.6826  -38.1049 H         1 UNK         0.0787 
    103 H103       19.7086  -26.9140  -38.0700 H         1 UNK         0.0787 
    104 H104       21.0747  -27.0253  -36.9733 H         1 UNK         0.0787 
    105 H105       22.3207  -29.3999  -40.6744 H         1 UNK         0.3055 
    106 H106       20.9989  -31.6529  -39.2668 H         1 UNK         0.1106 
    107 H107       23.3934  -31.5850  -38.4614 H         1 UNK         0.0828 
    108 H108       23.0724  -33.0105  -39.4378 H         1 UNK         0.0828 
    109 H109       23.9478  -31.6546  -40.1305 H         1 UNK         0.0828 
    110 H110       20.7354  -33.4989  -40.5980 H         1 UNK         0.2931 
    111 H111       19.9375  -32.8856  -43.2690 H         1 UNK         0.0412 
    112 H112       20.9073  -33.3631  -45.2643 H         1 UNK         0.3472 
    113 H113       22.4833  -34.1021  -45.4012 H         1 UNK         0.3472 
    114 H114       20.1106  -35.6991  -42.0648 H         1 UNK         0.0970 
    115 H115       18.8886  -34.5834  -41.5417 H         1 UNK         0.0970 
    116 H116       16.6033  -34.5200  -42.4580 H         1 UNK         0.0612 
    117 H117       16.1946  -34.6036  -44.1549 H         1 UNK         0.0612 
@<TRIPOS>BOND
     1    1    2 1    
     2    1   62 1    
     3    1   63 1    
     4    1   64 1    
     5    2    3 2    
     6    2    4 am   BACKBONE|DICT|INTERRES
     7    4    5 1    
     8    4   65 1    
     9    5    6 1    
    10    5   25 1    
    11    5   66 1    
    12    6    7 1    
    13    6   67 1    
    14    6   68 1    
    15    7    8 1    
    16    8    9 1    
    17    8   69 1    
    18    8   70 1    
    19    9   10 ar   
    20    9   14 ar   
    21   10   11 ar   
    22   10   71 1    
    23   11   12 ar   
    24   11   61 1    
    25   12   13 ar   
    26   12   72 1    
    27   13   14 ar   
    28   13   15 1    
    29   14   73 1    
    30   15   16 1    
    31   15   74 1    
    32   15   75 1    
    33   16   17 1    
    34   17   18 1    
    35   17   76 1    
    36   17   77 1    
    37   18   19 1    
    38   18   27 1    
    39   18   78 1    
    40   19   20 am   BACKBONE|DICT|INTERRES
    41   19   79 1    
    42   20   21 2    
    43   20   22 1    
    44   22   23 1    
    45   22   24 1    
    46   22   80 1    
    47   23   81 1    
    48   23   82 1    
    49   23   83 1    
    50   24   25 am   BACKBONE|DICT|INTERRES
    51   24   84 1    
    52   25   26 2    
    53   27   28 2    
    54   27   29 am   BACKBONE|DICT|INTERRES
    55   29   30 1    
    56   29   85 1    
    57   30   31 1    
    58   30   32 1    
    59   30   86 1    
    60   31   87 1    
    61   31   88 1    
    62   31   89 1    
    63   32   33 2    
    64   32   34 am   BACKBONE|DICT|INTERRES
    65   34   35 1    
    66   34   90 1    
    67   35   36 1    
    68   35   37 1    
    69   35   91 1    
    70   36   92 1    
    71   36   93 1    
    72   36   94 1    
    73   37   38 2    
    74   37   39 am   BACKBONE|DICT|INTERRES
    75   39   40 1    
    76   39   95 1    
    77   40   41 1    
    78   40   42 1    
    79   40   96 1    
    80   41   97 1    
    81   41   98 1    
    82   41   99 1    
    83   42   43 2    
    84   42   44 am   BACKBONE|DICT|INTERRES
    85   44   45 1    
    86   44  100 1    
    87   45   46 1    
    88   45   47 1    
    89   45  101 1    
    90   46  102 1    
    91   46  103 1    
    92   46  104 1    
    93   47   48 2    
    94   47   49 am   BACKBONE|DICT|INTERRES
    95   49   50 1    
    96   49  105 1    
    97   50   51 1    
    98   50   52 1    
    99   50  106 1    
   100   51  107 1    
   101   51  108 1    
   102   51  109 1    
   103   52   53 2    
   104   52   54 am   BACKBONE|DICT|INTERRES
   105   54   55 1    
   106   54  110 1    
   107   55   56 1    
   108   55   59 1    
   109   55  111 1    
   110   56   57 am   BACKBONE|DICT|INTERRES
   111   56   58 2    
   112   57  112 1    
   113   57  113 1    
   114   59   60 1    
   115   59  114 1    
   116   59  115 1    
   117   60   61 1    
   118   61  116 1    
   119   61  117 1    
@<TRIPOS>SUBSTRUCTURE
     1 UNK         1 GROUP             0       ****    0 ROOT    
