@<TRIPOS>MOLECULE
3R8
117   119    1
SMALL
USER_CHARGES


@<TRIPOS>ATOM
      1 CA         15.2915  -23.2299  -44.3393 C.3       0 UNK        -0.2013 
      2 C          16.0122  -24.5647  -44.2312 C.2       0 UNK         0.4866 
      3 O          17.0907  -24.7289  -44.8050 O.2       0 UNK        -0.5176 
      4 N          15.4334  -25.5224  -43.4948 N.am      1 UNK        -0.4884 
      5 CA         15.9819  -26.8668  -43.2818 C.3       1 UNK         0.0853 
      6 C6         14.8791  -27.9106  -42.9667 C.3       10 UNK        -0.0849 
      7 S7         13.8803  -28.2700  -44.4533 S.3       10 UNK        -0.2776 
      8 C8         14.6572  -29.8030  -45.0775 C.3       10 UNK         0.0316 
      9 C9         16.1624  -29.6546  -45.2680 C.ar      10 UNK        -0.0863 
     10 C10        17.0466  -30.2849  -44.3878 C.ar      10 UNK        -0.1009 
     11 C11        18.4253  -30.0978  -44.5130 C.ar      10 UNK        -0.0712 
     12 C12        18.9180  -29.2895  -45.5396 C.ar      10 UNK        -0.0894 
     13 C13        18.0494  -28.6564  -46.4387 C.ar      10 UNK        -0.0745 
     14 C14        16.6715  -28.8574  -46.2987 C.ar      10 UNK        -0.0972 
     15 C15        18.5368  -27.7592  -47.5796 C.3       10 UNK         0.0209 
     16 S16        20.3480  -27.5478  -47.7238 S.3       10 UNK        -0.2568 
     17 C17        20.6862  -26.0859  -46.6712 C.3       10 UNK        -0.0983 
     18 CA         21.4199  -26.3022  -45.3109 C.3       3 UNK         0.0876 
     19 N          20.4670  -26.4589  -44.2100 N.am      3 UNK        -0.4424 
     20 C          20.6719  -26.0223  -42.9581 C.2       2 UNK         0.4918 
     21 O          21.6974  -25.4403  -42.6033 O.2       2 UNK        -0.4875 
     22 CA         19.5258  -26.2201  -41.9484 C.3       2 UNK         0.0481 
     23 CB         19.5100  -25.1442  -40.8445 C.3       2 UNK        -0.1831 
     24 N          18.2430  -26.2474  -42.6471 N.am      2 UNK        -0.4498 
     25 C          17.1217  -26.8519  -42.2447 C.2       1 UNK         0.5027 
     26 O          16.9675  -27.3622  -41.1338 O.2       1 UNK        -0.4969 
     27 C          22.4645  -27.4404  -45.3061 C.2       3 UNK         0.5005 
     28 O          22.2645  -28.4614  -44.6411 O.2       3 UNK        -0.5279 
     29 N          23.5438  -27.2480  -46.0811 N.am      4 UNK        -0.4463 
     30 CA         24.6487  -28.1883  -46.3032 C.3       4 UNK         0.0283 
     31 CB         24.1649  -29.4029  -47.1302 C.3       4 UNK        -0.1875 
     32 C          25.3548  -28.5561  -44.9836 C.2       4 UNK         0.4949 
     33 O          25.8836  -27.6621  -44.3191 O.2       4 UNK        -0.5039 
     34 N          25.3498  -29.8436  -44.6146 N.am      5 UNK        -0.4663 
     35 CA         25.8749  -30.3666  -43.3530 C.3       5 UNK         0.0242 
     36 CB         26.1154  -31.8805  -43.5015 C.3       5 UNK        -0.1982 
     37 C          24.9282  -30.0356  -42.1846 C.2       5 UNK         0.5017 
     38 O          24.2656  -30.9280  -41.6537 O.2       5 UNK        -0.5012 
     39 N          24.8808  -28.7519  -41.8062 N.am      6 UNK        -0.4439 
     40 CA         24.0042  -28.1805  -40.7768 C.3       6 UNK         0.0297 
     41 CB         24.2793  -26.6731  -40.6656 C.3       6 UNK        -0.2006 
     42 C          24.1081  -28.8444  -39.3897 C.2       6 UNK         0.4892 
     43 O          23.1216  -28.8513  -38.6550 O.2       6 UNK        -0.5089 
     44 N          25.2847  -29.3988  -39.0643 N.am      7 UNK        -0.4243 
     45 CA         25.5361  -30.1611  -37.8389 C.3       7 UNK         0.0196 
     46 CB         27.0532  -30.2659  -37.6136 C.3       7 UNK        -0.2007 
     47 C          24.8984  -31.5633  -37.8506 C.2       7 UNK         0.5020 
     48 O          24.5645  -32.0757  -36.7820 O.2       7 UNK        -0.5147 
     49 N          24.7510  -32.1648  -39.0394 N.am      8 UNK        -0.4734 
     50 CA         24.1055  -33.4672  -39.2340 C.3       8 UNK         0.0238 
     51 CB         24.7565  -34.1858  -40.4276 C.3       8 UNK        -0.1912 
     52 C          22.5912  -33.3225  -39.4544 C.2       8 UNK         0.5038 
     53 O          21.8382  -34.2151  -39.0635 O.2       8 UNK        -0.5046 
     54 N          22.1846  -32.2085  -40.0770 N.am      9 UNK        -0.4200 
     55 CA         20.7980  -31.7903  -40.3151 C.3       9 UNK         0.0839 
     56 C          19.9576  -31.7073  -39.0079 C.2       9 UNK         0.5513 
     57 N          18.7333  -32.2171  -39.0204 N.am      9 UNK        -0.7519 
     58 O          20.3955  -31.1621  -37.9973 O.2       9 UNK        -0.4960 
     59 C59        20.7900  -30.4498  -41.0938 C.3       10 UNK        -0.0876 
     60 S60        19.1868  -30.0601  -41.8658 S.3       10 UNK        -0.2414 
     61 C61        19.3869  -30.7547  -43.5337 C.3       10 UNK         0.0169 
     62 H62        15.0727  -23.0065  -45.3831 H         1 UNK         0.0903 
     63 H63        14.3516  -23.2275  -43.7876 H         1 UNK         0.0903 
     64 H64        15.9196  -22.4319  -43.9443 H         1 UNK         0.0903 
     65 H65        14.5553  -25.3316  -43.0330 H         1 UNK         0.3096 
     66 H66        16.4581  -27.1742  -44.2126 H         1 UNK         0.1121 
     67 H67        15.3075  -28.8459  -42.6015 H         1 UNK         0.0849 
     68 H68        14.2240  -27.5531  -42.1706 H         1 UNK         0.0849 
     69 H69        14.4337  -30.6202  -44.3897 H         1 UNK         0.0865 
     70 H70        14.1969  -30.0732  -46.0289 H         1 UNK         0.0865 
     71 H71        16.6653  -30.8998  -43.5837 H         1 UNK         0.1346 
     72 H72        19.9865  -29.1660  -45.6276 H         1 UNK         0.1412 
     73 H73        15.9863  -28.3682  -46.9783 H         1 UNK         0.1426 
     74 H74        18.0606  -26.7808  -47.5004 H         1 UNK         0.0716 
     75 H75        18.1851  -28.1910  -48.5176 H         1 UNK         0.0716 
     76 H76        19.7632  -25.5242  -46.5172 H         1 UNK         0.0695 
     77 H77        21.3020  -25.4272  -47.2856 H         1 UNK         0.0695 
     78 H78        21.9800  -25.3839  -45.1177 H         1 UNK         0.0983 
     79 H79        19.6466  -27.0112  -44.4094 H         1 UNK         0.3095 
     80 H80        19.6916  -27.1902  -41.4783 H         1 UNK         0.0454 
     81 H81        19.3709  -24.1462  -41.2611 H         1 UNK         0.0851 
     82 H82        20.4471  -25.1399  -40.2863 H         1 UNK         0.0851 
     83 H83        18.7111  -25.3220  -40.1249 H         1 UNK         0.0851 
     84 H84        18.2068  -25.7555  -43.5370 H         1 UNK         0.2976 
     85 H85        23.6267  -26.3669  -46.5694 H         1 UNK         0.3116 
     86 H86        25.3898  -27.6584  -46.9035 H         1 UNK         0.0646 
     87 H87        23.4021  -29.9831  -46.6097 H         1 UNK         0.0847 
     88 H88        24.9910  -30.0733  -47.3710 H         1 UNK         0.0847 
     89 H89        23.7340  -29.0797  -48.0780 H         1 UNK         0.0847 
     90 H90        24.8494  -30.4993  -45.1969 H         1 UNK         0.3040 
     91 H91        26.8377  -29.8940  -43.1454 H         1 UNK         0.1015 
     92 H92        26.8293  -32.0924  -44.2976 H         1 UNK         0.0786 
     93 H93        25.1932  -32.4184  -43.7261 H         1 UNK         0.0786 
     94 H94        26.5236  -32.3025  -42.5821 H         1 UNK         0.0786 
     95 H95        25.4085  -28.0938  -42.3711 H         1 UNK         0.3172 
     96 H96        22.9791  -28.3099  -41.1281 H         1 UNK         0.0595 
     97 H97        25.2944  -26.4709  -40.3215 H         1 UNK         0.0839 
     98 H98        23.5935  -26.2025  -39.9596 H         1 UNK         0.0839 
     99 H99        24.1442  -26.1728  -41.6248 H         1 UNK         0.0839 
    100 H100       26.0448  -29.3269  -39.7247 H         1 UNK         0.2998 
    101 H101       25.1040  -29.6113  -36.9996 H         1 UNK         0.0822 
    102 H102       27.5110  -29.2802  -37.5274 H         1 UNK         0.0787 
    103 H103       27.2737  -30.8052  -36.6912 H         1 UNK         0.0787 
    104 H104       27.5478  -30.7975  -38.4276 H         1 UNK         0.0787 
    105 H105       24.9907  -31.6530  -39.8807 H         1 UNK         0.3055 
    106 H106       24.2536  -34.0848  -38.3449 H         1 UNK         0.1106 
    107 H107       24.3246  -35.1779  -40.5660 H         1 UNK         0.0828 
    108 H108       24.6138  -33.6374  -41.3592 H         1 UNK         0.0828 
    109 H109       25.8278  -34.3174  -40.2758 H         1 UNK         0.0828 
    110 H110       22.9014  -31.5765  -40.4155 H         1 UNK         0.2931 
    111 H111       20.3625  -32.5584  -40.9574 H         1 UNK         0.0412 
    112 H112       18.3589  -32.6446  -39.8531 H         1 UNK         0.3472 
    113 H113       18.1694  -32.1630  -38.1867 H         1 UNK         0.3472 
    114 H114       21.0571  -29.6253  -40.4303 H         1 UNK         0.0970 
    115 H115       21.5532  -30.4543  -41.8738 H         1 UNK         0.0970 
    116 H116       19.2073  -31.8301  -43.5020 H         1 UNK         0.0612 
    117 H117       20.4167  -30.6189  -43.8681 H         1 UNK         0.0612 
@<TRIPOS>BOND
     1    1    2 1    
     2    1   62 1    
     3    1   63 1    
     4    1   64 1    
     5    2    3 2    
     6    2    4 am   BACKBONE|DICT|INTERRES
     7    4    5 1    
     8    4   65 1    
     9    5    6 1    
    10    5   25 1    
    11    5   66 1    
    12    6    7 1    
    13    6   67 1    
    14    6   68 1    
    15    7    8 1    
    16    8    9 1    
    17    8   69 1    
    18    8   70 1    
    19    9   10 ar   
    20    9   14 ar   
    21   10   11 ar   
    22   10   71 1    
    23   11   12 ar   
    24   11   61 1    
    25   12   13 ar   
    26   12   72 1    
    27   13   14 ar   
    28   13   15 1    
    29   14   73 1    
    30   15   16 1    
    31   15   74 1    
    32   15   75 1    
    33   16   17 1    
    34   17   18 1    
    35   17   76 1    
    36   17   77 1    
    37   18   19 1    
    38   18   27 1    
    39   18   78 1    
    40   19   20 am   BACKBONE|DICT|INTERRES
    41   19   79 1    
    42   20   21 2    
    43   20   22 1    
    44   22   23 1    
    45   22   24 1    
    46   22   80 1    
    47   23   81 1    
    48   23   82 1    
    49   23   83 1    
    50   24   25 am   BACKBONE|DICT|INTERRES
    51   24   84 1    
    52   25   26 2    
    53   27   28 2    
    54   27   29 am   BACKBONE|DICT|INTERRES
    55   29   30 1    
    56   29   85 1    
    57   30   31 1    
    58   30   32 1    
    59   30   86 1    
    60   31   87 1    
    61   31   88 1    
    62   31   89 1    
    63   32   33 2    
    64   32   34 am   BACKBONE|DICT|INTERRES
    65   34   35 1    
    66   34   90 1    
    67   35   36 1    
    68   35   37 1    
    69   35   91 1    
    70   36   92 1    
    71   36   93 1    
    72   36   94 1    
    73   37   38 2    
    74   37   39 am   BACKBONE|DICT|INTERRES
    75   39   40 1    
    76   39   95 1    
    77   40   41 1    
    78   40   42 1    
    79   40   96 1    
    80   41   97 1    
    81   41   98 1    
    82   41   99 1    
    83   42   43 2    
    84   42   44 am   BACKBONE|DICT|INTERRES
    85   44   45 1    
    86   44  100 1    
    87   45   46 1    
    88   45   47 1    
    89   45  101 1    
    90   46  102 1    
    91   46  103 1    
    92   46  104 1    
    93   47   48 2    
    94   47   49 am   BACKBONE|DICT|INTERRES
    95   49   50 1    
    96   49  105 1    
    97   50   51 1    
    98   50   52 1    
    99   50  106 1    
   100   51  107 1    
   101   51  108 1    
   102   51  109 1    
   103   52   53 2    
   104   52   54 am   BACKBONE|DICT|INTERRES
   105   54   55 1    
   106   54  110 1    
   107   55   56 1    
   108   55   59 1    
   109   55  111 1    
   110   56   57 am   BACKBONE|DICT|INTERRES
   111   56   58 2    
   112   57  112 1    
   113   57  113 1    
   114   59   60 1    
   115   59  114 1    
   116   59  115 1    
   117   60   61 1    
   118   61  116 1    
   119   61  117 1    
@<TRIPOS>SUBSTRUCTURE
     1 UNK         1 GROUP             0       ****    0 ROOT    
