@<TRIPOS>MOLECULE
3R8
117   119    1
SMALL
USER_CHARGES


@<TRIPOS>ATOM
      1 CA         11.5827  -25.9493  -44.2846 C.3       0 UNK        -0.2013 
      2 C          13.0581  -25.8351  -44.6379 C.2       0 UNK         0.4866 
      3 O          13.7122  -24.8739  -44.2319 O.2       0 UNK        -0.5176 
      4 N          13.5857  -26.8034  -45.3976 N.am      1 UNK        -0.4884 
      5 CA         15.0009  -26.8927  -45.7702 C.3       1 UNK         0.0853 
      6 C6         15.1982  -27.8530  -46.9679 C.3       10 UNK        -0.0849 
      7 S7         16.7112  -27.4848  -47.9175 S.3       10 UNK        -0.2776 
      8 C8         17.5352  -29.1079  -47.9645 C.3       10 UNK         0.0316 
      9 C9         18.5065  -29.2941  -46.8077 C.ar      10 UNK        -0.0863 
     10 C10        18.1276  -29.9854  -45.6532 C.ar      10 UNK        -0.1009 
     11 C11        19.0424  -30.2134  -44.6175 C.ar      10 UNK        -0.0712 
     12 C12        20.3519  -29.7274  -44.7511 C.ar      10 UNK        -0.0894 
     13 C13        20.7380  -29.0250  -45.8965 C.ar      10 UNK        -0.0745 
     14 C14        19.8110  -28.8095  -46.9180 C.ar      10 UNK        -0.0972 
     15 C15        22.1638  -28.5224  -46.0566 C.3       10 UNK         0.0209 
     16 S16        22.3415  -26.8017  -45.4901 S.3       10 UNK        -0.2568 
     17 C17        22.6358  -27.0330  -43.7080 C.3       10 UNK        -0.0983 
     18 CA         21.6470  -26.2702  -42.7912 C.3       3 UNK         0.0876 
     19 N          20.2843  -26.7846  -42.8744 N.am      3 UNK        -0.4424 
     20 C          19.2600  -26.2698  -43.5527 C.2       2 UNK         0.4918 
     21 O          19.3348  -25.3205  -44.3369 O.2       2 UNK        -0.4875 
     22 CA         17.9019  -26.9031  -43.2365 C.3       2 UNK         0.0481 
     23 CB         17.3386  -26.3543  -41.9105 C.3       2 UNK        -0.1831 
     24 N          16.9734  -26.6432  -44.3301 N.am      2 UNK        -0.4498 
     25 C          15.8432  -27.3212  -44.5524 C.2       1 UNK         0.5027 
     26 O          15.4535  -28.2585  -43.8498 O.2       1 UNK        -0.4969 
     27 C          22.0665  -26.4210  -41.3151 C.2       3 UNK         0.5005 
     28 O          21.3049  -26.9817  -40.5220 O.2       3 UNK        -0.5279 
     29 N          23.2686  -25.9404  -40.9729 N.am      4 UNK        -0.4463 
     30 CA         23.8983  -26.1409  -39.6675 C.3       4 UNK         0.0283 
     31 CB         24.8319  -24.9503  -39.3657 C.3       4 UNK        -0.1875 
     32 C          24.6053  -27.5105  -39.6194 C.2       4 UNK         0.4949 
     33 O          23.9534  -28.5265  -39.3746 O.2       4 UNK        -0.5039 
     34 N          25.9281  -27.5194  -39.8343 N.am      5 UNK        -0.4663 
     35 CA         26.7703  -28.7165  -39.7543 C.3       5 UNK         0.0242 
     36 CB         28.2458  -28.2949  -39.6638 C.3       5 UNK        -0.1982 
     37 C          26.5637  -29.6991  -40.9183 C.2       5 UNK         0.5017 
     38 O          26.7040  -30.9058  -40.7128 O.2       5 UNK        -0.5012 
     39 N          26.2400  -29.1795  -42.1123 N.am      6 UNK        -0.4439 
     40 CA         25.9900  -29.9706  -43.3202 C.3       6 UNK         0.0297 
     41 CB         25.8347  -29.0469  -44.5377 C.3       6 UNK        -0.2006 
     42 C          24.7630  -30.8783  -43.1402 C.2       6 UNK         0.4892 
     43 O          23.6794  -30.3827  -42.8264 O.2       6 UNK        -0.5089 
     44 N          24.9904  -32.1926  -43.2769 N.am      7 UNK        -0.4243 
     45 CA         24.0513  -33.2936  -43.0155 C.3       7 UNK         0.0196 
     46 CB         22.8705  -33.2511  -44.0095 C.3       7 UNK        -0.2007 
     47 C          23.5814  -33.3992  -41.5458 C.2       7 UNK         0.5020 
     48 O          22.6562  -34.1628  -41.2685 O.2       7 UNK        -0.5147 
     49 N          24.2291  -32.6555  -40.6320 N.am      8 UNK        -0.4734 
     50 CA         23.9271  -32.5188  -39.2007 C.3       8 UNK         0.0238 
     51 CB         24.2744  -33.8217  -38.4496 C.3       8 UNK        -0.1912 
     52 C          22.4934  -32.0241  -38.9117 C.2       8 UNK         0.5038 
     53 O          21.9099  -32.4095  -37.8961 O.2       8 UNK        -0.5046 
     54 N          21.9466  -31.1957  -39.8115 N.am      9 UNK        -0.4200 
     55 CA         20.5777  -30.6621  -39.7300 C.3       9 UNK         0.0839 
     56 C          20.3575  -29.5893  -38.6244 C.2       9 UNK         0.5513 
     57 N          21.3935  -28.9774  -38.0657 N.am      9 UNK        -0.7519 
     58 O          19.2174  -29.3313  -38.2464 O.2       9 UNK        -0.4960 
     59 C59        20.0728  -30.1850  -41.1167 C.3       10 UNK        -0.0876 
     60 S60        19.8624  -31.5943  -42.2585 S.3       10 UNK        -0.2414 
     61 C61        18.5604  -30.9968  -43.3927 C.3       10 UNK         0.0169 
     62 H62        11.1275  -26.8415  -44.7141 H         1 UNK         0.0903 
     63 H63        11.4587  -25.9930  -43.2029 H         1 UNK         0.0903 
     64 H64        11.0398  -25.0802  -44.6550 H         1 UNK         0.0903 
     65 H65        13.0095  -27.5872  -45.6705 H         1 UNK         0.3096 
     66 H66        15.3137  -25.8908  -46.0749 H         1 UNK         0.1121 
     67 H67        14.3685  -27.7475  -47.6691 H         1 UNK         0.0849 
     68 H68        15.1780  -28.8965  -46.6471 H         1 UNK         0.0849 
     69 H69        16.7982  -29.9121  -47.9860 H         1 UNK         0.0865 
     70 H70        18.0804  -29.1881  -48.9063 H         1 UNK         0.0865 
     71 H71        17.1169  -30.3604  -45.5642 H         1 UNK         0.1346 
     72 H72        21.0849  -29.8932  -43.9750 H         1 UNK         0.1412 
     73 H73        20.1104  -28.2731  -47.8084 H         1 UNK         0.1426 
     74 H74        22.4516  -28.5713  -47.1078 H         1 UNK         0.0716 
     75 H75        22.8622  -29.1723  -45.5271 H         1 UNK         0.0716 
     76 H76        22.6221  -28.0956  -43.4654 H         1 UNK         0.0695 
     77 H77        23.6577  -26.6973  -43.5284 H         1 UNK         0.0695 
     78 H78        21.6561  -25.2057  -43.0354 H         1 UNK         0.0983 
     79 H79        20.0932  -27.4729  -42.1589 H         1 UNK         0.3095 
     80 H80        18.0443  -27.9808  -43.1467 H         1 UNK         0.0454 
     81 H81        17.1538  -25.2810  -41.9681 H         1 UNK         0.0851 
     82 H82        18.0324  -26.5226  -41.0856 H         1 UNK         0.0851 
     83 H83        16.4007  -26.8400  -41.6413 H         1 UNK         0.0851 
     84 H84        17.2728  -25.9169  -44.9694 H         1 UNK         0.2976 
     85 H85        23.8324  -25.4916  -41.6806 H         1 UNK         0.3116 
     86 H86        23.1292  -26.1544  -38.8919 H         1 UNK         0.0646 
     87 H87        25.5797  -24.7956  -40.1441 H         1 UNK         0.0847 
     88 H88        25.3578  -25.0925  -38.4203 H         1 UNK         0.0847 
     89 H89        24.2622  -24.0254  -39.2736 H         1 UNK         0.0847 
     90 H90        26.3957  -26.6428  -40.0153 H         1 UNK         0.3040 
     91 H91        26.5134  -29.2492  -38.8355 H         1 UNK         0.1015 
     92 H92        28.5635  -27.7378  -40.5461 H         1 UNK         0.0786 
     93 H93        28.8958  -29.1671  -39.5780 H         1 UNK         0.0786 
     94 H94        28.4277  -27.6715  -38.7881 H         1 UNK         0.0786 
     95 H95        26.1108  -28.1814  -42.1783 H         1 UNK         0.3172 
     96 H96        26.8705  -30.5943  -43.4897 H         1 UNK         0.0595 
     97 H97        25.6655  -29.6263  -45.4464 H         1 UNK         0.0839 
     98 H98        26.7303  -28.4469  -44.6994 H         1 UNK         0.0839 
     99 H99        24.9922  -28.3681  -44.4273 H         1 UNK         0.0839 
    100 H100       25.9314  -32.4823  -43.5079 H         1 UNK         0.2998 
    101 H101       24.6064  -34.2126  -43.2091 H         1 UNK         0.0822 
    102 H102       22.2208  -34.1188  -43.8894 H         1 UNK         0.0787 
    103 H103       22.2529  -32.3644  -43.8691 H         1 UNK         0.0787 
    104 H104       23.2214  -33.2519  -45.0413 H         1 UNK         0.0787 
    105 H105       24.9969  -32.0765  -40.9568 H         1 UNK         0.3055 
    106 H106       24.5881  -31.7353  -38.8260 H         1 UNK         0.1106 
    107 H107       24.1838  -33.6894  -37.3708 H         1 UNK         0.0828 
    108 H108       23.6120  -34.6401  -38.7335 H         1 UNK         0.0828 
    109 H109       25.2993  -34.1338  -38.6499 H         1 UNK         0.0828 
    110 H110       22.4916  -30.9207  -40.6176 H         1 UNK         0.2931 
    111 H111       19.9380  -31.4961  -39.4333 H         1 UNK         0.0412 
    112 H112       21.2280  -28.2880  -37.3514 H         1 UNK         0.3472 
    113 H113       22.3208  -29.0786  -38.4660 H         1 UNK         0.3472 
    114 H114       20.7731  -29.4719  -41.5531 H         1 UNK         0.0970 
    115 H115       19.1164  -29.6678  -41.0205 H         1 UNK         0.0970 
    116 H116       18.0192  -31.8766  -43.7438 H         1 UNK         0.0612 
    117 H117       17.8342  -30.3984  -42.8416 H         1 UNK         0.0612 
@<TRIPOS>BOND
     1    1    2 1    
     2    1   62 1    
     3    1   63 1    
     4    1   64 1    
     5    2    3 2    
     6    2    4 am   BACKBONE|DICT|INTERRES
     7    4    5 1    
     8    4   65 1    
     9    5    6 1    
    10    5   25 1    
    11    5   66 1    
    12    6    7 1    
    13    6   67 1    
    14    6   68 1    
    15    7    8 1    
    16    8    9 1    
    17    8   69 1    
    18    8   70 1    
    19    9   10 ar   
    20    9   14 ar   
    21   10   11 ar   
    22   10   71 1    
    23   11   12 ar   
    24   11   61 1    
    25   12   13 ar   
    26   12   72 1    
    27   13   14 ar   
    28   13   15 1    
    29   14   73 1    
    30   15   16 1    
    31   15   74 1    
    32   15   75 1    
    33   16   17 1    
    34   17   18 1    
    35   17   76 1    
    36   17   77 1    
    37   18   19 1    
    38   18   27 1    
    39   18   78 1    
    40   19   20 am   BACKBONE|DICT|INTERRES
    41   19   79 1    
    42   20   21 2    
    43   20   22 1    
    44   22   23 1    
    45   22   24 1    
    46   22   80 1    
    47   23   81 1    
    48   23   82 1    
    49   23   83 1    
    50   24   25 am   BACKBONE|DICT|INTERRES
    51   24   84 1    
    52   25   26 2    
    53   27   28 2    
    54   27   29 am   BACKBONE|DICT|INTERRES
    55   29   30 1    
    56   29   85 1    
    57   30   31 1    
    58   30   32 1    
    59   30   86 1    
    60   31   87 1    
    61   31   88 1    
    62   31   89 1    
    63   32   33 2    
    64   32   34 am   BACKBONE|DICT|INTERRES
    65   34   35 1    
    66   34   90 1    
    67   35   36 1    
    68   35   37 1    
    69   35   91 1    
    70   36   92 1    
    71   36   93 1    
    72   36   94 1    
    73   37   38 2    
    74   37   39 am   BACKBONE|DICT|INTERRES
    75   39   40 1    
    76   39   95 1    
    77   40   41 1    
    78   40   42 1    
    79   40   96 1    
    80   41   97 1    
    81   41   98 1    
    82   41   99 1    
    83   42   43 2    
    84   42   44 am   BACKBONE|DICT|INTERRES
    85   44   45 1    
    86   44  100 1    
    87   45   46 1    
    88   45   47 1    
    89   45  101 1    
    90   46  102 1    
    91   46  103 1    
    92   46  104 1    
    93   47   48 2    
    94   47   49 am   BACKBONE|DICT|INTERRES
    95   49   50 1    
    96   49  105 1    
    97   50   51 1    
    98   50   52 1    
    99   50  106 1    
   100   51  107 1    
   101   51  108 1    
   102   51  109 1    
   103   52   53 2    
   104   52   54 am   BACKBONE|DICT|INTERRES
   105   54   55 1    
   106   54  110 1    
   107   55   56 1    
   108   55   59 1    
   109   55  111 1    
   110   56   57 am   BACKBONE|DICT|INTERRES
   111   56   58 2    
   112   57  112 1    
   113   57  113 1    
   114   59   60 1    
   115   59  114 1    
   116   59  115 1    
   117   60   61 1    
   118   61  116 1    
   119   61  117 1    
@<TRIPOS>SUBSTRUCTURE
     1 UNK         1 GROUP             0       ****    0 ROOT    
