@<TRIPOS>MOLECULE
3R8
117   119    1
SMALL
USER_CHARGES


@<TRIPOS>ATOM
      1 CA         19.5173  -24.6781  -39.9313 C.3       0 UNK        -0.2013 
      2 C          18.7081  -24.4461  -41.1986 C.2       0 UNK         0.4866 
      3 O          18.0255  -23.4274  -41.3145 O.2       0 UNK        -0.5176 
      4 N          18.7757  -25.3888  -42.1444 N.am      1 UNK        -0.4884 
      5 CA         18.1217  -25.3148  -43.4561 C.3       1 UNK         0.0853 
      6 C6         17.8588  -26.7379  -44.0103 C.3       10 UNK        -0.0849 
      7 S7         16.6502  -27.6687  -43.0153 S.3       10 UNK        -0.2776 
      8 C8         16.4427  -29.1482  -44.0580 C.3       10 UNK         0.0316 
      9 C9         17.7264  -29.9618  -44.1170 C.ar      10 UNK        -0.0863 
     10 C10        18.0537  -30.8146  -43.0623 C.ar      10 UNK        -0.1009 
     11 C11        19.2429  -31.5445  -43.0861 C.ar      10 UNK        -0.0712 
     12 C12        20.1165  -31.4077  -44.1698 C.ar      10 UNK        -0.0894 
     13 C13        19.8016  -30.5597  -45.2380 C.ar      10 UNK        -0.0745 
     14 C14        18.5926  -29.8522  -45.2100 C.ar      10 UNK        -0.0972 
     15 C15        20.7547  -30.4692  -46.4301 C.3       10 UNK         0.0209 
     16 S16        20.8606  -28.8167  -47.2018 S.3       10 UNK        -0.2568 
     17 C17        21.9046  -27.9075  -46.0140 C.3       10 UNK        -0.0983 
     18 CA         22.1328  -26.4358  -46.4534 C.3       3 UNK         0.0876 
     19 N          20.8571  -25.7194  -46.5596 N.am      3 UNK        -0.4424 
     20 C          20.6475  -24.5204  -47.1201 C.2       2 UNK         0.4918 
     21 O          21.4957  -23.9119  -47.7718 O.2       2 UNK        -0.4875 
     22 CA         19.2741  -23.8621  -46.8565 C.3       2 UNK         0.0481 
     23 CB         18.3947  -23.9422  -48.1143 C.3       2 UNK        -0.1831 
     24 N          18.5348  -24.4265  -45.7142 N.am      2 UNK        -0.4498 
     25 C          18.9741  -24.4872  -44.4455 C.2       1 UNK         0.5027 
     26 O          20.0424  -23.9855  -44.0855 O.2       1 UNK        -0.4969 
     27 C          23.1530  -25.7348  -45.5178 C.2       3 UNK         0.5005 
     28 O          24.3069  -26.1633  -45.4754 O.2       3 UNK        -0.5279 
     29 N          22.7224  -24.6904  -44.7874 N.am      4 UNK        -0.4463 
     30 CA         23.4648  -23.8775  -43.8136 C.3       4 UNK         0.0283 
     31 CB         24.7315  -23.2468  -44.4305 C.3       4 UNK        -0.1875 
     32 C          23.7420  -24.6133  -42.4900 C.2       4 UNK         0.4949 
     33 O          24.6040  -24.1855  -41.7213 O.2       4 UNK        -0.5039 
     34 N          22.9897  -25.6881  -42.2361 N.am      5 UNK        -0.4663 
     35 CA         23.0515  -26.5567  -41.0678 C.3       5 UNK         0.0242 
     36 CB         24.3681  -27.3650  -41.0730 C.3       5 UNK        -0.1982 
     37 C          21.8372  -27.4943  -41.1125 C.2       5 UNK         0.5017 
     38 O          21.0920  -27.4914  -42.0980 O.2       5 UNK        -0.5012 
     39 N          21.6752  -28.2871  -40.0488 N.am      6 UNK        -0.4439 
     40 CA         20.7447  -29.4175  -39.9766 C.3       6 UNK         0.0297 
     41 CB         19.3965  -28.9564  -39.3927 C.3       6 UNK        -0.2006 
     42 C          21.3461  -30.6073  -39.1992 C.2       6 UNK         0.4892 
     43 O          20.6347  -31.5760  -38.9334 O.2       6 UNK        -0.5089 
     44 N          22.6417  -30.5362  -38.8520 N.am      7 UNK        -0.4243 
     45 CA         23.3601  -31.5631  -38.0888 C.3       7 UNK         0.0196 
     46 CB         24.6441  -30.9503  -37.5063 C.3       7 UNK        -0.2007 
     47 C          23.6946  -32.8187  -38.9120 C.2       7 UNK         0.5020 
     48 O          23.8662  -33.8910  -38.3320 O.2       7 UNK        -0.5147 
     49 N          23.7647  -32.6763  -40.2443 N.am      8 UNK        -0.4734 
     50 CA         24.0820  -33.7440  -41.2031 C.3       8 UNK         0.0238 
     51 CB         24.1954  -33.1312  -42.6091 C.3       8 UNK        -0.1912 
     52 C          23.0795  -34.9139  -41.2114 C.2       8 UNK         0.5038 
     53 O          23.4373  -36.0118  -41.6396 O.2       8 UNK        -0.5046 
     54 N          21.8566  -34.6558  -40.7363 N.am      9 UNK        -0.4200 
     55 CA         20.7829  -35.6410  -40.5625 C.3       9 UNK         0.0839 
     56 C          20.9160  -36.4879  -39.2625 C.2       9 UNK         0.5513 
     57 N          21.8578  -36.2092  -38.3671 N.am      9 UNK        -0.7519 
     58 O          20.1507  -37.4284  -39.0666 O.2       9 UNK        -0.4960 
     59 C59        19.3891  -34.9677  -40.6581 C.3       10 UNK        -0.0876 
     60 S60        19.0925  -34.1829  -42.2809 S.3       10 UNK        -0.2414 
     61 C61        19.5813  -32.4676  -41.9300 C.3       10 UNK         0.0169 
     62 H62        19.7494  -25.7329  -39.7896 H         1 UNK         0.0903 
     63 H63        20.4528  -24.1212  -39.9765 H         1 UNK         0.0903 
     64 H64        18.9594  -24.3400  -39.0585 H         1 UNK         0.0903 
     65 H65        19.3871  -26.1875  -42.0155 H         1 UNK         0.3096 
     66 H66        17.1652  -24.7975  -43.3506 H         1 UNK         0.1121 
     67 H67        17.4706  -26.7116  -45.0295 H         1 UNK         0.0849 
     68 H68        18.7927  -27.3028  -44.0479 H         1 UNK         0.0849 
     69 H69        16.1225  -28.8539  -45.0587 H         1 UNK         0.0865 
     70 H70        15.6377  -29.7612  -43.6497 H         1 UNK         0.0865 
     71 H71        17.3838  -30.9034  -42.2177 H         1 UNK         0.1346 
     72 H72        21.0362  -31.9762  -44.1857 H         1 UNK         0.1412 
     73 H73        18.3286  -29.2040  -46.0338 H         1 UNK         0.1426 
     74 H74        20.4160  -31.1780  -47.1866 H         1 UNK         0.0716 
     75 H75        21.7594  -30.7840  -46.1432 H         1 UNK         0.0716 
     76 H76        22.8552  -28.4381  -45.9319 H         1 UNK         0.0695 
     77 H77        21.4390  -27.9516  -45.0268 H         1 UNK         0.0695 
     78 H78        22.5873  -26.4423  -47.4465 H         1 UNK         0.0983 
     79 H79        20.0793  -26.1580  -46.0927 H         1 UNK         0.3095 
     80 H80        19.4599  -22.8091  -46.6357 H         1 UNK         0.0454 
     81 H81        18.1533  -24.9736  -48.3742 H         1 UNK         0.0851 
     82 H82        18.9012  -23.5009  -48.9740 H         1 UNK         0.0851 
     83 H83        17.4587  -23.3995  -47.9816 H         1 UNK         0.0851 
     84 H84        17.6387  -24.8385  -45.9333 H         1 UNK         0.2976 
     85 H85        21.7356  -24.4508  -44.8439 H         1 UNK         0.3116 
     86 H86        22.7932  -23.0578  -43.5544 H         1 UNK         0.0646 
     87 H87        25.1615  -22.5021  -43.7598 H         1 UNK         0.0847 
     88 H88        24.5077  -22.7430  -45.3707 H         1 UNK         0.0847 
     89 H89        25.5054  -23.9903  -44.6215 H         1 UNK         0.0847 
     90 H90        22.2706  -25.9539  -42.8983 H         1 UNK         0.3040 
     91 H91        22.9888  -25.9419  -40.1675 H         1 UNK         0.1015 
     92 H92        25.2418  -26.7137  -41.0565 H         1 UNK         0.0786 
     93 H93        24.4453  -27.9975  -41.9586 H         1 UNK         0.0786 
     94 H94        24.4478  -28.0119  -40.1995 H         1 UNK         0.0786 
     95 H95        22.2675  -28.1457  -39.2426 H         1 UNK         0.3172 
     96 H96        20.5639  -29.7893  -40.9873 H         1 UNK         0.0595 
     97 H97        19.5102  -28.5526  -38.3863 H         1 UNK         0.0839 
     98 H98        18.6876  -29.7836  -39.3373 H         1 UNK         0.0839 
     99 H99        18.9388  -28.1882  -40.0163 H         1 UNK         0.0839 
    100 H100       23.1852  -29.7408  -39.1463 H         1 UNK         0.2998 
    101 H101       22.7257  -31.8794  -37.2575 H         1 UNK         0.0822 
    102 H102       24.4211  -30.1050  -36.8549 H         1 UNK         0.0787 
    103 H103       25.1882  -31.6823  -36.9073 H         1 UNK         0.0787 
    104 H104       25.3202  -30.6040  -38.2892 H         1 UNK         0.0787 
    105 H105       23.6140  -31.7555  -40.6288 H         1 UNK         0.3055 
    106 H106       25.0533  -34.1599  -40.9261 H         1 UNK         0.1106 
    107 H107       24.4566  -33.8914  -43.3468 H         1 UNK         0.0828 
    108 H108       23.2567  -32.6771  -42.9290 H         1 UNK         0.0828 
    109 H109       24.9712  -32.3664  -42.6493 H         1 UNK         0.0828 
    110 H110       21.6725  -33.7328  -40.3729 H         1 UNK         0.2931 
    111 H111       20.8521  -36.3555  -41.3852 H         1 UNK         0.0412 
    112 H112       22.5040  -35.4404  -38.5036 H         1 UNK         0.3472 
    113 H113       21.9263  -36.7757  -37.5364 H         1 UNK         0.3472 
    114 H114       19.2580  -34.2347  -39.8596 H         1 UNK         0.0970 
    115 H115       18.6002  -35.7087  -40.5146 H         1 UNK         0.0970 
    116 H116       20.6511  -32.4201  -41.7275 H         1 UNK         0.0612 
    117 H117       19.0740  -32.1282  -41.0260 H         1 UNK         0.0612 
@<TRIPOS>BOND
     1    1    2 1    
     2    1   62 1    
     3    1   63 1    
     4    1   64 1    
     5    2    3 2    
     6    2    4 am   BACKBONE|DICT|INTERRES
     7    4    5 1    
     8    4   65 1    
     9    5    6 1    
    10    5   25 1    
    11    5   66 1    
    12    6    7 1    
    13    6   67 1    
    14    6   68 1    
    15    7    8 1    
    16    8    9 1    
    17    8   69 1    
    18    8   70 1    
    19    9   10 ar   
    20    9   14 ar   
    21   10   11 ar   
    22   10   71 1    
    23   11   12 ar   
    24   11   61 1    
    25   12   13 ar   
    26   12   72 1    
    27   13   14 ar   
    28   13   15 1    
    29   14   73 1    
    30   15   16 1    
    31   15   74 1    
    32   15   75 1    
    33   16   17 1    
    34   17   18 1    
    35   17   76 1    
    36   17   77 1    
    37   18   19 1    
    38   18   27 1    
    39   18   78 1    
    40   19   20 am   BACKBONE|DICT|INTERRES
    41   19   79 1    
    42   20   21 2    
    43   20   22 1    
    44   22   23 1    
    45   22   24 1    
    46   22   80 1    
    47   23   81 1    
    48   23   82 1    
    49   23   83 1    
    50   24   25 am   BACKBONE|DICT|INTERRES
    51   24   84 1    
    52   25   26 2    
    53   27   28 2    
    54   27   29 am   BACKBONE|DICT|INTERRES
    55   29   30 1    
    56   29   85 1    
    57   30   31 1    
    58   30   32 1    
    59   30   86 1    
    60   31   87 1    
    61   31   88 1    
    62   31   89 1    
    63   32   33 2    
    64   32   34 am   BACKBONE|DICT|INTERRES
    65   34   35 1    
    66   34   90 1    
    67   35   36 1    
    68   35   37 1    
    69   35   91 1    
    70   36   92 1    
    71   36   93 1    
    72   36   94 1    
    73   37   38 2    
    74   37   39 am   BACKBONE|DICT|INTERRES
    75   39   40 1    
    76   39   95 1    
    77   40   41 1    
    78   40   42 1    
    79   40   96 1    
    80   41   97 1    
    81   41   98 1    
    82   41   99 1    
    83   42   43 2    
    84   42   44 am   BACKBONE|DICT|INTERRES
    85   44   45 1    
    86   44  100 1    
    87   45   46 1    
    88   45   47 1    
    89   45  101 1    
    90   46  102 1    
    91   46  103 1    
    92   46  104 1    
    93   47   48 2    
    94   47   49 am   BACKBONE|DICT|INTERRES
    95   49   50 1    
    96   49  105 1    
    97   50   51 1    
    98   50   52 1    
    99   50  106 1    
   100   51  107 1    
   101   51  108 1    
   102   51  109 1    
   103   52   53 2    
   104   52   54 am   BACKBONE|DICT|INTERRES
   105   54   55 1    
   106   54  110 1    
   107   55   56 1    
   108   55   59 1    
   109   55  111 1    
   110   56   57 am   BACKBONE|DICT|INTERRES
   111   56   58 2    
   112   57  112 1    
   113   57  113 1    
   114   59   60 1    
   115   59  114 1    
   116   59  115 1    
   117   60   61 1    
   118   61  116 1    
   119   61  117 1    
@<TRIPOS>SUBSTRUCTURE
     1 UNK         1 GROUP             0       ****    0 ROOT    
