@<TRIPOS>MOLECULE
3R8
117   119    1
SMALL
USER_CHARGES


@<TRIPOS>ATOM
      1 CA         15.3267  -23.0581  -43.7030 C.3       0 UNK        -0.2013 
      2 C          16.2312  -24.2813  -43.7365 C.2       0 UNK         0.4866 
      3 O          16.7936  -24.5948  -44.7850 O.2       0 UNK        -0.5176 
      4 N          16.3655  -24.9744  -42.5992 N.am      1 UNK        -0.4884 
      5 CA         17.2237  -26.1531  -42.4209 C.3       1 UNK         0.0853 
      6 C6         16.7524  -27.0086  -41.2164 C.3       10 UNK        -0.0849 
      7 S7         15.1952  -27.8639  -41.6257 S.3       10 UNK        -0.2776 
      8 C8         15.7504  -29.5903  -41.8373 C.3       10 UNK         0.0316 
      9 C9         16.9199  -29.7493  -42.8062 C.ar      10 UNK        -0.0863 
     10 C10        18.0892  -30.3860  -42.3819 C.ar      10 UNK        -0.1009 
     11 C11        19.1488  -30.5989  -43.2678 C.ar      10 UNK        -0.0712 
     12 C12        19.0519  -30.1357  -44.5835 C.ar      10 UNK        -0.0894 
     13 C13        17.8939  -29.4831  -45.0182 C.ar      10 UNK        -0.0745 
     14 C14        16.8266  -29.3070  -44.1300 C.ar      10 UNK        -0.0972 
     15 C15        17.7698  -29.0045  -46.4572 C.3       10 UNK         0.0209 
     16 S16        18.3175  -27.2785  -46.6502 S.3       10 UNK        -0.2568 
     17 C17        20.0795  -27.4592  -47.0934 C.3       10 UNK        -0.0983 
     18 CA         21.0051  -26.5737  -46.2226 C.3       3 UNK         0.0876 
     19 N          20.9272  -26.9391  -44.8046 N.am      3 UNK        -0.4424 
     20 C          21.4789  -26.2649  -43.7849 C.2       2 UNK         0.4918 
     21 O          22.2339  -25.3017  -43.9215 O.2       2 UNK        -0.4875 
     22 CA         21.0449  -26.7316  -42.3813 C.3       2 UNK         0.0481 
     23 CB         21.6381  -25.8799  -41.2347 C.3       2 UNK        -0.1831 
     24 N          19.5788  -26.8069  -42.2997 N.am      2 UNK        -0.4498 
     25 C          18.7160  -25.7758  -42.3161 C.2       1 UNK         0.5027 
     26 O          19.0523  -24.5902  -42.2558 O.2       1 UNK        -0.4969 
     27 C          22.4403  -26.5754  -46.7892 C.2       3 UNK         0.5005 
     28 O          22.7982  -25.6561  -47.5280 O.2       3 UNK        -0.5279 
     29 N          23.2293  -27.6012  -46.4459 N.am      4 UNK        -0.4463 
     30 CA         24.6114  -27.7889  -46.9017 C.3       4 UNK         0.0283 
     31 CB         24.6280  -28.3842  -48.3252 C.3       4 UNK        -0.1875 
     32 C          25.4051  -28.6357  -45.8926 C.2       4 UNK         0.4949 
     33 O          26.2709  -29.4187  -46.2851 O.2       4 UNK        -0.5039 
     34 N          25.0754  -28.4793  -44.6077 N.am      5 UNK        -0.4663 
     35 CA         25.5984  -29.2125  -43.4582 C.3       5 UNK         0.0242 
     36 CB         25.1282  -30.6846  -43.5070 C.3       5 UNK        -0.1982 
     37 C          25.0893  -28.4964  -42.1975 C.2       5 UNK         0.5017 
     38 O          24.5009  -27.4180  -42.3094 O.2       5 UNK        -0.5012 
     39 N          25.2807  -29.1168  -41.0267 N.am      6 UNK        -0.4439 
     40 CA         24.5920  -28.7555  -39.7830 C.3       6 UNK         0.0297 
     41 CB         25.2544  -29.5086  -38.6167 C.3       6 UNK        -0.2006 
     42 C          23.0924  -29.1012  -39.8617 C.2       6 UNK         0.4892 
     43 O          22.6898  -29.8737  -40.7323 O.2       6 UNK        -0.5089 
     44 N          22.2909  -28.5739  -38.9260 N.am      7 UNK        -0.4243 
     45 CA         20.8387  -28.8035  -38.8488 C.3       7 UNK         0.0196 
     46 CB         20.2409  -27.9180  -37.7441 C.3       7 UNK        -0.2007 
     47 C          20.4281  -30.2760  -38.6433 C.2       7 UNK         0.5020 
     48 O          19.3187  -30.6496  -39.0206 O.2       7 UNK        -0.5147 
     49 N          21.3319  -31.0876  -38.0783 N.am      8 UNK        -0.4734 
     50 CA         21.1880  -32.5409  -37.9411 C.3       8 UNK         0.0238 
     51 CB         22.0139  -33.0008  -36.7267 C.3       8 UNK        -0.1912 
     52 C          21.6018  -33.3222  -39.2070 C.2       8 UNK         0.5038 
     53 O          21.4798  -34.5477  -39.2112 O.2       8 UNK        -0.5046 
     54 N          22.1058  -32.6211  -40.2328 N.am      9 UNK        -0.4200 
     55 CA         22.6436  -33.1487  -41.4983 C.3       9 UNK         0.0839 
     56 C          24.0098  -33.8857  -41.3562 C.2       9 UNK         0.5513 
     57 N          24.7251  -33.7480  -40.2459 N.am      9 UNK        -0.7519 
     58 O          24.4496  -34.5667  -42.2789 O.2       9 UNK        -0.4960 
     59 C59        21.6109  -33.9586  -42.3375 C.3       10 UNK        -0.0876 
     60 S60        20.0114  -33.1506  -42.7145 S.3       10 UNK        -0.2414 
     61 C61        20.3752  -31.3669  -42.8025 C.3       10 UNK         0.0169 
     62 H62        14.5204  -23.1679  -44.4277 H         1 UNK         0.0903 
     63 H63        14.8805  -22.9064  -42.7202 H         1 UNK         0.0903 
     64 H64        15.8956  -22.1646  -43.9586 H         1 UNK         0.0903 
     65 H65        15.8878  -24.6559  -41.7685 H         1 UNK         0.3096 
     66 H66        17.1436  -26.7513  -43.3302 H         1 UNK         0.1121 
     67 H67        16.5954  -26.3842  -40.3350 H         1 UNK         0.0849 
     68 H68        17.4914  -27.7539  -40.9177 H         1 UNK         0.0849 
     69 H69        16.0067  -29.9915  -40.8552 H         1 UNK         0.0865 
     70 H70        14.9116  -30.1871  -42.1979 H         1 UNK         0.0865 
     71 H71        18.1656  -30.7557  -41.3682 H         1 UNK         0.1346 
     72 H72        19.8654  -30.3067  -45.2752 H         1 UNK         0.1412 
     73 H73        15.9208  -28.8212  -44.4676 H         1 UNK         0.1426 
     74 H74        18.3240  -29.6580  -47.1325 H         1 UNK         0.0716 
     75 H75        16.7273  -29.0701  -46.7726 H         1 UNK         0.0716 
     76 H76        20.3772  -28.5067  -47.0234 H         1 UNK         0.0695 
     77 H77        20.1724  -27.1885  -48.1473 H         1 UNK         0.0695 
     78 H78        20.6476  -25.5440  -46.2974 H         1 UNK         0.0983 
     79 H79        20.2860  -27.6873  -44.5889 H         1 UNK         0.3095 
     80 H80        21.4144  -27.7510  -42.2592 H         1 UNK         0.0454 
     81 H81        21.4414  -24.8159  -41.3652 H         1 UNK         0.0851 
     82 H82        21.2362  -26.1743  -40.2670 H         1 UNK         0.0851 
     83 H83        22.7198  -25.9920  -41.1833 H         1 UNK         0.0851 
     84 H84        19.1944  -27.7411  -42.3433 H         1 UNK         0.2976 
     85 H85        22.8621  -28.3166  -45.8331 H         1 UNK         0.3116 
     86 H86        25.1062  -26.8158  -46.9314 H         1 UNK         0.0646 
     87 H87        25.6484  -28.4945  -48.6943 H         1 UNK         0.0847 
     88 H88        24.1015  -27.7445  -49.0334 H         1 UNK         0.0847 
     89 H89        24.1614  -29.3695  -48.3521 H         1 UNK         0.0847 
     90 H90        24.4334  -27.7399  -44.3423 H         1 UNK         0.3040 
     91 H91        26.6892  -29.1642  -43.4671 H         1 UNK         0.1015 
     92 H92        25.4664  -31.1876  -44.4126 H         1 UNK         0.0786 
     93 H93        24.0402  -30.7516  -43.4784 H         1 UNK         0.0786 
     94 H94        25.5169  -31.2634  -42.6689 H         1 UNK         0.0786 
     95 H95        25.7567  -30.0065  -41.0311 H         1 UNK         0.3172 
     96 H96        24.6944  -27.6803  -39.6217 H         1 UNK         0.0595 
     97 H97        24.8076  -29.2326  -37.6607 H         1 UNK         0.0839 
     98 H98        26.3175  -29.2763  -38.5490 H         1 UNK         0.0839 
     99 H99        25.1550  -30.5898  -38.7231 H         1 UNK         0.0839 
    100 H100       22.6907  -27.9615  -38.2290 H         1 UNK         0.2998 
    101 H101       20.4087  -28.4922  -39.8031 H         1 UNK         0.0822 
    102 H102       20.4311  -26.8613  -37.9325 H         1 UNK         0.0787 
    103 H103       19.1586  -28.0438  -37.6862 H         1 UNK         0.0787 
    104 H104       20.6506  -28.1649  -36.7638 H         1 UNK         0.0787 
    105 H105       22.2100  -30.6867  -37.7827 H         1 UNK         0.3055 
    106 H106       20.1389  -32.7788  -37.7505 H         1 UNK         0.1106 
    107 H107       21.8987  -34.0722  -36.5563 H         1 UNK         0.0828 
    108 H108       23.0783  -32.8058  -36.8625 H         1 UNK         0.0828 
    109 H109       21.6932  -32.4963  -35.8150 H         1 UNK         0.0828 
    110 H110       22.1717  -31.6114  -40.1489 H         1 UNK         0.2931 
    111 H111       22.8951  -32.2632  -42.0789 H         1 UNK         0.0412 
    112 H112       25.6113  -34.2221  -40.1689 H         1 UNK         0.3472 
    113 H113       24.3788  -33.1955  -39.4796 H         1 UNK         0.3472 
    114 H114       21.3940  -34.9085  -41.8466 H         1 UNK         0.0970 
    115 H115       22.0509  -34.2259  -43.2999 H         1 UNK         0.0970 
    116 H116       20.6600  -31.0009  -41.8180 H         1 UNK         0.0612 
    117 H117       21.2199  -31.1913  -43.4702 H         1 UNK         0.0612 
@<TRIPOS>BOND
     1    1    2 1    
     2    1   62 1    
     3    1   63 1    
     4    1   64 1    
     5    2    3 2    
     6    2    4 am   BACKBONE|DICT|INTERRES
     7    4    5 1    
     8    4   65 1    
     9    5    6 1    
    10    5   25 1    
    11    5   66 1    
    12    6    7 1    
    13    6   67 1    
    14    6   68 1    
    15    7    8 1    
    16    8    9 1    
    17    8   69 1    
    18    8   70 1    
    19    9   10 ar   
    20    9   14 ar   
    21   10   11 ar   
    22   10   71 1    
    23   11   12 ar   
    24   11   61 1    
    25   12   13 ar   
    26   12   72 1    
    27   13   14 ar   
    28   13   15 1    
    29   14   73 1    
    30   15   16 1    
    31   15   74 1    
    32   15   75 1    
    33   16   17 1    
    34   17   18 1    
    35   17   76 1    
    36   17   77 1    
    37   18   19 1    
    38   18   27 1    
    39   18   78 1    
    40   19   20 am   BACKBONE|DICT|INTERRES
    41   19   79 1    
    42   20   21 2    
    43   20   22 1    
    44   22   23 1    
    45   22   24 1    
    46   22   80 1    
    47   23   81 1    
    48   23   82 1    
    49   23   83 1    
    50   24   25 am   BACKBONE|DICT|INTERRES
    51   24   84 1    
    52   25   26 2    
    53   27   28 2    
    54   27   29 am   BACKBONE|DICT|INTERRES
    55   29   30 1    
    56   29   85 1    
    57   30   31 1    
    58   30   32 1    
    59   30   86 1    
    60   31   87 1    
    61   31   88 1    
    62   31   89 1    
    63   32   33 2    
    64   32   34 am   BACKBONE|DICT|INTERRES
    65   34   35 1    
    66   34   90 1    
    67   35   36 1    
    68   35   37 1    
    69   35   91 1    
    70   36   92 1    
    71   36   93 1    
    72   36   94 1    
    73   37   38 2    
    74   37   39 am   BACKBONE|DICT|INTERRES
    75   39   40 1    
    76   39   95 1    
    77   40   41 1    
    78   40   42 1    
    79   40   96 1    
    80   41   97 1    
    81   41   98 1    
    82   41   99 1    
    83   42   43 2    
    84   42   44 am   BACKBONE|DICT|INTERRES
    85   44   45 1    
    86   44  100 1    
    87   45   46 1    
    88   45   47 1    
    89   45  101 1    
    90   46  102 1    
    91   46  103 1    
    92   46  104 1    
    93   47   48 2    
    94   47   49 am   BACKBONE|DICT|INTERRES
    95   49   50 1    
    96   49  105 1    
    97   50   51 1    
    98   50   52 1    
    99   50  106 1    
   100   51  107 1    
   101   51  108 1    
   102   51  109 1    
   103   52   53 2    
   104   52   54 am   BACKBONE|DICT|INTERRES
   105   54   55 1    
   106   54  110 1    
   107   55   56 1    
   108   55   59 1    
   109   55  111 1    
   110   56   57 am   BACKBONE|DICT|INTERRES
   111   56   58 2    
   112   57  112 1    
   113   57  113 1    
   114   59   60 1    
   115   59  114 1    
   116   59  115 1    
   117   60   61 1    
   118   61  116 1    
   119   61  117 1    
@<TRIPOS>SUBSTRUCTURE
     1 UNK         1 GROUP             0       ****    0 ROOT    
