@<TRIPOS>MOLECULE
3R8
117   119    1
SMALL
USER_CHARGES


@<TRIPOS>ATOM
      1 CA         17.5094  -24.4798  -48.9676 C.3       0 UNK        -0.2013 
      2 C          18.4746  -25.1810  -48.0234 C.2       0 UNK         0.4866 
      3 O          19.6825  -24.9551  -48.1038 O.2       0 UNK        -0.5176 
      4 N          17.9535  -26.0367  -47.1357 N.am      1 UNK        -0.4884 
      5 CA         18.7221  -26.7632  -46.1210 C.3       1 UNK         0.0853 
      6 C6         17.8816  -27.8798  -45.4629 C.3       10 UNK        -0.0849 
      7 S7         17.5074  -29.2621  -46.5944 S.3       10 UNK        -0.2776 
      8 C8         16.2542  -30.1880  -45.6412 C.3       10 UNK         0.0316 
      9 C9         16.7832  -30.6120  -44.2777 C.ar      10 UNK        -0.0863 
     10 C10        17.4787  -31.8128  -44.1204 C.ar      10 UNK        -0.1009 
     11 C11        18.0168  -32.1715  -42.8791 C.ar      10 UNK        -0.0712 
     12 C12        17.8665  -31.2946  -41.7935 C.ar      10 UNK        -0.0894 
     13 C13        17.1840  -30.0814  -41.9413 C.ar      10 UNK        -0.0745 
     14 C14        16.6050  -29.7754  -43.1757 C.ar      10 UNK        -0.0972 
     15 C15        17.0883  -29.1033  -40.7718 C.3       10 UNK         0.0209 
     16 S16        17.2950  -27.3601  -41.2930 S.3       10 UNK        -0.2568 
     17 C17        18.4104  -26.6884  -40.0202 C.3       10 UNK        -0.0983 
     18 CA         19.8876  -26.6957  -40.4808 C.3       3 UNK         0.0876 
     19 N          20.0970  -25.9424  -41.7298 N.am      3 UNK        -0.4424 
     20 C          21.2541  -25.8654  -42.4011 C.2       2 UNK         0.4918 
     21 O          22.2980  -26.3932  -42.0138 O.2       2 UNK        -0.4875 
     22 CA         21.2377  -25.0877  -43.7256 C.3       2 UNK         0.0481 
     23 CB         22.6585  -24.7470  -44.2131 C.3       2 UNK        -0.1831 
     24 N          20.5582  -25.8729  -44.7553 N.am      2 UNK        -0.4498 
     25 C          19.2516  -25.7995  -45.0386 C.2       1 UNK         0.5027 
     26 O          18.4679  -25.0399  -44.4636 O.2       1 UNK        -0.4969 
     27 C          20.8100  -26.2501  -39.3256 C.2       3 UNK         0.5005 
     28 O          21.1742  -27.0820  -38.4944 O.2       3 UNK        -0.5279 
     29 N          21.2315  -24.9758  -39.3247 N.am      4 UNK        -0.4463 
     30 CA         22.2326  -24.4187  -38.4060 C.3       4 UNK         0.0283 
     31 CB         22.3224  -22.8991  -38.6181 C.3       4 UNK        -0.1875 
     32 C          23.6295  -25.0605  -38.5398 C.2       4 UNK         0.4949 
     33 O          24.3888  -25.0528  -37.5714 O.2       4 UNK        -0.5039 
     34 N          23.9310  -25.6202  -39.7191 N.am      5 UNK        -0.4663 
     35 CA         25.1396  -26.3911  -40.0186 C.3       5 UNK         0.0242 
     36 CB         25.7377  -25.8612  -41.3351 C.3       5 UNK        -0.1982 
     37 C          24.8396  -27.9020  -40.1083 C.2       5 UNK         0.5017 
     38 O          25.6741  -28.6470  -40.6219 O.2       5 UNK        -0.5012 
     39 N          23.6563  -28.3236  -39.6313 N.am      6 UNK        -0.4439 
     40 CA         23.0913  -29.6790  -39.6704 C.3       6 UNK         0.0297 
     41 CB         23.9776  -30.6851  -38.9056 C.3       6 UNK        -0.2006 
     42 C          22.7188  -30.1755  -41.0825 C.2       6 UNK         0.4892 
     43 O          22.4967  -31.3744  -41.2503 O.2       6 UNK        -0.5089 
     44 N          22.6199  -29.2614  -42.0604 N.am      7 UNK        -0.4243 
     45 CA         22.2329  -29.4955  -43.4558 C.3       7 UNK         0.0196 
     46 CB         20.7057  -29.7111  -43.5379 C.3       7 UNK        -0.2007 
     47 C          23.0675  -30.6108  -44.1226 C.2       7 UNK         0.5020 
     48 O          24.2958  -30.5812  -44.0307 O.2       7 UNK        -0.5147 
     49 N          22.3988  -31.5640  -44.7830 N.am      8 UNK        -0.4734 
     50 CA         23.0220  -32.7395  -45.3962 C.3       8 UNK         0.0238 
     51 CB         22.2083  -33.1368  -46.6394 C.3       8 UNK        -0.1912 
     52 C          23.1304  -33.9345  -44.4311 C.2       8 UNK         0.5038 
     53 O          23.9381  -34.8294  -44.6847 O.2       8 UNK        -0.5046 
     54 N          22.3022  -33.9561  -43.3788 N.am      9 UNK        -0.4200 
     55 CA         22.2069  -35.0524  -42.4019 C.3       9 UNK         0.0839 
     56 C          23.2721  -35.0059  -41.2724 C.2       9 UNK         0.5513 
     57 N          23.8299  -33.8535  -40.9302 N.am      9 UNK        -0.7519 
     58 O          23.6141  -36.0442  -40.7117 O.2       9 UNK        -0.4960 
     59 C59        20.7635  -35.2258  -41.8503 C.3       10 UNK        -0.0876 
     60 S60        19.9332  -33.6613  -41.3916 S.3       10 UNK        -0.2414 
     61 C61        18.7426  -33.5134  -42.7688 C.3       10 UNK         0.0169 
     62 H62        17.5742  -23.4001  -48.8361 H         1 UNK         0.0903 
     63 H63        17.7604  -24.7131  -50.0020 H         1 UNK         0.0903 
     64 H64        16.4765  -24.7811  -48.7935 H         1 UNK         0.0903 
     65 H65        16.9540  -26.1797  -47.1093 H         1 UNK         0.3096 
     66 H66        19.5773  -27.2261  -46.6190 H         1 UNK         0.1121 
     67 H67        18.4139  -28.2948  -44.6067 H         1 UNK         0.0849 
     68 H68        16.9477  -27.4713  -45.0716 H         1 UNK         0.0849 
     69 H69        15.9495  -31.0664  -46.2122 H         1 UNK         0.0865 
     70 H70        15.3589  -29.5747  -45.5278 H         1 UNK         0.0865 
     71 H71        17.6083  -32.4666  -44.9723 H         1 UNK         0.1346 
     72 H72        18.2891  -31.5452  -40.8311 H         1 UNK         0.1412 
     73 H73        16.0584  -28.8507  -43.2968 H         1 UNK         0.1426 
     74 H74        17.8435  -29.3513  -40.0247 H         1 UNK         0.0716 
     75 H75        16.1185  -29.2180  -40.2863 H         1 UNK         0.0716 
     76 H76        18.2822  -27.2562  -39.0964 H         1 UNK         0.0695 
     77 H77        18.0880  -25.6701  -39.7948 H         1 UNK         0.0695 
     78 H78        20.1589  -27.7315  -40.6982 H         1 UNK         0.0983 
     79 H79        19.2737  -25.5178  -42.1366 H         1 UNK         0.3095 
     80 H80        20.7106  -24.1462  -43.5575 H         1 UNK         0.0454 
     81 H81        22.6311  -24.1520  -45.1260 H         1 UNK         0.0851 
     82 H82        23.2475  -25.6426  -44.4154 H         1 UNK         0.0851 
     83 H83        23.1990  -24.1655  -43.4649 H         1 UNK         0.0851 
     84 H84        21.1319  -26.5321  -45.2613 H         1 UNK         0.2976 
     85 H85        20.8787  -24.3586  -40.0421 H         1 UNK         0.3116 
     86 H86        21.8860  -24.6028  -37.3869 H         1 UNK         0.0646 
     87 H87        23.0381  -22.4507  -37.9275 H         1 UNK         0.0847 
     88 H88        21.3616  -22.4146  -38.4431 H         1 UNK         0.0847 
     89 H89        22.6473  -22.6500  -39.6292 H         1 UNK         0.0847 
     90 H90        23.2359  -25.6093  -40.4590 H         1 UNK         0.3040 
     91 H91        25.8810  -26.2600  -39.2275 H         1 UNK         0.1015 
     92 H92        25.9439  -24.7925  -41.2745 H         1 UNK         0.0786 
     93 H93        25.0650  -26.0255  -42.1781 H         1 UNK         0.0786 
     94 H94        26.6806  -26.3576  -41.5680 H         1 UNK         0.0786 
     95 H95        23.0434  -27.6293  -39.2167 H         1 UNK         0.3172 
     96 H96        22.1458  -29.6129  -39.1308 H         1 UNK         0.0595 
     97 H97        24.9084  -30.8906  -39.4349 H         1 UNK         0.0839 
     98 H98        23.4633  -31.6384  -38.7780 H         1 UNK         0.0839 
     99 H99        24.2283  -30.3192  -37.9101 H         1 UNK         0.0839 
    100 H100       22.8216  -28.2939  -41.8314 H         1 UNK         0.2998 
    101 H101       22.4703  -28.5777  -43.9951 H         1 UNK         0.0822 
    102 H102       20.4032  -30.6275  -43.0312 H         1 UNK         0.0787 
    103 H103       20.1682  -28.8896  -43.0644 H         1 UNK         0.0787 
    104 H104       20.3591  -29.7666  -44.5704 H         1 UNK         0.0787 
    105 H105       21.3914  -31.5047  -44.8233 H         1 UNK         0.3055 
    106 H106       24.0355  -32.4900  -45.7193 H         1 UNK         0.1106 
    107 H107       22.6570  -33.9949  -47.1420 H         1 UNK         0.0828 
    108 H108       21.1833  -33.4088  -46.3840 H         1 UNK         0.0828 
    109 H109       22.1697  -32.3238  -47.3648 H         1 UNK         0.0828 
    110 H110       21.7294  -33.1481  -43.1830 H         1 UNK         0.2931 
    111 H111       22.4219  -35.9763  -42.9433 H         1 UNK         0.0412 
    112 H112       23.4500  -32.9785  -41.2835 H         1 UNK         0.3472 
    113 H113       24.5295  -33.8414  -40.2066 H         1 UNK         0.3472 
    114 H114       20.1585  -35.7370  -42.6004 H         1 UNK         0.0970 
    115 H115       20.7514  -35.8915  -40.9849 H         1 UNK         0.0970 
    116 H116       19.2792  -33.7021  -43.7001 H         1 UNK         0.0612 
    117 H117       17.9972  -34.3037  -42.6719 H         1 UNK         0.0612 
@<TRIPOS>BOND
     1    1    2 1    
     2    1   62 1    
     3    1   63 1    
     4    1   64 1    
     5    2    3 2    
     6    2    4 am   BACKBONE|DICT|INTERRES
     7    4    5 1    
     8    4   65 1    
     9    5    6 1    
    10    5   25 1    
    11    5   66 1    
    12    6    7 1    
    13    6   67 1    
    14    6   68 1    
    15    7    8 1    
    16    8    9 1    
    17    8   69 1    
    18    8   70 1    
    19    9   10 ar   
    20    9   14 ar   
    21   10   11 ar   
    22   10   71 1    
    23   11   12 ar   
    24   11   61 1    
    25   12   13 ar   
    26   12   72 1    
    27   13   14 ar   
    28   13   15 1    
    29   14   73 1    
    30   15   16 1    
    31   15   74 1    
    32   15   75 1    
    33   16   17 1    
    34   17   18 1    
    35   17   76 1    
    36   17   77 1    
    37   18   19 1    
    38   18   27 1    
    39   18   78 1    
    40   19   20 am   BACKBONE|DICT|INTERRES
    41   19   79 1    
    42   20   21 2    
    43   20   22 1    
    44   22   23 1    
    45   22   24 1    
    46   22   80 1    
    47   23   81 1    
    48   23   82 1    
    49   23   83 1    
    50   24   25 am   BACKBONE|DICT|INTERRES
    51   24   84 1    
    52   25   26 2    
    53   27   28 2    
    54   27   29 am   BACKBONE|DICT|INTERRES
    55   29   30 1    
    56   29   85 1    
    57   30   31 1    
    58   30   32 1    
    59   30   86 1    
    60   31   87 1    
    61   31   88 1    
    62   31   89 1    
    63   32   33 2    
    64   32   34 am   BACKBONE|DICT|INTERRES
    65   34   35 1    
    66   34   90 1    
    67   35   36 1    
    68   35   37 1    
    69   35   91 1    
    70   36   92 1    
    71   36   93 1    
    72   36   94 1    
    73   37   38 2    
    74   37   39 am   BACKBONE|DICT|INTERRES
    75   39   40 1    
    76   39   95 1    
    77   40   41 1    
    78   40   42 1    
    79   40   96 1    
    80   41   97 1    
    81   41   98 1    
    82   41   99 1    
    83   42   43 2    
    84   42   44 am   BACKBONE|DICT|INTERRES
    85   44   45 1    
    86   44  100 1    
    87   45   46 1    
    88   45   47 1    
    89   45  101 1    
    90   46  102 1    
    91   46  103 1    
    92   46  104 1    
    93   47   48 2    
    94   47   49 am   BACKBONE|DICT|INTERRES
    95   49   50 1    
    96   49  105 1    
    97   50   51 1    
    98   50   52 1    
    99   50  106 1    
   100   51  107 1    
   101   51  108 1    
   102   51  109 1    
   103   52   53 2    
   104   52   54 am   BACKBONE|DICT|INTERRES
   105   54   55 1    
   106   54  110 1    
   107   55   56 1    
   108   55   59 1    
   109   55  111 1    
   110   56   57 am   BACKBONE|DICT|INTERRES
   111   56   58 2    
   112   57  112 1    
   113   57  113 1    
   114   59   60 1    
   115   59  114 1    
   116   59  115 1    
   117   60   61 1    
   118   61  116 1    
   119   61  117 1    
@<TRIPOS>SUBSTRUCTURE
     1 UNK         1 GROUP             0       ****    0 ROOT    
