@<TRIPOS>MOLECULE
3R8
117   119    1
SMALL
USER_CHARGES


@<TRIPOS>ATOM
      1 CA         14.8032  -23.1231  -46.2398 C.3       0 UNK        -0.2013 
      2 C          15.3879  -23.6611  -44.9418 C.2       0 UNK         0.4866 
      3 O          15.5133  -22.9066  -43.9769 O.2       0 UNK        -0.5176 
      4 N          15.7314  -24.9577  -44.9213 N.am      1 UNK        -0.4884 
      5 CA         16.3665  -25.7014  -43.8220 C.3       1 UNK         0.0853 
      6 C6         15.5767  -25.5942  -42.4851 C.3       10 UNK        -0.0849 
      7 S7         15.9307  -26.8674  -41.2225 S.3       10 UNK        -0.2776 
      8 C8         15.4997  -28.4340  -42.0508 C.3       10 UNK         0.0316 
      9 C9         16.7240  -29.1041  -42.6637 C.ar      10 UNK        -0.0863 
     10 C10        17.7772  -29.5163  -41.8416 C.ar      10 UNK        -0.1009 
     11 C11        18.9047  -30.1465  -42.3759 C.ar      10 UNK        -0.0712 
     12 C12        18.9633  -30.3713  -43.7575 C.ar      10 UNK        -0.0894 
     13 C13        17.9190  -29.9652  -44.5929 C.ar      10 UNK        -0.0745 
     14 C14        16.7983  -29.3404  -44.0395 C.ar      10 UNK        -0.0972 
     15 C15        17.9811  -30.2302  -46.0903 C.3       10 UNK         0.0209 
     16 S16        18.6859  -28.8223  -47.0060 S.3       10 UNK        -0.2568 
     17 C17        20.4809  -29.0703  -46.7759 C.3       10 UNK        -0.0983 
     18 CA         21.1759  -27.8403  -46.1390 C.3       3 UNK         0.0876 
     19 N          20.6283  -27.5335  -44.8167 N.am      3 UNK        -0.4424 
     20 C          20.7935  -26.3835  -44.1526 C.2       2 UNK         0.4918 
     21 O          21.4285  -25.4208  -44.5902 O.2       2 UNK        -0.4875 
     22 CA         20.0582  -26.2919  -42.8030 C.3       2 UNK         0.0481 
     23 CB         20.5223  -25.1007  -41.9398 C.3       2 UNK        -0.1831 
     24 N          18.6020  -26.2723  -42.9912 N.am      2 UNK        -0.4498 
     25 C          17.8757  -25.3841  -43.6898 C.2       1 UNK         0.5027 
     26 O          18.3534  -24.3870  -44.2366 O.2       1 UNK        -0.4969 
     27 C          22.7083  -28.0182  -46.0684 C.2       3 UNK         0.5005 
     28 O          23.1887  -29.1439  -45.9157 O.2       3 UNK        -0.5279 
     29 N          23.4415  -26.8969  -46.1498 N.am      4 UNK        -0.4463 
     30 CA         24.9020  -26.7262  -46.0742 C.3       4 UNK         0.0283 
     31 CB         25.6364  -27.5277  -47.1672 C.3       4 UNK        -0.1875 
     32 C          25.4857  -27.0069  -44.6778 C.2       4 UNK         0.4949 
     33 O          26.2096  -26.1665  -44.1428 O.2       4 UNK        -0.5039 
     34 N          25.1421  -28.1647  -44.1085 N.am      5 UNK        -0.4663 
     35 CA         25.3621  -28.5257  -42.7098 C.3       5 UNK         0.0242 
     36 CB         25.4893  -30.0582  -42.6301 C.3       5 UNK        -0.1982 
     37 C          24.2077  -28.0003  -41.8333 C.2       5 UNK         0.5017 
     38 O          23.3056  -27.3237  -42.3306 O.2       5 UNK        -0.5012 
     39 N          24.2408  -28.3348  -40.5411 N.am      6 UNK        -0.4439 
     40 CA         23.1594  -28.0948  -39.5913 C.3       6 UNK         0.0297 
     41 CB         23.4463  -26.8165  -38.7860 C.3       6 UNK        -0.2006 
     42 C          23.0537  -29.3186  -38.6773 C.2       6 UNK         0.4892 
     43 O          24.0647  -29.9885  -38.4475 O.2       6 UNK        -0.5089 
     44 N          21.8391  -29.5663  -38.1672 N.am      7 UNK        -0.4243 
     45 CA         21.4386  -30.6926  -37.3167 C.3       7 UNK         0.0196 
     46 CB         22.1254  -30.6271  -35.9339 C.3       7 UNK        -0.2007 
     47 C          21.6199  -32.0476  -38.0237 C.2       7 UNK         0.5020 
     48 O          20.6924  -32.5148  -38.6848 O.2       7 UNK        -0.5147 
     49 N          22.8031  -32.6551  -37.8849 N.am      8 UNK        -0.4734 
     50 CA         23.1738  -33.9383  -38.4820 C.3       8 UNK         0.0238 
     51 CB         24.2730  -34.5851  -37.6178 C.3       8 UNK        -0.1912 
     52 C          23.5960  -33.7741  -39.9549 C.2       8 UNK         0.5038 
     53 O          24.7555  -34.0207  -40.2932 O.2       8 UNK        -0.5046 
     54 N          22.6496  -33.3517  -40.8027 N.am      9 UNK        -0.4200 
     55 CA         22.8420  -33.1843  -42.2543 C.3       9 UNK         0.0839 
     56 C          22.9637  -34.5164  -43.0516 C.2       9 UNK         0.5513 
     57 N          22.6233  -35.6683  -42.4853 N.am      9 UNK        -0.7519 
     58 O          23.3787  -34.5026  -44.2073 O.2       9 UNK        -0.4960 
     59 C59        21.7658  -32.2672  -42.8927 C.3       10 UNK        -0.0876 
     60 S60        21.6868  -30.6113  -42.1282 S.3       10 UNK        -0.2414 
     61 C61        20.0074  -30.6021  -41.4199 C.3       10 UNK         0.0169 
     62 H62        14.7304  -23.8934  -47.0073 H         1 UNK         0.0903 
     63 H63        13.8042  -22.7245  -46.0645 H         1 UNK         0.0903 
     64 H64        15.4280  -22.3182  -46.6263 H         1 UNK         0.0903 
     65 H65        15.6145  -25.4916  -45.7719 H         1 UNK         0.3096 
     66 H66        16.3129  -26.7317  -44.1614 H         1 UNK         0.1121 
     67 H67        15.7442  -24.6197  -42.0236 H         1 UNK         0.0849 
     68 H68        14.5056  -25.6399  -42.6888 H         1 UNK         0.0849 
     69 H69        15.0676  -29.1107  -41.3121 H         1 UNK         0.0865 
     70 H70        14.7205  -28.2627  -42.7952 H         1 UNK         0.0865 
     71 H71        17.7121  -29.3497  -40.7745 H         1 UNK         0.1346 
     72 H72        19.8136  -30.8743  -44.1916 H         1 UNK         0.1412 
     73 H73        15.9816  -29.0457  -44.6849 H         1 UNK         0.1426 
     74 H74        16.9753  -30.4197  -46.4685 H         1 UNK         0.0716 
     75 H75        18.5529  -31.1356  -46.2999 H         1 UNK         0.0716 
     76 H76        20.9086  -29.2754  -47.7591 H         1 UNK         0.0695 
     77 H77        20.6603  -29.9665  -46.1807 H         1 UNK         0.0695 
     78 H78        20.9757  -26.9849  -46.7884 H         1 UNK         0.0983 
     79 H79        20.0774  -28.2643  -44.3900 H         1 UNK         0.3095 
     80 H80        20.2909  -27.2048  -42.2518 H         1 UNK         0.0454 
     81 H81        21.5942  -25.1611  -41.7473 H         1 UNK         0.0851 
     82 H82        20.0188  -25.0918  -40.9735 H         1 UNK         0.0851 
     83 H83        20.3345  -24.1432  -42.4262 H         1 UNK         0.0851 
     84 H84        18.1048  -27.0506  -42.5759 H         1 UNK         0.2976 
     85 H85        22.9195  -26.0280  -46.1344 H         1 UNK         0.3116 
     86 H86        25.0791  -25.6688  -46.2777 H         1 UNK         0.0646 
     87 H87        25.5312  -28.6042  -47.0305 H         1 UNK         0.0847 
     88 H88        25.2635  -27.2780  -48.1604 H         1 UNK         0.0847 
     89 H89        26.7043  -27.3060  -47.1569 H         1 UNK         0.0847 
     90 H90        24.4849  -28.7432  -44.6272 H         1 UNK         0.3040 
     91 H91        26.2893  -28.0716  -42.3532 H         1 UNK         0.1015 
     92 H92        26.3216  -30.4153  -43.2368 H         1 UNK         0.0786 
     93 H93        25.6672  -30.4029  -41.6109 H         1 UNK         0.0786 
     94 H94        24.5850  -30.5482  -42.9905 H         1 UNK         0.0786 
     95 H95        24.9672  -28.9489  -40.1937 H         1 UNK         0.3172 
     96 H96        22.2113  -27.9838  -40.1231 H         1 UNK         0.0595 
     97 H97        24.3820  -26.8919  -38.2305 H         1 UNK         0.0839 
     98 H98        22.6520  -26.6202  -38.0648 H         1 UNK         0.0839 
     99 H99        23.5132  -25.9461  -39.4390 H         1 UNK         0.0839 
    100 H100       21.0866  -28.9454  -38.4304 H         1 UNK         0.2998 
    101 H101       20.3662  -30.5807  -37.1475 H         1 UNK         0.0822 
    102 H102       21.8210  -31.4669  -35.3076 H         1 UNK         0.0787 
    103 H103       21.8480  -29.7155  -35.4045 H         1 UNK         0.0787 
    104 H104       23.2132  -30.6476  -36.0008 H         1 UNK         0.0787 
    105 H105       23.5395  -32.1409  -37.4201 H         1 UNK         0.3055 
    106 H106       22.3070  -34.6034  -38.4663 H         1 UNK         0.1106 
    107 H107       25.1717  -33.9682  -37.5767 H         1 UNK         0.0828 
    108 H108       23.9302  -34.7465  -36.5957 H         1 UNK         0.0828 
    109 H109       24.5627  -35.5579  -38.0176 H         1 UNK         0.0828 
    110 H110       21.7361  -33.1236  -40.4289 H         1 UNK         0.2931 
    111 H111       23.8026  -32.6833  -42.3833 H         1 UNK         0.0412 
    112 H112       22.2768  -35.6930  -41.5400 H         1 UNK         0.3472 
    113 H113       22.7108  -36.5227  -43.0133 H         1 UNK         0.3472 
    114 H114       21.9810  -32.1179  -43.9529 H         1 UNK         0.0970 
    115 H115       20.7863  -32.7466  -42.8497 H         1 UNK         0.0970 
    116 H116       19.7604  -31.5931  -41.0388 H         1 UNK         0.0612 
    117 H117       20.0303  -29.9401  -40.5534 H         1 UNK         0.0612 
@<TRIPOS>BOND
     1    1    2 1    
     2    1   62 1    
     3    1   63 1    
     4    1   64 1    
     5    2    3 2    
     6    2    4 am   BACKBONE|DICT|INTERRES
     7    4    5 1    
     8    4   65 1    
     9    5    6 1    
    10    5   25 1    
    11    5   66 1    
    12    6    7 1    
    13    6   67 1    
    14    6   68 1    
    15    7    8 1    
    16    8    9 1    
    17    8   69 1    
    18    8   70 1    
    19    9   10 ar   
    20    9   14 ar   
    21   10   11 ar   
    22   10   71 1    
    23   11   12 ar   
    24   11   61 1    
    25   12   13 ar   
    26   12   72 1    
    27   13   14 ar   
    28   13   15 1    
    29   14   73 1    
    30   15   16 1    
    31   15   74 1    
    32   15   75 1    
    33   16   17 1    
    34   17   18 1    
    35   17   76 1    
    36   17   77 1    
    37   18   19 1    
    38   18   27 1    
    39   18   78 1    
    40   19   20 am   BACKBONE|DICT|INTERRES
    41   19   79 1    
    42   20   21 2    
    43   20   22 1    
    44   22   23 1    
    45   22   24 1    
    46   22   80 1    
    47   23   81 1    
    48   23   82 1    
    49   23   83 1    
    50   24   25 am   BACKBONE|DICT|INTERRES
    51   24   84 1    
    52   25   26 2    
    53   27   28 2    
    54   27   29 am   BACKBONE|DICT|INTERRES
    55   29   30 1    
    56   29   85 1    
    57   30   31 1    
    58   30   32 1    
    59   30   86 1    
    60   31   87 1    
    61   31   88 1    
    62   31   89 1    
    63   32   33 2    
    64   32   34 am   BACKBONE|DICT|INTERRES
    65   34   35 1    
    66   34   90 1    
    67   35   36 1    
    68   35   37 1    
    69   35   91 1    
    70   36   92 1    
    71   36   93 1    
    72   36   94 1    
    73   37   38 2    
    74   37   39 am   BACKBONE|DICT|INTERRES
    75   39   40 1    
    76   39   95 1    
    77   40   41 1    
    78   40   42 1    
    79   40   96 1    
    80   41   97 1    
    81   41   98 1    
    82   41   99 1    
    83   42   43 2    
    84   42   44 am   BACKBONE|DICT|INTERRES
    85   44   45 1    
    86   44  100 1    
    87   45   46 1    
    88   45   47 1    
    89   45  101 1    
    90   46  102 1    
    91   46  103 1    
    92   46  104 1    
    93   47   48 2    
    94   47   49 am   BACKBONE|DICT|INTERRES
    95   49   50 1    
    96   49  105 1    
    97   50   51 1    
    98   50   52 1    
    99   50  106 1    
   100   51  107 1    
   101   51  108 1    
   102   51  109 1    
   103   52   53 2    
   104   52   54 am   BACKBONE|DICT|INTERRES
   105   54   55 1    
   106   54  110 1    
   107   55   56 1    
   108   55   59 1    
   109   55  111 1    
   110   56   57 am   BACKBONE|DICT|INTERRES
   111   56   58 2    
   112   57  112 1    
   113   57  113 1    
   114   59   60 1    
   115   59  114 1    
   116   59  115 1    
   117   60   61 1    
   118   61  116 1    
   119   61  117 1    
@<TRIPOS>SUBSTRUCTURE
     1 UNK         1 GROUP             0       ****    0 ROOT    
