@<TRIPOS>MOLECULE
3R8
117   119    1
SMALL
USER_CHARGES


@<TRIPOS>ATOM
      1 CA         13.6244  -23.9095  -43.3990 C.3       0 UNK        -0.2013 
      2 C          14.8112  -24.2850  -44.2739 C.2       0 UNK         0.4866 
      3 O          15.1825  -23.5191  -45.1642 O.2       0 UNK        -0.5176 
      4 N          15.4029  -25.4618  -44.0347 N.am      1 UNK        -0.4884 
      5 CA         16.5832  -25.9671  -44.7449 C.3       1 UNK         0.0853 
      6 C6         16.8095  -27.4759  -44.4822 C.3       10 UNK        -0.0849 
      7 S7         15.4002  -28.5087  -45.0201 S.3       10 UNK        -0.2776 
      8 C8         16.1431  -29.5577  -46.3167 C.3       10 UNK         0.0316 
      9 C9         17.2959  -30.3991  -45.7837 C.ar      10 UNK        -0.0863 
     10 C10        17.0667  -31.3729  -44.8067 C.ar      10 UNK        -0.1009 
     11 C11        18.1314  -32.1006  -44.2679 C.ar      10 UNK        -0.0712 
     12 C12        19.4314  -31.8596  -44.7228 C.ar      10 UNK        -0.0894 
     13 C13        19.6711  -30.9038  -45.7147 C.ar      10 UNK        -0.0745 
     14 C14        18.5973  -30.1849  -46.2489 C.ar      10 UNK        -0.0972 
     15 C15        21.0921  -30.6442  -46.2004 C.3       10 UNK         0.0209 
     16 S16        21.6159  -28.9167  -45.9506 S.3       10 UNK        -0.2568 
     17 C17        21.5402  -28.7733  -44.1331 C.3       10 UNK        -0.0983 
     18 CA         21.8356  -27.3335  -43.6423 C.3       3 UNK         0.0876 
     19 N          20.9032  -26.3699  -44.2388 N.am      3 UNK        -0.4424 
     20 C          21.1026  -25.0553  -44.3940 C.2       2 UNK         0.4918 
     21 O          22.1040  -24.4675  -43.9825 O.2       2 UNK        -0.4875 
     22 CA         20.0202  -24.2555  -45.1459 C.3       2 UNK         0.0481 
     23 CB         20.5427  -23.8258  -46.5266 C.3       2 UNK        -0.1831 
     24 N          18.7538  -24.9773  -45.3214 N.am      2 UNK        -0.4498 
     25 C          17.8443  -25.1667  -44.3552 C.2       1 UNK         0.5027 
     26 O          17.9887  -24.7748  -43.1942 O.2       1 UNK        -0.4969 
     27 C          21.8677  -27.2306  -42.0987 C.2       3 UNK         0.5005 
     28 O          21.5876  -28.2070  -41.3996 O.2       3 UNK        -0.5279 
     29 N          22.1864  -26.0356  -41.5865 N.am      4 UNK        -0.4463 
     30 CA         22.4005  -25.7580  -40.1696 C.3       4 UNK         0.0283 
     31 CB         22.1966  -24.2566  -39.9083 C.3       4 UNK        -0.1875 
     32 C          23.8167  -26.2027  -39.7818 C.2       4 UNK         0.4949 
     33 O          24.7853  -25.6531  -40.3116 O.2       4 UNK        -0.5039 
     34 N          23.9060  -27.1968  -38.8876 N.am      5 UNK        -0.4663 
     35 CA         25.1124  -27.8786  -38.3904 C.3       5 UNK         0.0242 
     36 CB         26.0568  -26.9089  -37.6516 C.3       5 UNK        -0.1982 
     37 C          25.8570  -28.6844  -39.4712 C.2       5 UNK         0.5017 
     38 O          26.0111  -29.8975  -39.3232 O.2       5 UNK        -0.5012 
     39 N          26.2835  -28.0090  -40.5439 N.am      6 UNK        -0.4439 
     40 CA         26.8804  -28.6082  -41.7343 C.3       6 UNK         0.0297 
     41 CB         27.5219  -27.5059  -42.5929 C.3       6 UNK        -0.2006 
     42 C          25.8080  -29.3729  -42.5234 C.2       6 UNK         0.4892 
     43 O          24.8449  -28.7543  -42.9783 O.2       6 UNK        -0.5089 
     44 N          25.9950  -30.6952  -42.6436 N.am      7 UNK        -0.4243 
     45 CA         25.0862  -31.6637  -43.2740 C.3       7 UNK         0.0196 
     46 CB         24.9583  -31.3954  -44.7903 C.3       7 UNK        -0.2007 
     47 C          23.7155  -31.7723  -42.5715 C.2       7 UNK         0.5020 
     48 O          22.7182  -32.0674  -43.2313 O.2       7 UNK        -0.5147 
     49 N          23.6865  -31.5374  -41.2503 N.am      8 UNK        -0.4734 
     50 CA         22.4810  -31.5827  -40.4160 C.3       8 UNK         0.0238 
     51 CB         22.8302  -31.1220  -38.9923 C.3       8 UNK        -0.1912 
     52 C          21.8083  -32.9670  -40.3862 C.2       8 UNK         0.5038 
     53 O          22.4819  -33.9893  -40.5397 O.2       8 UNK        -0.5046 
     54 N          20.4877  -32.9579  -40.1755 N.am      9 UNK        -0.4200 
     55 CA         19.5975  -34.1263  -40.2739 C.3       9 UNK         0.0839 
     56 C          19.7642  -35.1986  -39.1579 C.2       9 UNK         0.5513 
     57 N          20.4887  -34.9313  -38.0783 N.am      9 UNK        -0.7519 
     58 O          19.2225  -36.2946  -39.2767 O.2       9 UNK        -0.4960 
     59 C59        18.1052  -33.7097  -40.4175 C.3       10 UNK        -0.0876 
     60 S60        17.8310  -32.3034  -41.5510 S.3       10 UNK        -0.2414 
     61 C61        17.8843  -33.1228  -43.1709 C.3       10 UNK         0.0169 
     62 H62        13.8320  -22.9839  -42.8629 H         1 UNK         0.0903 
     63 H63        12.7382  -23.7560  -44.0143 H         1 UNK         0.0903 
     64 H64        13.3976  -24.6828  -42.6652 H         1 UNK         0.0903 
     65 H65        15.0609  -26.0501  -43.2883 H         1 UNK         0.3096 
     66 H66        16.4092  -25.8269  -45.8145 H         1 UNK         0.1121 
     67 H67        16.9760  -27.6613  -43.4189 H         1 UNK         0.0849 
     68 H68        17.7160  -27.8124  -44.9865 H         1 UNK         0.0849 
     69 H69        16.4688  -28.9249  -47.1439 H         1 UNK         0.0865 
     70 H70        15.3756  -30.2189  -46.7215 H         1 UNK         0.0865 
     71 H71        16.0627  -31.5395  -44.4402 H         1 UNK         0.1346 
     72 H72        20.2592  -32.4086  -44.2940 H         1 UNK         0.1412 
     73 H73        18.7849  -29.4373  -47.0077 H         1 UNK         0.1426 
     74 H74        21.8034  -31.3026  -45.6996 H         1 UNK         0.0716 
     75 H75        21.1510  -30.8799  -47.2636 H         1 UNK         0.0716 
     76 H76        22.2650  -29.4708  -43.7132 H         1 UNK         0.0695 
     77 H77        20.5578  -29.1008  -43.7879 H         1 UNK         0.0695 
     78 H78        22.8428  -27.0798  -43.9814 H         1 UNK         0.0983 
     79 H79        20.0545  -26.7644  -44.6118 H         1 UNK         0.3095 
     80 H80        19.8235  -23.3522  -44.5645 H         1 UNK         0.0454 
     81 H81        20.7609  -24.6849  -47.1623 H         1 UNK         0.0851 
     82 H82        19.8212  -23.1956  -47.0469 H         1 UNK         0.0851 
     83 H83        21.4638  -23.2485  -46.4342 H         1 UNK         0.0851 
     84 H84        18.5659  -25.3312  -46.2492 H         1 UNK         0.2976 
     85 H85        22.3980  -25.2879  -42.2411 H         1 UNK         0.3116 
     86 H86        21.6659  -26.3091  -39.5782 H         1 UNK         0.0646 
     87 H87        21.1843  -23.9439  -40.1649 H         1 UNK         0.0847 
     88 H88        22.8916  -23.6452  -40.4857 H         1 UNK         0.0847 
     89 H89        22.3525  -24.0203  -38.8550 H         1 UNK         0.0847 
     90 H90        23.0351  -27.5860  -38.5520 H         1 UNK         0.3040 
     91 H91        24.7612  -28.6038  -37.6539 H         1 UNK         0.1015 
     92 H92        26.9018  -27.4460  -37.2189 H         1 UNK         0.0786 
     93 H93        25.5425  -26.4035  -36.8341 H         1 UNK         0.0786 
     94 H94        26.4660  -26.1437  -38.3115 H         1 UNK         0.0786 
     95 H95        26.0030  -27.0326  -40.6062 H         1 UNK         0.3172 
     96 H96        27.6664  -29.2982  -41.4196 H         1 UNK         0.0595 
     97 H97        26.7881  -26.7648  -42.9136 H         1 UNK         0.0839 
     98 H98        27.9749  -27.9264  -43.4917 H         1 UNK         0.0839 
     99 H99        28.3078  -26.9840  -42.0466 H         1 UNK         0.0839 
    100 H100       26.8169  -31.0943  -42.2102 H         1 UNK         0.2998 
    101 H101       25.5565  -32.6409  -43.1549 H         1 UNK         0.0822 
    102 H102       25.9362  -31.3252  -45.2663 H         1 UNK         0.0787 
    103 H103       24.4152  -32.2011  -45.2857 H         1 UNK         0.0787 
    104 H104       24.4177  -30.4703  -44.9938 H         1 UNK         0.0787 
    105 H105       24.5520  -31.3030  -40.7834 H         1 UNK         0.3055 
    106 H106       21.7699  -30.8737  -40.8470 H         1 UNK         0.1106 
    107 H107       23.1687  -30.0874  -38.9919 H         1 UNK         0.0828 
    108 H108       21.9622  -31.1720  -38.3336 H         1 UNK         0.0828 
    109 H109       23.6150  -31.7361  -38.5488 H         1 UNK         0.0828 
    110 H110       20.0187  -32.0736  -40.0450 H         1 UNK         0.2931 
    111 H111       19.8744  -34.6323  -41.2006 H         1 UNK         0.0412 
    112 H112       20.5910  -35.6347  -37.3635 H         1 UNK         0.3472 
    113 H113       20.9459  -34.0392  -37.9796 H         1 UNK         0.3472 
    114 H114       17.7019  -33.4194  -39.4454 H         1 UNK         0.0970 
    115 H115       17.5018  -34.5567  -40.7500 H         1 UNK         0.0970 
    116 H116       16.9452  -33.6502  -43.3446 H         1 UNK         0.0612 
    117 H117       18.6731  -33.8762  -43.1799 H         1 UNK         0.0612 
@<TRIPOS>BOND
     1    1    2 1    
     2    1   62 1    
     3    1   63 1    
     4    1   64 1    
     5    2    3 2    
     6    2    4 am   BACKBONE|DICT|INTERRES
     7    4    5 1    
     8    4   65 1    
     9    5    6 1    
    10    5   25 1    
    11    5   66 1    
    12    6    7 1    
    13    6   67 1    
    14    6   68 1    
    15    7    8 1    
    16    8    9 1    
    17    8   69 1    
    18    8   70 1    
    19    9   10 ar   
    20    9   14 ar   
    21   10   11 ar   
    22   10   71 1    
    23   11   12 ar   
    24   11   61 1    
    25   12   13 ar   
    26   12   72 1    
    27   13   14 ar   
    28   13   15 1    
    29   14   73 1    
    30   15   16 1    
    31   15   74 1    
    32   15   75 1    
    33   16   17 1    
    34   17   18 1    
    35   17   76 1    
    36   17   77 1    
    37   18   19 1    
    38   18   27 1    
    39   18   78 1    
    40   19   20 am   BACKBONE|DICT|INTERRES
    41   19   79 1    
    42   20   21 2    
    43   20   22 1    
    44   22   23 1    
    45   22   24 1    
    46   22   80 1    
    47   23   81 1    
    48   23   82 1    
    49   23   83 1    
    50   24   25 am   BACKBONE|DICT|INTERRES
    51   24   84 1    
    52   25   26 2    
    53   27   28 2    
    54   27   29 am   BACKBONE|DICT|INTERRES
    55   29   30 1    
    56   29   85 1    
    57   30   31 1    
    58   30   32 1    
    59   30   86 1    
    60   31   87 1    
    61   31   88 1    
    62   31   89 1    
    63   32   33 2    
    64   32   34 am   BACKBONE|DICT|INTERRES
    65   34   35 1    
    66   34   90 1    
    67   35   36 1    
    68   35   37 1    
    69   35   91 1    
    70   36   92 1    
    71   36   93 1    
    72   36   94 1    
    73   37   38 2    
    74   37   39 am   BACKBONE|DICT|INTERRES
    75   39   40 1    
    76   39   95 1    
    77   40   41 1    
    78   40   42 1    
    79   40   96 1    
    80   41   97 1    
    81   41   98 1    
    82   41   99 1    
    83   42   43 2    
    84   42   44 am   BACKBONE|DICT|INTERRES
    85   44   45 1    
    86   44  100 1    
    87   45   46 1    
    88   45   47 1    
    89   45  101 1    
    90   46  102 1    
    91   46  103 1    
    92   46  104 1    
    93   47   48 2    
    94   47   49 am   BACKBONE|DICT|INTERRES
    95   49   50 1    
    96   49  105 1    
    97   50   51 1    
    98   50   52 1    
    99   50  106 1    
   100   51  107 1    
   101   51  108 1    
   102   51  109 1    
   103   52   53 2    
   104   52   54 am   BACKBONE|DICT|INTERRES
   105   54   55 1    
   106   54  110 1    
   107   55   56 1    
   108   55   59 1    
   109   55  111 1    
   110   56   57 am   BACKBONE|DICT|INTERRES
   111   56   58 2    
   112   57  112 1    
   113   57  113 1    
   114   59   60 1    
   115   59  114 1    
   116   59  115 1    
   117   60   61 1    
   118   61  116 1    
   119   61  117 1    
@<TRIPOS>SUBSTRUCTURE
     1 UNK         1 GROUP             0       ****    0 ROOT    
