@<TRIPOS>MOLECULE
3R8
117   119    1
SMALL
USER_CHARGES


@<TRIPOS>ATOM
      1 CA         13.3421  -23.3066  -43.8611 C.3       0 UNK        -0.2013 
      2 C          14.4204  -23.9261  -44.7377 C.2       0 UNK         0.4866 
      3 O          14.5005  -23.6102  -45.9255 O.2       0 UNK        -0.5176 
      4 N          15.2436  -24.8127  -44.1648 N.am      1 UNK        -0.4884 
      5 CA         16.3654  -25.4747  -44.8405 C.3       1 UNK         0.0853 
      6 C6         16.8972  -26.6784  -44.0258 C.3       10 UNK        -0.0849 
      7 S7         15.6273  -27.9665  -43.7672 S.3       10 UNK        -0.2776 
      8 C8         16.2792  -29.3637  -44.7431 C.3       10 UNK         0.0316 
      9 C9         17.6210  -29.8546  -44.2148 C.ar      10 UNK        -0.0863 
     10 C10        17.7121  -30.4141  -42.9364 C.ar      10 UNK        -0.1009 
     11 C11        18.9475  -30.8268  -42.4312 C.ar      10 UNK        -0.0712 
     12 C12        20.0955  -30.6844  -43.2158 C.ar      10 UNK        -0.0894 
     13 C13        20.0172  -30.1436  -44.5019 C.ar      10 UNK        -0.0745 
     14 C14        18.7736  -29.7390  -44.9992 C.ar      10 UNK        -0.0972 
     15 C15        21.2775  -30.0190  -45.3512 C.3       10 UNK         0.0209 
     16 S16        21.5292  -28.3430  -46.0215 S.3       10 UNK        -0.2568 
     17 C17        21.8141  -27.3767  -44.5012 C.3       10 UNK        -0.0983 
     18 CA         21.9391  -25.8629  -44.8010 C.3       3 UNK         0.0876 
     19 N          20.7342  -25.3327  -45.4449 N.am      3 UNK        -0.4424 
     20 C          20.6301  -24.1308  -46.0269 C.2       2 UNK         0.4918 
     21 O          21.5510  -23.3143  -46.0778 O.2       2 UNK        -0.4875 
     22 CA         19.2896  -23.7849  -46.7037 C.3       2 UNK         0.0481 
     23 CB         19.4264  -23.8846  -48.2320 C.3       2 UNK        -0.1831 
     24 N          18.1710  -24.6298  -46.2709 N.am      2 UNK        -0.4498 
     25 C          17.5069  -24.4741  -45.1173 C.2       1 UNK         0.5027 
     26 O          17.7801  -23.6094  -44.2806 O.2       1 UNK        -0.4969 
     27 C          22.2787  -25.0698  -43.5226 C.2       3 UNK         0.5005 
     28 O          21.3973  -24.8451  -42.6895 O.2       3 UNK        -0.5279 
     29 N          23.5500  -24.6669  -43.3915 N.am      4 UNK        -0.4463 
     30 CA         24.0646  -23.8669  -42.2736 C.3       4 UNK         0.0283 
     31 CB         25.3106  -23.0991  -42.7470 C.3       4 UNK        -0.1875 
     32 C          24.3921  -24.6928  -41.0149 C.2       4 UNK         0.4949 
     33 O          24.6376  -24.1051  -39.9609 O.2       4 UNK        -0.5039 
     34 N          24.4084  -26.0234  -41.1389 N.am      5 UNK        -0.4663 
     35 CA         24.6653  -26.9819  -40.0682 C.3       5 UNK         0.0242 
     36 CB         26.1523  -27.3806  -40.0911 C.3       5 UNK        -0.1982 
     37 C          23.7602  -28.2025  -40.2727 C.2       5 UNK         0.5017 
     38 O          23.1869  -28.3618  -41.3538 O.2       5 UNK        -0.5012 
     39 N          23.6616  -29.0459  -39.2351 N.am      6 UNK        -0.4439 
     40 CA         22.8532  -30.2699  -39.2267 C.3       6 UNK         0.0297 
     41 CB         22.8613  -30.8893  -37.8195 C.3       6 UNK        -0.2006 
     42 C          23.2948  -31.3073  -40.2722 C.2       6 UNK         0.4892 
     43 O          22.4352  -31.9433  -40.8795 O.2       6 UNK        -0.5089 
     44 N          24.6157  -31.4454  -40.4702 N.am      7 UNK        -0.4243 
     45 CA         25.2691  -32.3235  -41.4481 C.3       7 UNK         0.0196 
     46 CB         25.1241  -31.7235  -42.8665 C.3       7 UNK        -0.2007 
     47 C          24.7785  -33.7811  -41.3281 C.2       7 UNK         0.5020 
     48 O          25.0584  -34.4297  -40.3187 O.2       7 UNK        -0.5147 
     49 N          24.0222  -34.2525  -42.3286 N.am      8 UNK        -0.4734 
     50 CA         23.3940  -35.5759  -42.3751 C.3       8 UNK         0.0238 
     51 CB         22.7649  -35.7812  -43.7629 C.3       8 UNK        -0.1912 
     52 C          22.3481  -35.8267  -41.2713 C.2       8 UNK         0.5038 
     53 O          22.0980  -36.9899  -40.9513 O.2       8 UNK        -0.5046 
     54 N          21.7659  -34.7594  -40.7065 N.am      9 UNK        -0.4200 
     55 CA         20.8389  -34.8290  -39.5653 C.3       9 UNK         0.0839 
     56 C          21.5453  -35.0716  -38.1986 C.2       9 UNK         0.5513 
     57 N          22.8699  -35.0131  -38.1046 N.am      9 UNK        -0.7519 
     58 O          20.8740  -35.3220  -37.2010 O.2       9 UNK        -0.4960 
     59 C59        19.8947  -33.5981  -39.4827 C.3       10 UNK        -0.0876 
     60 S60        19.0402  -33.2233  -41.0540 S.3       10 UNK        -0.2414 
     61 C61        19.0559  -31.4028  -41.0298 C.3       10 UNK         0.0169 
     62 H62        13.4651  -22.2246  -43.8239 H         1 UNK         0.0903 
     63 H63        12.3555  -23.5240  -44.2696 H         1 UNK         0.0903 
     64 H64        13.3774  -23.6872  -42.8405 H         1 UNK         0.0903 
     65 H65        15.1374  -25.0319  -43.1846 H         1 UNK         0.3096 
     66 H66        15.9984  -25.8458  -45.8005 H         1 UNK         0.1121 
     67 H67        17.2524  -26.3523  -43.0460 H         1 UNK         0.0849 
     68 H68        17.7632  -27.1186  -44.5217 H         1 UNK         0.0849 
     69 H69        15.5615  -30.1846  -44.7100 H         1 UNK         0.0865 
     70 H70        16.3540  -29.0652  -45.7900 H         1 UNK         0.0865 
     71 H71        16.8226  -30.5094  -42.3284 H         1 UNK         0.1346 
     72 H72        21.0514  -31.0004  -42.8214 H         1 UNK         0.1412 
     73 H73        18.7101  -29.3186  -45.9937 H         1 UNK         0.1426 
     74 H74        21.2087  -30.7220  -46.1822 H         1 UNK         0.0716 
     75 H75        22.1629  -30.3027  -44.7797 H         1 UNK         0.0716 
     76 H76        22.7234  -27.7532  -44.0288 H         1 UNK         0.0695 
     77 H77        20.9996  -27.5643  -43.7985 H         1 UNK         0.0695 
     78 H78        22.7601  -25.7307  -45.5097 H         1 UNK         0.0983 
     79 H79        19.9317  -25.9415  -45.4486 H         1 UNK         0.3095 
     80 H80        19.0575  -22.7470  -46.4552 H         1 UNK         0.0454 
     81 H81        20.2260  -23.2377  -48.5958 H         1 UNK         0.0851 
     82 H82        18.5101  -23.5744  -48.7345 H         1 UNK         0.0851 
     83 H83        19.6599  -24.9007  -48.5526 H         1 UNK         0.0851 
     84 H84        17.8860  -25.3596  -46.9092 H         1 UNK         0.2976 
     85 H85        24.2131  -24.8954  -44.1192 H         1 UNK         0.3116 
     86 H86        23.3055  -23.1344  -41.9902 H         1 UNK         0.0646 
     87 H87        25.6980  -22.4557  -41.9556 H         1 UNK         0.0847 
     88 H88        26.1159  -23.7744  -43.0389 H         1 UNK         0.0847 
     89 H89        25.0830  -22.4573  -43.5983 H         1 UNK         0.0847 
     90 H90        24.1072  -26.4397  -42.0103 H         1 UNK         0.3040 
     91 H91        24.4171  -26.5354  -39.1024 H         1 UNK         0.1015 
     92 H92        26.3895  -28.0770  -39.2861 H         1 UNK         0.0786 
     93 H93        26.7962  -26.5103  -39.9622 H         1 UNK         0.0786 
     94 H94        26.4254  -27.8612  -41.0316 H         1 UNK         0.0786 
     95 H95        24.1680  -28.8325  -38.3874 H         1 UNK         0.3172 
     96 H96        21.8271  -29.9829  -39.4642 H         1 UNK         0.0595 
     97 H97        22.4403  -30.2060  -37.0817 H         1 UNK         0.0839 
     98 H98        23.8694  -31.1533  -37.4976 H         1 UNK         0.0839 
     99 H99        22.2649  -31.8020  -37.7885 H         1 UNK         0.0839 
    100 H100       25.2347  -30.8968  -39.8911 H         1 UNK         0.2998 
    101 H101       26.3315  -32.3383  -41.2000 H         1 UNK         0.0822 
    102 H102       25.6244  -32.3422  -43.6128 H         1 UNK         0.0787 
    103 H103       24.0809  -31.6115  -43.1652 H         1 UNK         0.0787 
    104 H104       25.5807  -30.7347  -42.9164 H         1 UNK         0.0787 
    105 H105       23.8161  -33.6277  -43.0946 H         1 UNK         0.3055 
    106 H106       24.1826  -36.3195  -42.2402 H         1 UNK         0.1106 
    107 H107       23.5101  -35.7007  -44.5545 H         1 UNK         0.0828 
    108 H108       22.3148  -36.7717  -43.8451 H         1 UNK         0.0828 
    109 H109       21.9801  -35.0500  -43.9618 H         1 UNK         0.0828 
    110 H110       22.0340  -33.8239  -41.0004 H         1 UNK         0.2931 
    111 H111       20.1986  -35.6986  -39.7256 H         1 UNK         0.0412 
    112 H112       23.3063  -35.1786  -37.2116 H         1 UNK         0.3472 
    113 H113       23.4435  -34.8210  -38.9164 H         1 UNK         0.3472 
    114 H114       19.1308  -33.7581  -38.7195 H         1 UNK         0.0970 
    115 H115       20.4599  -32.7238  -39.1589 H         1 UNK         0.0970 
    116 H116       19.9727  -31.0345  -40.5715 H         1 UNK         0.0612 
    117 H117       18.2377  -31.0469  -40.4020 H         1 UNK         0.0612 
@<TRIPOS>BOND
     1    1    2 1    
     2    1   62 1    
     3    1   63 1    
     4    1   64 1    
     5    2    3 2    
     6    2    4 am   BACKBONE|DICT|INTERRES
     7    4    5 1    
     8    4   65 1    
     9    5    6 1    
    10    5   25 1    
    11    5   66 1    
    12    6    7 1    
    13    6   67 1    
    14    6   68 1    
    15    7    8 1    
    16    8    9 1    
    17    8   69 1    
    18    8   70 1    
    19    9   10 ar   
    20    9   14 ar   
    21   10   11 ar   
    22   10   71 1    
    23   11   12 ar   
    24   11   61 1    
    25   12   13 ar   
    26   12   72 1    
    27   13   14 ar   
    28   13   15 1    
    29   14   73 1    
    30   15   16 1    
    31   15   74 1    
    32   15   75 1    
    33   16   17 1    
    34   17   18 1    
    35   17   76 1    
    36   17   77 1    
    37   18   19 1    
    38   18   27 1    
    39   18   78 1    
    40   19   20 am   BACKBONE|DICT|INTERRES
    41   19   79 1    
    42   20   21 2    
    43   20   22 1    
    44   22   23 1    
    45   22   24 1    
    46   22   80 1    
    47   23   81 1    
    48   23   82 1    
    49   23   83 1    
    50   24   25 am   BACKBONE|DICT|INTERRES
    51   24   84 1    
    52   25   26 2    
    53   27   28 2    
    54   27   29 am   BACKBONE|DICT|INTERRES
    55   29   30 1    
    56   29   85 1    
    57   30   31 1    
    58   30   32 1    
    59   30   86 1    
    60   31   87 1    
    61   31   88 1    
    62   31   89 1    
    63   32   33 2    
    64   32   34 am   BACKBONE|DICT|INTERRES
    65   34   35 1    
    66   34   90 1    
    67   35   36 1    
    68   35   37 1    
    69   35   91 1    
    70   36   92 1    
    71   36   93 1    
    72   36   94 1    
    73   37   38 2    
    74   37   39 am   BACKBONE|DICT|INTERRES
    75   39   40 1    
    76   39   95 1    
    77   40   41 1    
    78   40   42 1    
    79   40   96 1    
    80   41   97 1    
    81   41   98 1    
    82   41   99 1    
    83   42   43 2    
    84   42   44 am   BACKBONE|DICT|INTERRES
    85   44   45 1    
    86   44  100 1    
    87   45   46 1    
    88   45   47 1    
    89   45  101 1    
    90   46  102 1    
    91   46  103 1    
    92   46  104 1    
    93   47   48 2    
    94   47   49 am   BACKBONE|DICT|INTERRES
    95   49   50 1    
    96   49  105 1    
    97   50   51 1    
    98   50   52 1    
    99   50  106 1    
   100   51  107 1    
   101   51  108 1    
   102   51  109 1    
   103   52   53 2    
   104   52   54 am   BACKBONE|DICT|INTERRES
   105   54   55 1    
   106   54  110 1    
   107   55   56 1    
   108   55   59 1    
   109   55  111 1    
   110   56   57 am   BACKBONE|DICT|INTERRES
   111   56   58 2    
   112   57  112 1    
   113   57  113 1    
   114   59   60 1    
   115   59  114 1    
   116   59  115 1    
   117   60   61 1    
   118   61  116 1    
   119   61  117 1    
@<TRIPOS>SUBSTRUCTURE
     1 UNK         1 GROUP             0       ****    0 ROOT    
