@<TRIPOS>MOLECULE
3R8
117   119    1
SMALL
USER_CHARGES


@<TRIPOS>ATOM
      1 CA         17.6006  -22.1714  -40.9418 C.3       0 UNK        -0.2013 
      2 C          17.1363  -22.4914  -42.3552 C.2       0 UNK         0.4866 
      3 O          16.7012  -21.5920  -43.0755 O.2       0 UNK        -0.5176 
      4 N          17.2184  -23.7679  -42.7502 N.am      1 UNK        -0.4884 
      5 CA         16.9028  -24.2647  -44.0940 C.3       1 UNK         0.0853 
      6 C6         16.3915  -25.7289  -44.0299 C.3       10 UNK        -0.0849 
      7 S7         17.6563  -26.9414  -43.5100 S.3       10 UNK        -0.2776 
      8 C8         16.9904  -28.4448  -44.2896 C.3       10 UNK         0.0316 
      9 C9         18.0019  -29.5730  -44.2151 C.ar      10 UNK        -0.0863 
     10 C10        17.8884  -30.5719  -43.2453 C.ar      10 UNK        -0.1009 
     11 C11        18.8400  -31.5923  -43.1726 C.ar      10 UNK        -0.0712 
     12 C12        19.9260  -31.5879  -44.0549 C.ar      10 UNK        -0.0894 
     13 C13        20.0552  -30.5906  -45.0279 C.ar      10 UNK        -0.0745 
     14 C14        19.0652  -29.6052  -45.1192 C.ar      10 UNK        -0.0972 
     15 C15        21.2721  -30.6092  -45.9572 C.3       10 UNK         0.0209 
     16 S16        21.7409  -28.9916  -46.6783 S.3       10 UNK        -0.2568 
     17 C17        22.0751  -28.0110  -45.1769 C.3       10 UNK        -0.0983 
     18 CA         21.9338  -26.4780  -45.3794 C.3       3 UNK         0.0876 
     19 N          20.6595  -26.0916  -46.0033 N.am      3 UNK        -0.4424 
     20 C          20.5148  -25.0221  -46.7977 C.2       2 UNK         0.4918 
     21 O          21.4426  -24.2877  -47.1388 O.2       2 UNK        -0.4875 
     22 CA         19.0859  -24.6975  -47.2734 C.3       2 UNK         0.0481 
     23 CB         18.6806  -25.6243  -48.4311 C.3       2 UNK        -0.1831 
     24 N          18.0700  -24.7595  -46.2145 N.am      2 UNK        -0.4498 
     25 C          18.0833  -24.0464  -45.0763 C.2       1 UNK         0.5027 
     26 O          18.9886  -23.2600  -44.7888 O.2       1 UNK        -0.4969 
     27 C          22.1205  -25.7853  -44.0146 C.2       3 UNK         0.5005 
     28 O          23.2512  -25.7016  -43.5353 O.2       3 UNK        -0.5279 
     29 N          21.0036  -25.3767  -43.3871 N.am      4 UNK        -0.4463 
     30 CA         20.8561  -25.0416  -41.9650 C.3       4 UNK         0.0283 
     31 CB         21.6176  -23.7493  -41.6056 C.3       4 UNK        -0.1875 
     32 C          21.2318  -26.2470  -41.0800 C.2       4 UNK         0.4949 
     33 O          22.0038  -26.1076  -40.1299 O.2       4 UNK        -0.5039 
     34 N          20.7211  -27.4276  -41.4674 N.am      5 UNK        -0.4663 
     35 CA         20.9927  -28.7789  -40.9527 C.3       5 UNK         0.0242 
     36 CB         20.5974  -28.9096  -39.4688 C.3       5 UNK        -0.1982 
     37 C          22.4308  -29.2787  -41.1887 C.2       5 UNK         0.5017 
     38 O          22.6100  -30.4277  -41.5928 O.2       5 UNK        -0.5012 
     39 N          23.4284  -28.4268  -40.9088 N.am      6 UNK        -0.4439 
     40 CA         24.8766  -28.6278  -41.0817 C.3       6 UNK         0.0297 
     41 CB         25.2243  -28.6901  -42.5843 C.3       6 UNK        -0.2006 
     42 C          25.4631  -29.8325  -40.3129 C.2       6 UNK         0.4892 
     43 O          26.5593  -30.2848  -40.6463 O.2       6 UNK        -0.5089 
     44 N          24.7129  -30.3473  -39.3251 N.am      7 UNK        -0.4243 
     45 CA         24.9259  -31.6079  -38.6003 C.3       7 UNK         0.0196 
     46 CB         26.2003  -31.5390  -37.7318 C.3       7 UNK        -0.2007 
     47 C          24.8929  -32.8587  -39.5090 C.2       7 UNK         0.5020 
     48 O          25.4063  -33.9068  -39.1149 O.2       7 UNK        -0.5147 
     49 N          24.2888  -32.7425  -40.7011 N.am      8 UNK        -0.4734 
     50 CA         24.1876  -33.8190  -41.6903 C.3       8 UNK         0.0238 
     51 CB         24.1246  -33.1927  -43.0941 C.3       8 UNK        -0.1912 
     52 C          22.9692  -34.7273  -41.4580 C.2       8 UNK         0.5038 
     53 O          22.9418  -35.8408  -41.9842 O.2       8 UNK        -0.5046 
     54 N          21.9783  -34.2265  -40.7115 N.am      9 UNK        -0.4200 
     55 CA         20.6991  -34.8879  -40.4261 C.3       9 UNK         0.0839 
     56 C          20.8542  -36.1661  -39.5592 C.2       9 UNK         0.5513 
     57 N          20.0268  -37.1762  -39.7905 N.am      9 UNK        -0.7519 
     58 O          21.6815  -36.2309  -38.6521 O.2       9 UNK        -0.4960 
     59 C59        19.6745  -33.9100  -39.7869 C.3       10 UNK        -0.0876 
     60 S60        19.5869  -32.2860  -40.6173 S.3       10 UNK        -0.2414 
     61 C61        18.6976  -32.7020  -42.1439 C.3       10 UNK         0.0169 
     62 H62        16.7891  -21.7181  -40.3731 H         1 UNK         0.0903 
     63 H63        17.9319  -23.0623  -40.4084 H         1 UNK         0.0903 
     64 H64        18.4314  -21.4669  -40.9720 H         1 UNK         0.0903 
     65 H65        17.5748  -24.4642  -42.1122 H         1 UNK         0.3096 
     66 H66        16.0826  -23.6603  -44.4887 H         1 UNK         0.1121 
     67 H67        15.5572  -25.7935  -43.3291 H         1 UNK         0.0849 
     68 H68        15.9713  -26.0233  -44.9928 H         1 UNK         0.0849 
     69 H69        16.0574  -28.7267  -43.7989 H         1 UNK         0.0865 
     70 H70        16.7447  -28.2495  -45.3346 H         1 UNK         0.0865 
     71 H71        17.0622  -30.5569  -42.5475 H         1 UNK         0.1346 
     72 H72        20.6753  -32.3641  -43.9785 H         1 UNK         0.1412 
     73 H73        19.1304  -28.8382  -45.8766 H         1 UNK         0.1426 
     74 H74        21.0738  -31.3064  -46.7720 H         1 UNK         0.0716 
     75 H75        22.1374  -30.9995  -45.4185 H         1 UNK         0.0716 
     76 H76        23.0866  -28.2551  -44.8470 H         1 UNK         0.0695 
     77 H77        21.4166  -28.3487  -44.3754 H         1 UNK         0.0695 
     78 H78        22.7574  -26.1548  -46.0203 H         1 UNK         0.0983 
     79 H79        19.8551  -26.6643  -45.7989 H         1 UNK         0.3095 
     80 H80        19.0929  -23.6730  -47.6512 H         1 UNK         0.0454 
     81 H81        19.4138  -25.5834  -49.2380 H         1 UNK         0.0851 
     82 H82        17.7203  -25.3327  -48.8567 H         1 UNK         0.0851 
     83 H83        18.6057  -26.6651  -48.1137 H         1 UNK         0.0851 
     84 H84        17.2942  -25.3839  -46.3795 H         1 UNK         0.2976 
     85 H85        20.1412  -25.4262  -43.9092 H         1 UNK         0.3116 
     86 H86        19.7953  -24.8549  -41.7969 H         1 UNK         0.0646 
     87 H87        22.6971  -23.8720  -41.6960 H         1 UNK         0.0847 
     88 H88        21.3178  -22.9231  -42.2504 H         1 UNK         0.0847 
     89 H89        21.4114  -23.4504  -40.5773 H         1 UNK         0.0847 
     90 H90        20.0997  -27.4102  -42.2648 H         1 UNK         0.3040 
     91 H91        20.3440  -29.4452  -41.5249 H         1 UNK         0.1015 
     92 H92        20.7492  -29.9292  -39.1131 H         1 UNK         0.0786 
     93 H93        19.5443  -28.6706  -39.3206 H         1 UNK         0.0786 
     94 H94        21.1840  -28.2549  -38.8243 H         1 UNK         0.0786 
     95 H95        23.1455  -27.5133  -40.5571 H         1 UNK         0.3172 
     96 H96        25.3565  -27.7412  -40.6653 H         1 UNK         0.0595 
     97 H97        24.7998  -29.5742  -43.0614 H         1 UNK         0.0839 
     98 H98        26.3032  -28.7221  -42.7408 H         1 UNK         0.0839 
     99 H99        24.8535  -27.8124  -43.1121 H         1 UNK         0.0839 
    100 H100       23.8355  -29.8833  -39.1375 H         1 UNK         0.2998 
    101 H101       24.0754  -31.7123  -37.9250 H         1 UNK         0.0822 
    102 H102       26.2734  -32.4060  -37.0740 H         1 UNK         0.0787 
    103 H103       26.2010  -30.6529  -37.0972 H         1 UNK         0.0787 
    104 H104       27.1052  -31.5178  -38.3397 H         1 UNK         0.0787 
    105 H105       23.8640  -31.8547  -40.9563 H         1 UNK         0.3055 
    106 H106       25.0802  -34.4464  -41.6346 H         1 UNK         0.1106 
    107 H107       25.0013  -32.5759  -43.2926 H         1 UNK         0.0828 
    108 H108       24.0888  -33.9633  -43.8654 H         1 UNK         0.0828 
    109 H109       23.2403  -32.5659  -43.2178 H         1 UNK         0.0828 
    110 H110       22.0898  -33.2983  -40.3330 H         1 UNK         0.2931 
    111 H111       20.3003  -35.2020  -41.3922 H         1 UNK         0.0412 
    112 H112       20.1000  -38.0089  -39.2263 H         1 UNK         0.3472 
    113 H113       19.3376  -37.1295  -40.5253 H         1 UNK         0.3472 
    114 H114       18.6776  -34.3545  -39.7758 H         1 UNK         0.0970 
    115 H115       19.9315  -33.7229  -38.7423 H         1 UNK         0.0970 
    116 H116       19.0844  -33.6317  -42.5616 H         1 UNK         0.0612 
    117 H117       17.6462  -32.8797  -41.9130 H         1 UNK         0.0612 
@<TRIPOS>BOND
     1    1    2 1    
     2    1   62 1    
     3    1   63 1    
     4    1   64 1    
     5    2    3 2    
     6    2    4 am   BACKBONE|DICT|INTERRES
     7    4    5 1    
     8    4   65 1    
     9    5    6 1    
    10    5   25 1    
    11    5   66 1    
    12    6    7 1    
    13    6   67 1    
    14    6   68 1    
    15    7    8 1    
    16    8    9 1    
    17    8   69 1    
    18    8   70 1    
    19    9   10 ar   
    20    9   14 ar   
    21   10   11 ar   
    22   10   71 1    
    23   11   12 ar   
    24   11   61 1    
    25   12   13 ar   
    26   12   72 1    
    27   13   14 ar   
    28   13   15 1    
    29   14   73 1    
    30   15   16 1    
    31   15   74 1    
    32   15   75 1    
    33   16   17 1    
    34   17   18 1    
    35   17   76 1    
    36   17   77 1    
    37   18   19 1    
    38   18   27 1    
    39   18   78 1    
    40   19   20 am   BACKBONE|DICT|INTERRES
    41   19   79 1    
    42   20   21 2    
    43   20   22 1    
    44   22   23 1    
    45   22   24 1    
    46   22   80 1    
    47   23   81 1    
    48   23   82 1    
    49   23   83 1    
    50   24   25 am   BACKBONE|DICT|INTERRES
    51   24   84 1    
    52   25   26 2    
    53   27   28 2    
    54   27   29 am   BACKBONE|DICT|INTERRES
    55   29   30 1    
    56   29   85 1    
    57   30   31 1    
    58   30   32 1    
    59   30   86 1    
    60   31   87 1    
    61   31   88 1    
    62   31   89 1    
    63   32   33 2    
    64   32   34 am   BACKBONE|DICT|INTERRES
    65   34   35 1    
    66   34   90 1    
    67   35   36 1    
    68   35   37 1    
    69   35   91 1    
    70   36   92 1    
    71   36   93 1    
    72   36   94 1    
    73   37   38 2    
    74   37   39 am   BACKBONE|DICT|INTERRES
    75   39   40 1    
    76   39   95 1    
    77   40   41 1    
    78   40   42 1    
    79   40   96 1    
    80   41   97 1    
    81   41   98 1    
    82   41   99 1    
    83   42   43 2    
    84   42   44 am   BACKBONE|DICT|INTERRES
    85   44   45 1    
    86   44  100 1    
    87   45   46 1    
    88   45   47 1    
    89   45  101 1    
    90   46  102 1    
    91   46  103 1    
    92   46  104 1    
    93   47   48 2    
    94   47   49 am   BACKBONE|DICT|INTERRES
    95   49   50 1    
    96   49  105 1    
    97   50   51 1    
    98   50   52 1    
    99   50  106 1    
   100   51  107 1    
   101   51  108 1    
   102   51  109 1    
   103   52   53 2    
   104   52   54 am   BACKBONE|DICT|INTERRES
   105   54   55 1    
   106   54  110 1    
   107   55   56 1    
   108   55   59 1    
   109   55  111 1    
   110   56   57 am   BACKBONE|DICT|INTERRES
   111   56   58 2    
   112   57  112 1    
   113   57  113 1    
   114   59   60 1    
   115   59  114 1    
   116   59  115 1    
   117   60   61 1    
   118   61  116 1    
   119   61  117 1    
@<TRIPOS>SUBSTRUCTURE
     1 UNK         1 GROUP             0       ****    0 ROOT    
