@<TRIPOS>MOLECULE
3R8
117   119    1
SMALL
USER_CHARGES


@<TRIPOS>ATOM
      1 CA         15.6364  -28.3149  -42.6588 C.3       0 UNK        -0.2013 
      2 C          16.0203  -27.4849  -43.8723 C.2       0 UNK         0.4866 
      3 O          15.3930  -26.4547  -44.1200 O.2       0 UNK        -0.5176 
      4 N          17.0194  -27.9313  -44.6478 N.am      1 UNK        -0.4884 
      5 CA         17.4212  -27.2872  -45.9034 C.3       1 UNK         0.0853 
      6 C6         18.1676  -28.2578  -46.8580 C.3       10 UNK        -0.0849 
      7 S7         19.8656  -28.7250  -46.3603 S.3       10 UNK        -0.2776 
      8 C8         19.6843  -30.4729  -45.8780 C.3       10 UNK         0.0316 
      9 C9         19.0799  -30.6576  -44.4907 C.ar      10 UNK        -0.0863 
     10 C10        18.0527  -31.5850  -44.2932 C.ar      10 UNK        -0.1009 
     11 C11        17.5481  -31.8269  -43.0114 C.ar      10 UNK        -0.0712 
     12 C12        18.0542  -31.1041  -41.9259 C.ar      10 UNK        -0.0894 
     13 C13        19.0611  -30.1551  -42.1140 C.ar      10 UNK        -0.0745 
     14 C14        19.5784  -29.9463  -43.3944 C.ar      10 UNK        -0.0972 
     15 C15        19.5759  -29.3357  -40.9434 C.3       10 UNK         0.0209 
     16 S16        18.5853  -27.8221  -40.7643 S.3       10 UNK        -0.2568 
     17 C17        19.7407  -26.7189  -39.8879 C.3       10 UNK        -0.0983 
     18 CA         20.8009  -26.0905  -40.8293 C.3       3 UNK         0.0876 
     19 N          20.2051  -25.5122  -42.0469 N.am      3 UNK        -0.4424 
     20 C          20.8640  -25.2779  -43.1884 C.2       2 UNK         0.4918 
     21 O          22.0826  -25.4116  -43.3023 O.2       2 UNK        -0.4875 
     22 CA         20.0146  -24.8472  -44.3919 C.3       2 UNK         0.0481 
     23 CB         20.8967  -24.4538  -45.6002 C.3       2 UNK        -0.1831 
     24 N          19.1095  -25.9481  -44.7245 N.am      2 UNK        -0.4498 
     25 C          18.1710  -25.9550  -45.6813 C.2       1 UNK         0.5027 
     26 O          17.8793  -24.9756  -46.3698 O.2       1 UNK        -0.4969 
     27 C          21.7559  -25.1434  -40.0634 C.2       3 UNK         0.5005 
     28 O          22.2651  -25.5234  -39.0074 O.2       3 UNK        -0.5279 
     29 N          22.0144  -23.9448  -40.6075 N.am      4 UNK        -0.4463 
     30 CA         23.1400  -23.0872  -40.2291 C.3       4 UNK         0.0283 
     31 CB         22.9406  -21.6879  -40.8330 C.3       4 UNK        -0.1875 
     32 C          24.4928  -23.6808  -40.6732 C.2       4 UNK         0.4949 
     33 O          25.5039  -23.4268  -40.0180 O.2       4 UNK        -0.5039 
     34 N          24.4862  -24.4687  -41.7586 N.am      5 UNK        -0.4663 
     35 CA         25.6077  -25.2980  -42.1965 C.3       5 UNK         0.0242 
     36 CB         25.5561  -25.4278  -43.7284 C.3       5 UNK        -0.1982 
     37 C          25.5233  -26.6843  -41.5357 C.2       5 UNK         0.5017 
     38 O          24.4573  -27.0765  -41.0545 O.2       5 UNK        -0.5012 
     39 N          26.6470  -27.4125  -41.5402 N.am      6 UNK        -0.4439 
     40 CA         26.7586  -28.7755  -41.0180 C.3       6 UNK         0.0297 
     41 CB         28.2465  -29.1421  -40.8722 C.3       6 UNK        -0.2006 
     42 C          26.0099  -29.7765  -41.9167 C.2       6 UNK         0.4892 
     43 O          26.5565  -30.2155  -42.9307 O.2       6 UNK        -0.5089 
     44 N          24.7717  -30.0995  -41.5344 N.am      7 UNK        -0.4243 
     45 CA         23.8796  -31.0354  -42.2090 C.3       7 UNK         0.0196 
     46 CB         23.1685  -30.3304  -43.3782 C.3       7 UNK        -0.2007 
     47 C          22.8713  -31.5638  -41.1829 C.2       7 UNK         0.5020 
     48 O          22.5631  -30.8634  -40.2155 O.2       7 UNK        -0.5147 
     49 N          22.3744  -32.7832  -41.4116 N.am      8 UNK        -0.4734 
     50 CA         21.4211  -33.4734  -40.5395 C.3       8 UNK         0.0238 
     51 CB         22.1518  -34.0841  -39.3245 C.3       8 UNK        -0.1912 
     52 C          20.6240  -34.5089  -41.3472 C.2       8 UNK         0.5038 
     53 O          20.5769  -35.6822  -40.9736 O.2       8 UNK        -0.5046 
     54 N          20.0328  -34.0513  -42.4578 N.am      9 UNK        -0.4200 
     55 CA         19.1737  -34.8280  -43.3717 C.3       9 UNK         0.0839 
     56 C          19.9052  -35.9292  -44.1980 C.2       9 UNK         0.5513 
     57 N          21.2293  -35.9190  -44.2910 N.am      9 UNK        -0.7519 
     58 O          19.2631  -36.7905  -44.7941 O.2       9 UNK        -0.4960 
     59 C59        17.8647  -35.3576  -42.7095 C.3       10 UNK        -0.0876 
     60 S60        16.9658  -34.1764  -41.6395 S.3       10 UNK        -0.2414 
     61 C61        16.4526  -32.8633  -42.7954 C.3       10 UNK         0.0169 
     62 H62        14.6044  -28.6527  -42.7466 H         1 UNK         0.0903 
     63 H63        16.2690  -29.1922  -42.5530 H         1 UNK         0.0903 
     64 H64        15.7232  -27.7191  -41.7509 H         1 UNK         0.0903 
     65 H65        17.5180  -28.7764  -44.3991 H         1 UNK         0.3096 
     66 H66        16.4965  -27.0173  -46.4201 H         1 UNK         0.1121 
     67 H67        18.2378  -27.8033  -47.8480 H         1 UNK         0.0849 
     68 H68        17.5703  -29.1594  -47.0025 H         1 UNK         0.0849 
     69 H69        19.1038  -30.9992  -46.6374 H         1 UNK         0.0865 
     70 H70        20.6729  -30.9338  -45.8811 H         1 UNK         0.0865 
     71 H71        17.6639  -32.1427  -45.1345 H         1 UNK         0.1346 
     72 H72        17.6536  -31.2733  -40.9355 H         1 UNK         0.1412 
     73 H73        20.3662  -29.2205  -43.5392 H         1 UNK         0.1426 
     74 H74        20.6247  -29.0852  -41.1046 H         1 UNK         0.0716 
     75 H75        19.5358  -29.9137  -40.0189 H         1 UNK         0.0716 
     76 H76        20.2179  -27.2847  -39.0851 H         1 UNK         0.0695 
     77 H77        19.1525  -25.9370  -39.4043 H         1 UNK         0.0695 
     78 H78        21.4489  -26.9040  -41.1635 H         1 UNK         0.0983 
     79 H79        19.2042  -25.3769  -42.0233 H         1 UNK         0.3095 
     80 H80        19.4203  -23.9826  -44.0909 H         1 UNK         0.0454 
     81 H81        21.4447  -25.3117  -45.9919 H         1 UNK         0.0851 
     82 H82        21.6313  -23.6978  -45.3197 H         1 UNK         0.0851 
     83 H83        20.3105  -24.0311  -46.4151 H         1 UNK         0.0851 
     84 H84        19.2619  -26.8076  -44.2143 H         1 UNK         0.2976 
     85 H85        21.5317  -23.7083  -41.4617 H         1 UNK         0.3116 
     86 H86        23.1546  -22.9941  -39.1411 H         1 UNK         0.0646 
     87 H87        22.9153  -21.7161  -41.9231 H         1 UNK         0.0847 
     88 H88        23.7541  -21.0210  -40.5440 H         1 UNK         0.0847 
     89 H89        22.0126  -21.2333  -40.4857 H         1 UNK         0.0847 
     90 H90        23.5979  -24.6809  -42.2018 H         1 UNK         0.3040 
     91 H91        26.5507  -24.8263  -41.9106 H         1 UNK         0.1015 
     92 H92        24.6519  -25.9405  -44.0598 H         1 UNK         0.0786 
     93 H93        26.4078  -25.9954  -44.1054 H         1 UNK         0.0786 
     94 H94        25.5808  -24.4501  -44.2100 H         1 UNK         0.0786 
     95 H95        27.4693  -27.0349  -41.9889 H         1 UNK         0.3172 
     96 H96        26.3125  -28.8018  -40.0211 H         1 UNK         0.0595 
     97 H97        28.7747  -29.0918  -41.8254 H         1 UNK         0.0839 
     98 H98        28.3607  -30.1579  -40.4913 H         1 UNK         0.0839 
     99 H99        28.7530  -28.4768  -40.1727 H         1 UNK         0.0839 
    100 H100       24.3803  -29.6844  -40.6965 H         1 UNK         0.2998 
    101 H101       24.4635  -31.8773  -42.5877 H         1 UNK         0.0822 
    102 H102       23.8775  -30.0312  -44.1503 H         1 UNK         0.0787 
    103 H103       22.4341  -30.9848  -43.8492 H         1 UNK         0.0787 
    104 H104       22.6487  -29.4328  -43.0418 H         1 UNK         0.0787 
    105 H105       22.6755  -33.2913  -42.2319 H         1 UNK         0.3055 
    106 H106       20.6910  -32.7492  -40.1692 H         1 UNK         0.1106 
    107 H107       21.4520  -34.5978  -38.6640 H         1 UNK         0.0828 
    108 H108       22.9054  -34.8096  -39.6323 H         1 UNK         0.0828 
    109 H109       22.6479  -33.3174  -38.7294 H         1 UNK         0.0828 
    110 H110       20.1224  -33.0703  -42.6813 H         1 UNK         0.2931 
    111 H111       18.8683  -34.1167  -44.1353 H         1 UNK         0.0412 
    112 H112       21.7710  -35.2172  -43.8161 H         1 UNK         0.3472 
    113 H113       21.6904  -36.6301  -44.8370 H         1 UNK         0.3472 
    114 H114       18.0914  -36.2329  -42.0984 H         1 UNK         0.0970 
    115 H115       17.1715  -35.7070  -43.4767 H         1 UNK         0.0970 
    116 H116       16.1363  -33.3116  -43.7385 H         1 UNK         0.0612 
    117 H117       15.5766  -32.3602  -42.3840 H         1 UNK         0.0612 
@<TRIPOS>BOND
     1    1    2 1    
     2    1   62 1    
     3    1   63 1    
     4    1   64 1    
     5    2    3 2    
     6    2    4 am   BACKBONE|DICT|INTERRES
     7    4    5 1    
     8    4   65 1    
     9    5    6 1    
    10    5   25 1    
    11    5   66 1    
    12    6    7 1    
    13    6   67 1    
    14    6   68 1    
    15    7    8 1    
    16    8    9 1    
    17    8   69 1    
    18    8   70 1    
    19    9   10 ar   
    20    9   14 ar   
    21   10   11 ar   
    22   10   71 1    
    23   11   12 ar   
    24   11   61 1    
    25   12   13 ar   
    26   12   72 1    
    27   13   14 ar   
    28   13   15 1    
    29   14   73 1    
    30   15   16 1    
    31   15   74 1    
    32   15   75 1    
    33   16   17 1    
    34   17   18 1    
    35   17   76 1    
    36   17   77 1    
    37   18   19 1    
    38   18   27 1    
    39   18   78 1    
    40   19   20 am   BACKBONE|DICT|INTERRES
    41   19   79 1    
    42   20   21 2    
    43   20   22 1    
    44   22   23 1    
    45   22   24 1    
    46   22   80 1    
    47   23   81 1    
    48   23   82 1    
    49   23   83 1    
    50   24   25 am   BACKBONE|DICT|INTERRES
    51   24   84 1    
    52   25   26 2    
    53   27   28 2    
    54   27   29 am   BACKBONE|DICT|INTERRES
    55   29   30 1    
    56   29   85 1    
    57   30   31 1    
    58   30   32 1    
    59   30   86 1    
    60   31   87 1    
    61   31   88 1    
    62   31   89 1    
    63   32   33 2    
    64   32   34 am   BACKBONE|DICT|INTERRES
    65   34   35 1    
    66   34   90 1    
    67   35   36 1    
    68   35   37 1    
    69   35   91 1    
    70   36   92 1    
    71   36   93 1    
    72   36   94 1    
    73   37   38 2    
    74   37   39 am   BACKBONE|DICT|INTERRES
    75   39   40 1    
    76   39   95 1    
    77   40   41 1    
    78   40   42 1    
    79   40   96 1    
    80   41   97 1    
    81   41   98 1    
    82   41   99 1    
    83   42   43 2    
    84   42   44 am   BACKBONE|DICT|INTERRES
    85   44   45 1    
    86   44  100 1    
    87   45   46 1    
    88   45   47 1    
    89   45  101 1    
    90   46  102 1    
    91   46  103 1    
    92   46  104 1    
    93   47   48 2    
    94   47   49 am   BACKBONE|DICT|INTERRES
    95   49   50 1    
    96   49  105 1    
    97   50   51 1    
    98   50   52 1    
    99   50  106 1    
   100   51  107 1    
   101   51  108 1    
   102   51  109 1    
   103   52   53 2    
   104   52   54 am   BACKBONE|DICT|INTERRES
   105   54   55 1    
   106   54  110 1    
   107   55   56 1    
   108   55   59 1    
   109   55  111 1    
   110   56   57 am   BACKBONE|DICT|INTERRES
   111   56   58 2    
   112   57  112 1    
   113   57  113 1    
   114   59   60 1    
   115   59  114 1    
   116   59  115 1    
   117   60   61 1    
   118   61  116 1    
   119   61  117 1    
@<TRIPOS>SUBSTRUCTURE
     1 UNK         1 GROUP             0       ****    0 ROOT    
