@<TRIPOS>MOLECULE
3R8
117   119    1
SMALL
USER_CHARGES


@<TRIPOS>ATOM
      1 CA         15.6966  -24.9513  -46.3682 C.3       0 UNK        -0.2013 
      2 C          17.0467  -25.3269  -45.7788 C.2       0 UNK         0.4866 
      3 O          17.0994  -26.0568  -44.7886 O.2       0 UNK        -0.5176 
      4 N          18.1419  -24.8185  -46.3652 N.am      1 UNK        -0.4884 
      5 CA         19.5570  -25.0972  -46.0383 C.3       1 UNK         0.0853 
      6 C6         19.9286  -26.6022  -46.1822 C.3       10 UNK        -0.0849 
      7 S7         19.6218  -27.2960  -47.8422 S.3       10 UNK        -0.2776 
      8 C8         18.1082  -28.2922  -47.6006 C.3       10 UNK         0.0316 
      9 C9         18.2281  -29.3433  -46.5007 C.ar      10 UNK        -0.0863 
     10 C10        19.2285  -30.3173  -46.5593 C.ar      10 UNK        -0.1009 
     11 C11        19.3284  -31.3087  -45.5787 C.ar      10 UNK        -0.0712 
     12 C12        18.3895  -31.3253  -44.5370 C.ar      10 UNK        -0.0894 
     13 C13        17.3920  -30.3491  -44.4533 C.ar      10 UNK        -0.0745 
     14 C14        17.3171  -29.3604  -45.4390 C.ar      10 UNK        -0.0972 
     15 C15        16.3786  -30.3877  -43.3143 C.3       10 UNK         0.0209 
     16 S16        17.1541  -30.1989  -41.6732 S.3       10 UNK        -0.2568 
     17 C17        17.4311  -28.3993  -41.5657 C.3       10 UNK        -0.0983 
     18 CA         18.7791  -27.9461  -42.1796 C.3       3 UNK         0.0876 
     19 N          18.7906  -26.5018  -42.4409 N.am      3 UNK        -0.4424 
     20 C          19.3068  -25.4778  -41.7364 C.2       2 UNK         0.4918 
     21 O          19.9000  -25.5922  -40.6637 O.2       2 UNK        -0.4875 
     22 CA         19.1127  -24.0719  -42.3563 C.3       2 UNK         0.0481 
     23 CB         20.1113  -23.0113  -41.8484 C.3       2 UNK        -0.1831 
     24 N          19.0641  -24.1149  -43.8228 N.am      2 UNK        -0.4498 
     25 C          20.0105  -24.5952  -44.6448 C.2       1 UNK         0.5027 
     26 O          21.1909  -24.7243  -44.3193 O.2       1 UNK        -0.4969 
     27 C          20.0380  -28.4930  -41.4716 C.2       3 UNK         0.5005 
     28 O          20.9912  -28.8790  -42.1490 O.2       3 UNK        -0.5279 
     29 N          20.0423  -28.4870  -40.1295 N.am      4 UNK        -0.4463 
     30 CA         21.1487  -28.9274  -39.2712 C.3       4 UNK         0.0283 
     31 CB         20.7319  -28.8022  -37.7984 C.3       4 UNK        -0.1875 
     32 C          22.4896  -28.2098  -39.5153 C.2       4 UNK         0.4949 
     33 O          23.5347  -28.7812  -39.2043 O.2       4 UNK        -0.5039 
     34 N          22.4539  -27.0074  -40.1062 N.am      5 UNK        -0.4663 
     35 CA         23.6351  -26.2817  -40.5794 C.3       5 UNK         0.0242 
     36 CB         23.2118  -24.8907  -41.0678 C.3       5 UNK        -0.1982 
     37 C          24.4080  -27.0171  -41.6912 C.2       5 UNK         0.5017 
     38 O          25.6197  -26.8246  -41.7987 O.2       5 UNK        -0.5012 
     39 N          23.7284  -27.8729  -42.4712 N.am      6 UNK        -0.4439 
     40 CA         24.3203  -28.7090  -43.5193 C.3       6 UNK         0.0297 
     41 CB         23.2551  -29.0073  -44.5929 C.3       6 UNK        -0.2006 
     42 C          24.9530  -29.9889  -42.9350 C.2       6 UNK         0.4892 
     43 O          24.6390  -31.0896  -43.3870 O.2       6 UNK        -0.5089 
     44 N          25.8325  -29.8155  -41.9377 N.am      7 UNK        -0.4243 
     45 CA         26.5822  -30.8495  -41.2141 C.3       7 UNK         0.0196 
     46 CB         27.6213  -31.5151  -42.1425 C.3       7 UNK        -0.2007 
     47 C          25.6734  -31.8685  -40.4966 C.2       7 UNK         0.5020 
     48 O          25.8341  -33.0761  -40.6812 O.2       7 UNK        -0.5147 
     49 N          24.7437  -31.3544  -39.6771 N.am      8 UNK        -0.4734 
     50 CA         23.8042  -32.0987  -38.8257 C.3       8 UNK         0.0238 
     51 CB         24.5539  -32.9191  -37.7527 C.3       8 UNK        -0.1912 
     52 C          22.7782  -32.9329  -39.6176 C.2       8 UNK         0.5038 
     53 O          22.4063  -34.0235  -39.1805 O.2       8 UNK        -0.5046 
     54 N          22.3212  -32.3946  -40.7564 N.am      9 UNK        -0.4200 
     55 CA         21.2759  -32.9893  -41.6062 C.3       9 UNK         0.0839 
     56 C          19.8419  -32.9792  -40.9897 C.2       9 UNK         0.5513 
     57 N          19.5826  -32.2480  -39.9122 N.am      9 UNK        -0.7519 
     58 O          18.9518  -33.6673  -41.4810 O.2       9 UNK        -0.4960 
     59 C59        21.3092  -32.3690  -43.0277 C.3       10 UNK        -0.0876 
     60 S60        20.6759  -33.4925  -44.3179 S.3       10 UNK        -0.2414 
     61 C61        20.4572  -32.3352  -45.7126 C.3       10 UNK         0.0169 
     62 H62        15.0951  -24.4290  -45.6247 H         1 UNK         0.0903 
     63 H63        15.7964  -24.3058  -47.2405 H         1 UNK         0.0903 
     64 H64        15.1591  -25.8496  -46.6706 H         1 UNK         0.0903 
     65 H65        18.0161  -24.2034  -47.1582 H         1 UNK         0.3096 
     66 H66        20.1524  -24.5356  -46.7602 H         1 UNK         0.1121 
     67 H67        19.4170  -27.2003  -45.4278 H         1 UNK         0.0849 
     68 H68        20.9928  -26.7473  -45.9882 H         1 UNK         0.0849 
     69 H69        17.2675  -27.6260  -47.4110 H         1 UNK         0.0865 
     70 H70        17.8770  -28.7992  -48.5382 H         1 UNK         0.0865 
     71 H71        19.9351  -30.3021  -47.3784 H         1 UNK         0.1346 
     72 H72        18.4250  -32.0898  -43.7741 H         1 UNK         0.1412 
     73 H73        16.5408  -28.6091  -45.3846 H         1 UNK         0.1426 
     74 H74        15.6073  -29.6270  -43.4446 H         1 UNK         0.0716 
     75 H75        15.8639  -31.3490  -43.3430 H         1 UNK         0.0716 
     76 H76        17.3503  -28.0905  -40.5227 H         1 UNK         0.0695 
     77 H77        16.6058  -27.9030  -42.0794 H         1 UNK         0.0695 
     78 H78        18.8249  -28.3791  -43.1789 H         1 UNK         0.0983 
     79 H79        18.2980  -26.2526  -43.2953 H         1 UNK         0.3095 
     80 H80        18.1201  -23.7535  -42.0350 H         1 UNK         0.0454 
     81 H81        19.8376  -22.0178  -42.2028 H         1 UNK         0.0851 
     82 H82        21.1286  -23.2070  -42.1805 H         1 UNK         0.0851 
     83 H83        20.1251  -22.9697  -40.7587 H         1 UNK         0.0851 
     84 H84        18.1356  -24.0536  -44.2187 H         1 UNK         0.2976 
     85 H85        19.2361  -28.1016  -39.6594 H         1 UNK         0.3116 
     86 H86        21.3177  -29.9817  -39.4881 H         1 UNK         0.0646 
     87 H87        19.8464  -29.4000  -37.5817 H         1 UNK         0.0847 
     88 H88        21.5253  -29.1507  -37.1355 H         1 UNK         0.0847 
     89 H89        20.5146  -27.7677  -37.5289 H         1 UNK         0.0847 
     90 H90        21.5473  -26.5948  -40.3107 H         1 UNK         0.3040 
     91 H91        24.3130  -26.1609  -39.7316 H         1 UNK         0.1015 
     92 H92        22.5721  -24.9653  -41.9472 H         1 UNK         0.0786 
     93 H93        24.0799  -24.2917  -41.3459 H         1 UNK         0.0786 
     94 H94        22.6691  -24.3424  -40.2975 H         1 UNK         0.0786 
     95 H95        22.7419  -28.0349  -42.2804 H         1 UNK         0.3172 
     96 H96        25.1221  -28.1495  -44.0055 H         1 UNK         0.0595 
     97 H97        22.4397  -29.6158  -44.2012 H         1 UNK         0.0839 
     98 H98        23.6889  -29.5519  -45.4324 H         1 UNK         0.0839 
     99 H99        22.8250  -28.0887  -44.9911 H         1 UNK         0.0839 
    100 H100       26.0052  -28.8581  -41.6490 H         1 UNK         0.2998 
    101 H101       27.1342  -30.3323  -40.4278 H         1 UNK         0.0822 
    102 H102       28.2527  -32.2096  -41.5870 H         1 UNK         0.0787 
    103 H103       27.1458  -32.0801  -42.9451 H         1 UNK         0.0787 
    104 H104       28.2786  -30.7745  -42.5978 H         1 UNK         0.0787 
    105 H105       24.6514  -30.3428  -39.6175 H         1 UNK         0.3055 
    106 H106       23.2199  -31.3461  -38.2944 H         1 UNK         0.1106 
    107 H107       23.8577  -33.3446  -37.0289 H         1 UNK         0.0828 
    108 H108       25.1113  -33.7481  -38.1894 H         1 UNK         0.0828 
    109 H109       25.2556  -32.2980  -37.1963 H         1 UNK         0.0828 
    110 H110       22.6988  -31.5093  -41.0597 H         1 UNK         0.2931 
    111 H111       21.5459  -34.0426  -41.7071 H         1 UNK         0.0412 
    112 H112       18.6485  -32.2544  -39.5342 H         1 UNK         0.3472 
    113 H113       20.2995  -31.6938  -39.4794 H         1 UNK         0.3472 
    114 H114       22.3349  -32.1381  -43.3115 H         1 UNK         0.0970 
    115 H115       20.7756  -31.4175  -43.0501 H         1 UNK         0.0970 
    116 H116       21.4010  -31.8110  -45.8724 H         1 UNK         0.0612 
    117 H117       20.2761  -32.9259  -46.6115 H         1 UNK         0.0612 
@<TRIPOS>BOND
     1    1    2 1    
     2    1   62 1    
     3    1   63 1    
     4    1   64 1    
     5    2    3 2    
     6    2    4 am   BACKBONE|DICT|INTERRES
     7    4    5 1    
     8    4   65 1    
     9    5    6 1    
    10    5   25 1    
    11    5   66 1    
    12    6    7 1    
    13    6   67 1    
    14    6   68 1    
    15    7    8 1    
    16    8    9 1    
    17    8   69 1    
    18    8   70 1    
    19    9   10 ar   
    20    9   14 ar   
    21   10   11 ar   
    22   10   71 1    
    23   11   12 ar   
    24   11   61 1    
    25   12   13 ar   
    26   12   72 1    
    27   13   14 ar   
    28   13   15 1    
    29   14   73 1    
    30   15   16 1    
    31   15   74 1    
    32   15   75 1    
    33   16   17 1    
    34   17   18 1    
    35   17   76 1    
    36   17   77 1    
    37   18   19 1    
    38   18   27 1    
    39   18   78 1    
    40   19   20 am   BACKBONE|DICT|INTERRES
    41   19   79 1    
    42   20   21 2    
    43   20   22 1    
    44   22   23 1    
    45   22   24 1    
    46   22   80 1    
    47   23   81 1    
    48   23   82 1    
    49   23   83 1    
    50   24   25 am   BACKBONE|DICT|INTERRES
    51   24   84 1    
    52   25   26 2    
    53   27   28 2    
    54   27   29 am   BACKBONE|DICT|INTERRES
    55   29   30 1    
    56   29   85 1    
    57   30   31 1    
    58   30   32 1    
    59   30   86 1    
    60   31   87 1    
    61   31   88 1    
    62   31   89 1    
    63   32   33 2    
    64   32   34 am   BACKBONE|DICT|INTERRES
    65   34   35 1    
    66   34   90 1    
    67   35   36 1    
    68   35   37 1    
    69   35   91 1    
    70   36   92 1    
    71   36   93 1    
    72   36   94 1    
    73   37   38 2    
    74   37   39 am   BACKBONE|DICT|INTERRES
    75   39   40 1    
    76   39   95 1    
    77   40   41 1    
    78   40   42 1    
    79   40   96 1    
    80   41   97 1    
    81   41   98 1    
    82   41   99 1    
    83   42   43 2    
    84   42   44 am   BACKBONE|DICT|INTERRES
    85   44   45 1    
    86   44  100 1    
    87   45   46 1    
    88   45   47 1    
    89   45  101 1    
    90   46  102 1    
    91   46  103 1    
    92   46  104 1    
    93   47   48 2    
    94   47   49 am   BACKBONE|DICT|INTERRES
    95   49   50 1    
    96   49  105 1    
    97   50   51 1    
    98   50   52 1    
    99   50  106 1    
   100   51  107 1    
   101   51  108 1    
   102   51  109 1    
   103   52   53 2    
   104   52   54 am   BACKBONE|DICT|INTERRES
   105   54   55 1    
   106   54  110 1    
   107   55   56 1    
   108   55   59 1    
   109   55  111 1    
   110   56   57 am   BACKBONE|DICT|INTERRES
   111   56   58 2    
   112   57  112 1    
   113   57  113 1    
   114   59   60 1    
   115   59  114 1    
   116   59  115 1    
   117   60   61 1    
   118   61  116 1    
   119   61  117 1    
@<TRIPOS>SUBSTRUCTURE
     1 UNK         1 GROUP             0       ****    0 ROOT    
