@<TRIPOS>MOLECULE
3R8
117   119    1
SMALL
USER_CHARGES


@<TRIPOS>ATOM
      1 CA         18.8693  -28.6017  -41.7190 C.3       0 UNK        -0.2013 
      2 C          18.1079  -27.3473  -42.1076 C.2       0 UNK         0.4866 
      3 O          17.9065  -26.4745  -41.2632 O.2       0 UNK        -0.5176 
      4 N          17.6804  -27.2559  -43.3728 N.am      1 UNK        -0.4884 
      5 CA         16.9944  -26.0933  -43.9400 C.3       1 UNK         0.0853 
      6 C6         15.8690  -26.5166  -44.9265 C.3       10 UNK        -0.0849 
      7 S7         16.3919  -27.4580  -46.4081 S.3       10 UNK        -0.2776 
      8 C8         16.0564  -29.1928  -45.9496 C.3       10 UNK         0.0316 
      9 C9         17.2642  -29.9311  -45.3748 C.ar      10 UNK        -0.0863 
     10 C10        17.0735  -30.8822  -44.3680 C.ar      10 UNK        -0.1009 
     11 C11        18.1404  -31.6600  -43.9086 C.ar      10 UNK        -0.0712 
     12 C12        19.4178  -31.4541  -44.4389 C.ar      10 UNK        -0.0894 
     13 C13        19.6353  -30.4966  -45.4345 C.ar      10 UNK        -0.0745 
     14 C14        18.5476  -29.7502  -45.9060 C.ar      10 UNK        -0.0972 
     15 C15        21.0341  -30.3710  -46.0415 C.3       10 UNK         0.0209 
     16 S16        21.4265  -28.7448  -46.7733 S.3       10 UNK        -0.2568 
     17 C17        21.9188  -27.7910  -45.3025 C.3       10 UNK        -0.0983 
     18 CA         22.0170  -26.2771  -45.6148 C.3       3 UNK         0.0876 
     19 N          20.7139  -25.7182  -45.9842 N.am      3 UNK        -0.4424 
     20 C          20.4821  -24.4720  -46.4206 C.2       2 UNK         0.4918 
     21 O          21.3704  -23.6630  -46.6889 O.2       2 UNK        -0.4875 
     22 CA         19.0069  -24.0408  -46.5528 C.3       2 UNK         0.0481 
     23 CB         18.5920  -24.0030  -48.0321 C.3       2 UNK        -0.1831 
     24 N          18.0568  -24.8826  -45.8134 N.am      2 UNK        -0.4498 
     25 C          18.0424  -25.0984  -44.4902 C.2       1 UNK         0.5027 
     26 O          18.8500  -24.5770  -43.7179 O.2       1 UNK        -0.4969 
     27 C          22.6770  -25.5257  -44.4378 C.2       3 UNK         0.5005 
     28 O          23.9067  -25.4697  -44.3881 O.2       3 UNK        -0.5279 
     29 N          21.8635  -24.9633  -43.5259 N.am      4 UNK        -0.4463 
     30 CA         22.2014  -24.1190  -42.3679 C.3       4 UNK         0.0283 
     31 CB         22.8549  -22.7989  -42.8190 C.3       4 UNK        -0.1875 
     32 C          23.0382  -24.7949  -41.2643 C.2       4 UNK         0.4949 
     33 O          22.6938  -24.6733  -40.0891 O.2       4 UNK        -0.5039 
     34 N          24.1138  -25.4912  -41.6486 N.am      5 UNK        -0.4663 
     35 CA         25.0299  -26.2122  -40.7592 C.3       5 UNK         0.0242 
     36 CB         26.3362  -26.4975  -41.5177 C.3       5 UNK        -0.1982 
     37 C          24.4409  -27.5198  -40.2025 C.2       5 UNK         0.5017 
     38 O          24.9561  -28.0326  -39.2081 O.2       5 UNK        -0.5012 
     39 N          23.3928  -28.0388  -40.8597 N.am      6 UNK        -0.4439 
     40 CA         22.6134  -29.2472  -40.5609 C.3       6 UNK         0.0297 
     41 CB         21.9636  -29.1685  -39.1647 C.3       6 UNK        -0.2006 
     42 C          23.3758  -30.5685  -40.7522 C.2       6 UNK         0.4892 
     43 O          22.8527  -31.4616  -41.4196 O.2       6 UNK        -0.5089 
     44 N          24.5839  -30.6698  -40.1820 N.am      7 UNK        -0.4243 
     45 CA         25.4813  -31.8290  -40.1929 C.3       7 UNK         0.0196 
     46 CB         26.0798  -32.0382  -41.6029 C.3       7 UNK        -0.2007 
     47 C          24.7933  -33.0791  -39.6117 C.2       7 UNK         0.5020 
     48 O          24.6587  -33.1780  -38.3920 O.2       7 UNK        -0.5147 
     49 N          24.3608  -33.9976  -40.4848 N.am      8 UNK        -0.4734 
     50 CA         23.6187  -35.2082  -40.1259 C.3       8 UNK         0.0238 
     51 CB         23.7385  -36.2240  -41.2743 C.3       8 UNK        -0.1912 
     52 C          22.1371  -34.9509  -39.7897 C.2       8 UNK         0.5038 
     53 O          21.5195  -35.8110  -39.1598 O.2       8 UNK        -0.5046 
     54 N          21.5839  -33.8087  -40.2236 N.am      9 UNK        -0.4200 
     55 CA         20.1996  -33.3961  -39.9507 C.3       9 UNK         0.0839 
     56 C          19.9655  -33.0700  -38.4494 C.2       9 UNK         0.5513 
     57 N          18.8054  -33.4176  -37.9101 N.am      9 UNK        -0.7519 
     58 O          20.8098  -32.4754  -37.7832 O.2       9 UNK        -0.4960 
     59 C59        19.7775  -32.2186  -40.8697 C.3       10 UNK        -0.0876 
     60 S60        17.9802  -32.1837  -41.1797 S.3       10 UNK        -0.2414 
     61 C61        17.8901  -32.7720  -42.8975 C.3       10 UNK         0.0169 
     62 H62        18.2197  -29.2635  -41.1487 H         1 UNK         0.0903 
     63 H63        19.2407  -29.1431  -42.5886 H         1 UNK         0.0903 
     64 H64        19.7169  -28.3367  -41.0905 H         1 UNK         0.0903 
     65 H65        17.8553  -28.0151  -44.0183 H         1 UNK         0.3096 
     66 H66        16.4952  -25.5538  -43.1315 H         1 UNK         0.1121 
     67 H67        15.1219  -27.0980  -44.3843 H         1 UNK         0.0849 
     68 H68        15.3311  -25.6305  -45.2692 H         1 UNK         0.0849 
     69 H69        15.2087  -29.2371  -45.2644 H         1 UNK         0.0865 
     70 H70        15.7414  -29.7237  -46.8488 H         1 UNK         0.0865 
     71 H71        16.0822  -31.0545  -43.9706 H         1 UNK         0.1346 
     72 H72        20.2421  -32.0684  -44.1042 H         1 UNK         0.1412 
     73 H73        18.6899  -29.0509  -46.7175 H         1 UNK         0.1426 
     74 H74        21.1271  -31.1244  -46.8246 H         1 UNK         0.0716 
     75 H75        21.7932  -30.6102  -45.2947 H         1 UNK         0.0716 
     76 H76        22.8809  -28.1817  -44.9641 H         1 UNK         0.0695 
     77 H77        21.2054  -27.9775  -44.4969 H         1 UNK         0.0695 
     78 H78        22.6790  -26.1453  -46.4737 H         1 UNK         0.0983 
     79 H79        19.9187  -26.3216  -45.8418 H         1 UNK         0.3095 
     80 H80        18.9299  -23.0295  -46.1489 H         1 UNK         0.0454 
     81 H81        18.6227  -24.9948  -48.4850 H         1 UNK         0.0851 
     82 H82        19.2582  -23.3604  -48.6096 H         1 UNK         0.0851 
     83 H83        17.5827  -23.6092  -48.1524 H         1 UNK         0.0851 
     84 H84        17.3851  -25.3984  -46.3692 H         1 UNK         0.2976 
     85 H85        20.8637  -25.0645  -43.6742 H         1 UNK         0.3116 
     86 H86        21.2421  -23.8645  -41.9136 H         1 UNK         0.0646 
     87 H87        23.0194  -22.1350  -41.9693 H         1 UNK         0.0847 
     88 H88        22.2209  -22.2665  -43.5282 H         1 UNK         0.0847 
     89 H89        23.8227  -22.9627  -43.2938 H         1 UNK         0.0847 
     90 H90        24.3033  -25.5274  -42.6502 H         1 UNK         0.3040 
     91 H91        25.2578  -25.5703  -39.9052 H         1 UNK         0.1015 
     92 H92        26.8078  -25.5743  -41.8552 H         1 UNK         0.0786 
     93 H93        26.1658  -27.1262  -42.3928 H         1 UNK         0.0786 
     94 H94        27.0559  -27.0128  -40.8798 H         1 UNK         0.0786 
     95 H95        23.0975  -27.5301  -41.6804 H         1 UNK         0.3172 
     96 H96        21.8100  -29.2588  -41.2975 H         1 UNK         0.0595 
     97 H97        22.7058  -29.1435  -38.3666 H         1 UNK         0.0839 
     98 H98        21.3287  -30.0327  -38.9736 H         1 UNK         0.0839 
     99 H99        21.3401  -28.2799  -39.0669 H         1 UNK         0.0839 
    100 H100       24.8987  -29.8638  -39.6469 H         1 UNK         0.2998 
    101 H101       26.3051  -31.5910  -39.5182 H         1 UNK         0.0822 
    102 H102       25.3153  -32.1969  -42.3641 H         1 UNK         0.0787 
    103 H103       26.6650  -31.1703  -41.9072 H         1 UNK         0.0787 
    104 H104       26.7515  -32.8977  -41.6214 H         1 UNK         0.0787 
    105 H105       24.4876  -33.8126  -41.4698 H         1 UNK         0.3055 
    106 H106       24.0779  -35.6440  -39.2354 H         1 UNK         0.1106 
    107 H107       23.2985  -35.8448  -42.1975 H         1 UNK         0.0828 
    108 H108       24.7801  -36.4753  -41.4757 H         1 UNK         0.0828 
    109 H109       23.2254  -37.1548  -41.0278 H         1 UNK         0.0828 
    110 H110       22.1695  -33.1256  -40.6948 H         1 UNK         0.2931 
    111 H111       19.5801  -34.2584  -40.2075 H         1 UNK         0.0412 
    112 H112       18.0969  -33.8779  -38.4606 H         1 UNK         0.3472 
    113 H113       18.6287  -33.2031  -36.9411 H         1 UNK         0.3472 
    114 H114       20.0818  -31.2575  -40.4562 H         1 UNK         0.0970 
    115 H115       20.2911  -32.2910  -41.8272 H         1 UNK         0.0970 
    116 H116       18.5938  -33.5929  -43.0445 H         1 UNK         0.0612 
    117 H117       16.8987  -33.1963  -43.0634 H         1 UNK         0.0612 
@<TRIPOS>BOND
     1    1    2 1    
     2    1   62 1    
     3    1   63 1    
     4    1   64 1    
     5    2    3 2    
     6    2    4 am   BACKBONE|DICT|INTERRES
     7    4    5 1    
     8    4   65 1    
     9    5    6 1    
    10    5   25 1    
    11    5   66 1    
    12    6    7 1    
    13    6   67 1    
    14    6   68 1    
    15    7    8 1    
    16    8    9 1    
    17    8   69 1    
    18    8   70 1    
    19    9   10 ar   
    20    9   14 ar   
    21   10   11 ar   
    22   10   71 1    
    23   11   12 ar   
    24   11   61 1    
    25   12   13 ar   
    26   12   72 1    
    27   13   14 ar   
    28   13   15 1    
    29   14   73 1    
    30   15   16 1    
    31   15   74 1    
    32   15   75 1    
    33   16   17 1    
    34   17   18 1    
    35   17   76 1    
    36   17   77 1    
    37   18   19 1    
    38   18   27 1    
    39   18   78 1    
    40   19   20 am   BACKBONE|DICT|INTERRES
    41   19   79 1    
    42   20   21 2    
    43   20   22 1    
    44   22   23 1    
    45   22   24 1    
    46   22   80 1    
    47   23   81 1    
    48   23   82 1    
    49   23   83 1    
    50   24   25 am   BACKBONE|DICT|INTERRES
    51   24   84 1    
    52   25   26 2    
    53   27   28 2    
    54   27   29 am   BACKBONE|DICT|INTERRES
    55   29   30 1    
    56   29   85 1    
    57   30   31 1    
    58   30   32 1    
    59   30   86 1    
    60   31   87 1    
    61   31   88 1    
    62   31   89 1    
    63   32   33 2    
    64   32   34 am   BACKBONE|DICT|INTERRES
    65   34   35 1    
    66   34   90 1    
    67   35   36 1    
    68   35   37 1    
    69   35   91 1    
    70   36   92 1    
    71   36   93 1    
    72   36   94 1    
    73   37   38 2    
    74   37   39 am   BACKBONE|DICT|INTERRES
    75   39   40 1    
    76   39   95 1    
    77   40   41 1    
    78   40   42 1    
    79   40   96 1    
    80   41   97 1    
    81   41   98 1    
    82   41   99 1    
    83   42   43 2    
    84   42   44 am   BACKBONE|DICT|INTERRES
    85   44   45 1    
    86   44  100 1    
    87   45   46 1    
    88   45   47 1    
    89   45  101 1    
    90   46  102 1    
    91   46  103 1    
    92   46  104 1    
    93   47   48 2    
    94   47   49 am   BACKBONE|DICT|INTERRES
    95   49   50 1    
    96   49  105 1    
    97   50   51 1    
    98   50   52 1    
    99   50  106 1    
   100   51  107 1    
   101   51  108 1    
   102   51  109 1    
   103   52   53 2    
   104   52   54 am   BACKBONE|DICT|INTERRES
   105   54   55 1    
   106   54  110 1    
   107   55   56 1    
   108   55   59 1    
   109   55  111 1    
   110   56   57 am   BACKBONE|DICT|INTERRES
   111   56   58 2    
   112   57  112 1    
   113   57  113 1    
   114   59   60 1    
   115   59  114 1    
   116   59  115 1    
   117   60   61 1    
   118   61  116 1    
   119   61  117 1    
@<TRIPOS>SUBSTRUCTURE
     1 UNK         1 GROUP             0       ****    0 ROOT    
