@<TRIPOS>MOLECULE
3R8
117   119    1
SMALL
USER_CHARGES


@<TRIPOS>ATOM
      1 CA         17.4695  -21.9130  -40.5714 C.3       0 UNK        -0.2013 
      2 C          16.9414  -22.8302  -41.6645 C.2       0 UNK         0.4866 
      3 O          15.7516  -23.1477  -41.6745 O.2       0 UNK        -0.5176 
      4 N          17.8142  -23.2507  -42.5858 N.am      1 UNK        -0.4884 
      5 CA         17.4829  -24.1280  -43.7134 C.3       1 UNK         0.0853 
      6 C6         17.2075  -25.6036  -43.3131 C.3       10 UNK        -0.0849 
      7 S7         18.5377  -26.3797  -42.3265 S.3       10 UNK        -0.2776 
      8 C8         17.7767  -27.9703  -41.8663 C.3       10 UNK         0.0316 
      9 C9         18.2627  -29.1211  -42.7394 C.ar      10 UNK        -0.0863 
     10 C10        19.0130  -30.1599  -42.1795 C.ar      10 UNK        -0.1009 
     11 C11        19.4234  -31.2452  -42.9593 C.ar      10 UNK        -0.0712 
     12 C12        19.1081  -31.2693  -44.3226 C.ar      10 UNK        -0.0894 
     13 C13        18.3595  -30.2371  -44.8970 C.ar      10 UNK        -0.0745 
     14 C14        17.9270  -29.1766  -44.0950 C.ar      10 UNK        -0.0972 
     15 C15        17.9712  -30.2906  -46.3702 C.3       10 UNK         0.0209 
     16 S16        19.3114  -29.7528  -47.4844 S.3       10 UNK        -0.2568 
     17 C17        19.4943  -27.9806  -47.0582 C.3       10 UNK        -0.0983 
     18 CA         20.9229  -27.4974  -46.6704 C.3       3 UNK         0.0876 
     19 N          20.8608  -26.2772  -45.8722 N.am      3 UNK        -0.4424 
     20 C          21.1162  -25.0426  -46.3147 C.2       2 UNK         0.4918 
     21 O          21.4071  -24.7803  -47.4833 O.2       2 UNK        -0.4875 
     22 CA         21.0253  -23.9161  -45.2639 C.3       2 UNK         0.0481 
     23 CB         21.1329  -22.5056  -45.8819 C.3       2 UNK        -0.1831 
     24 N          19.8317  -24.0223  -44.4131 N.am      2 UNK        -0.4498 
     25 C          18.5487  -24.0101  -44.8150 C.2       1 UNK         0.5027 
     26 O          18.1898  -23.8860  -45.9866 O.2       1 UNK        -0.4969 
     27 C          21.7551  -28.5015  -45.8541 C.2       3 UNK         0.5005 
     28 O          21.5862  -28.5770  -44.6344 O.2       3 UNK        -0.5279 
     29 N          22.6452  -29.2367  -46.5402 N.am      4 UNK        -0.4463 
     30 CA         23.5772  -30.2258  -45.9882 C.3       4 UNK         0.0283 
     31 CB         22.8123  -31.5021  -45.5761 C.3       4 UNK        -0.1875 
     32 C          24.4617  -29.6108  -44.8834 C.2       4 UNK         0.4949 
     33 O          25.1694  -28.6422  -45.1652 O.2       4 UNK        -0.5039 
     34 N          24.4036  -30.1525  -43.6600 N.am      5 UNK        -0.4663 
     35 CA         25.0990  -29.6096  -42.4883 C.3       5 UNK         0.0242 
     36 CB         25.4348  -30.7610  -41.5264 C.3       5 UNK        -0.1982 
     37 C          24.2820  -28.5312  -41.7518 C.2       5 UNK         0.5017 
     38 O          24.8309  -27.8893  -40.8556 O.2       5 UNK        -0.5012 
     39 N          22.9977  -28.3702  -42.1113 N.am      6 UNK        -0.4439 
     40 CA         22.0005  -27.4837  -41.5010 C.3       6 UNK         0.0297 
     41 CB         22.3138  -26.0089  -41.8283 C.3       6 UNK        -0.2006 
     42 C          21.7935  -27.7433  -39.9944 C.2       6 UNK         0.4892 
     43 O          21.6729  -26.7975  -39.2129 O.2       6 UNK        -0.5089 
     44 N          21.7767  -29.0262  -39.6143 N.am      7 UNK        -0.4243 
     45 CA         21.6671  -29.5033  -38.2377 C.3       7 UNK         0.0196 
     46 CB         23.0465  -29.4294  -37.5442 C.3       7 UNK        -0.2007 
     47 C          21.0427  -30.9063  -38.2605 C.2       7 UNK         0.5020 
     48 O          20.0667  -31.1158  -38.9798 O.2       7 UNK        -0.5147 
     49 N          21.6037  -31.8516  -37.4947 N.am      8 UNK        -0.4734 
     50 CA         21.2035  -33.2639  -37.5145 C.3       8 UNK         0.0238 
     51 CB         21.7527  -33.9672  -36.2625 C.3       8 UNK        -0.1912 
     52 C          21.6612  -33.9964  -38.7899 C.2       8 UNK         0.5038 
     53 O          21.0058  -34.9547  -39.2001 O.2       8 UNK        -0.5046 
     54 N          22.7717  -33.5300  -39.3803 N.am      9 UNK        -0.4200 
     55 CA         23.3965  -34.0430  -40.6125 C.3       9 UNK         0.0839 
     56 C          23.9826  -35.4842  -40.4980 C.2       9 UNK         0.5513 
     57 N          24.2285  -36.0032  -39.3009 N.am      9 UNK        -0.7519 
     58 O          24.2509  -36.1328  -41.5063 O.2       9 UNK        -0.4960 
     59 C59        22.5072  -33.8560  -41.8757 C.3       10 UNK        -0.0876 
     60 S60        21.9290  -32.1388  -42.1316 S.3       10 UNK        -0.2414 
     61 C61        20.1428  -32.4239  -42.3180 C.3       10 UNK         0.0169 
     62 H62        16.9470  -20.9571  -40.5984 H         1 UNK         0.0903 
     63 H63        17.3050  -22.3638  -39.5930 H         1 UNK         0.0903 
     64 H64        18.5366  -21.7197  -40.6794 H         1 UNK         0.0903 
     65 H65        18.7651  -22.9103  -42.5607 H         1 UNK         0.3096 
     66 H66        16.5634  -23.7384  -44.1576 H         1 UNK         0.1121 
     67 H67        16.2868  -25.6475  -42.7296 H         1 UNK         0.0849 
     68 H68        17.0177  -26.2036  -44.2033 H         1 UNK         0.0849 
     69 H69        16.6893  -27.9040  -41.9208 H         1 UNK         0.0865 
     70 H70        18.0118  -28.1659  -40.8188 H         1 UNK         0.0865 
     71 H71        19.2548  -30.1398  -41.1273 H         1 UNK         0.1346 
     72 H72        19.4248  -32.1029  -44.9341 H         1 UNK         0.1412 
     73 H73        17.3239  -28.3935  -44.5285 H         1 UNK         0.1426 
     74 H74        17.0861  -29.6802  -46.5563 H         1 UNK         0.0716 
     75 H75        17.6912  -31.3122  -46.6313 H         1 UNK         0.0716 
     76 H76        18.7994  -27.7463  -46.2528 H         1 UNK         0.0695 
     77 H77        19.1408  -27.3958  -47.9085 H         1 UNK         0.0695 
     78 H78        21.4724  -27.3030  -47.5942 H         1 UNK         0.0983 
     79 H79        20.6859  -26.4340  -44.8882 H         1 UNK         0.3095 
     80 H80        21.8838  -24.0477  -44.6040 H         1 UNK         0.0454 
     81 H81        21.0955  -21.7320  -45.1152 H         1 UNK         0.0851 
     82 H82        20.3305  -22.3112  -46.5942 H         1 UNK         0.0851 
     83 H83        22.0760  -22.3843  -46.4160 H         1 UNK         0.0851 
     84 H84        20.0100  -24.2066  -43.4359 H         1 UNK         0.2976 
     85 H85        22.7222  -29.0829  -47.5360 H         1 UNK         0.3116 
     86 H86        24.2573  -30.4997  -46.7960 H         1 UNK         0.0646 
     87 H87        23.4777  -32.2573  -45.1560 H         1 UNK         0.0847 
     88 H88        22.3237  -31.9552  -46.4386 H         1 UNK         0.0847 
     89 H89        22.0337  -31.2876  -44.8457 H         1 UNK         0.0847 
     90 H90        23.7732  -30.9267  -43.4983 H         1 UNK         0.3040 
     91 H91        26.0378  -29.1497  -42.8058 H         1 UNK         0.1015 
     92 H92        24.5374  -31.1591  -41.0548 H         1 UNK         0.0786 
     93 H93        26.0909  -30.4174  -40.7256 H         1 UNK         0.0786 
     94 H94        25.9459  -31.5777  -42.0364 H         1 UNK         0.0786 
     95 H95        22.6566  -28.8860  -42.9178 H         1 UNK         0.3172 
     96 H96        21.0568  -27.7382  -41.9825 H         1 UNK         0.0595 
     97 H97        23.2328  -25.6750  -41.3459 H         1 UNK         0.0839 
     98 H98        21.5102  -25.3549  -41.4881 H         1 UNK         0.0839 
     99 H99        22.4236  -25.8595  -42.9020 H         1 UNK         0.0839 
    100 H100       21.8154  -29.7454  -40.3248 H         1 UNK         0.2998 
    101 H101       20.9677  -28.8631  -37.6961 H         1 UNK         0.0822 
    102 H102       23.7809  -30.0721  -38.0316 H         1 UNK         0.0787 
    103 H103       23.4413  -28.4132  -37.5644 H         1 UNK         0.0787 
    104 H104       22.9843  -29.7178  -36.4943 H         1 UNK         0.0787 
    105 H105       22.3862  -31.6004  -36.9072 H         1 UNK         0.3055 
    106 H106       20.1123  -33.3153  -37.4852 H         1 UNK         0.1106 
    107 H107       21.4547  -35.0167  -36.2429 H         1 UNK         0.0828 
    108 H108       22.8422  -33.9372  -36.2232 H         1 UNK         0.0828 
    109 H109       21.3707  -33.5082  -35.3504 H         1 UNK         0.0828 
    110 H110       23.2381  -32.7465  -38.9501 H         1 UNK         0.2931 
    111 H111       24.2789  -33.4214  -40.7572 H         1 UNK         0.0412 
    112 H112       24.0258  -35.4803  -38.4645 H         1 UNK         0.3472 
    113 H113       24.6175  -36.9310  -39.2356 H         1 UNK         0.3472 
    114 H114       23.0600  -34.1419  -42.7723 H         1 UNK         0.0970 
    115 H115       21.6543  -34.5346  -41.8269 H         1 UNK         0.0970 
    116 H116       19.9803  -33.3176  -42.9224 H         1 UNK         0.0612 
    117 H117       19.7133  -32.6355  -41.3375 H         1 UNK         0.0612 
@<TRIPOS>BOND
     1    1    2 1    
     2    1   62 1    
     3    1   63 1    
     4    1   64 1    
     5    2    3 2    
     6    2    4 am   BACKBONE|DICT|INTERRES
     7    4    5 1    
     8    4   65 1    
     9    5    6 1    
    10    5   25 1    
    11    5   66 1    
    12    6    7 1    
    13    6   67 1    
    14    6   68 1    
    15    7    8 1    
    16    8    9 1    
    17    8   69 1    
    18    8   70 1    
    19    9   10 ar   
    20    9   14 ar   
    21   10   11 ar   
    22   10   71 1    
    23   11   12 ar   
    24   11   61 1    
    25   12   13 ar   
    26   12   72 1    
    27   13   14 ar   
    28   13   15 1    
    29   14   73 1    
    30   15   16 1    
    31   15   74 1    
    32   15   75 1    
    33   16   17 1    
    34   17   18 1    
    35   17   76 1    
    36   17   77 1    
    37   18   19 1    
    38   18   27 1    
    39   18   78 1    
    40   19   20 am   BACKBONE|DICT|INTERRES
    41   19   79 1    
    42   20   21 2    
    43   20   22 1    
    44   22   23 1    
    45   22   24 1    
    46   22   80 1    
    47   23   81 1    
    48   23   82 1    
    49   23   83 1    
    50   24   25 am   BACKBONE|DICT|INTERRES
    51   24   84 1    
    52   25   26 2    
    53   27   28 2    
    54   27   29 am   BACKBONE|DICT|INTERRES
    55   29   30 1    
    56   29   85 1    
    57   30   31 1    
    58   30   32 1    
    59   30   86 1    
    60   31   87 1    
    61   31   88 1    
    62   31   89 1    
    63   32   33 2    
    64   32   34 am   BACKBONE|DICT|INTERRES
    65   34   35 1    
    66   34   90 1    
    67   35   36 1    
    68   35   37 1    
    69   35   91 1    
    70   36   92 1    
    71   36   93 1    
    72   36   94 1    
    73   37   38 2    
    74   37   39 am   BACKBONE|DICT|INTERRES
    75   39   40 1    
    76   39   95 1    
    77   40   41 1    
    78   40   42 1    
    79   40   96 1    
    80   41   97 1    
    81   41   98 1    
    82   41   99 1    
    83   42   43 2    
    84   42   44 am   BACKBONE|DICT|INTERRES
    85   44   45 1    
    86   44  100 1    
    87   45   46 1    
    88   45   47 1    
    89   45  101 1    
    90   46  102 1    
    91   46  103 1    
    92   46  104 1    
    93   47   48 2    
    94   47   49 am   BACKBONE|DICT|INTERRES
    95   49   50 1    
    96   49  105 1    
    97   50   51 1    
    98   50   52 1    
    99   50  106 1    
   100   51  107 1    
   101   51  108 1    
   102   51  109 1    
   103   52   53 2    
   104   52   54 am   BACKBONE|DICT|INTERRES
   105   54   55 1    
   106   54  110 1    
   107   55   56 1    
   108   55   59 1    
   109   55  111 1    
   110   56   57 am   BACKBONE|DICT|INTERRES
   111   56   58 2    
   112   57  112 1    
   113   57  113 1    
   114   59   60 1    
   115   59  114 1    
   116   59  115 1    
   117   60   61 1    
   118   61  116 1    
   119   61  117 1    
@<TRIPOS>SUBSTRUCTURE
     1 UNK         1 GROUP             0       ****    0 ROOT    
