@<TRIPOS>MOLECULE
3R8
117   119    1
SMALL
USER_CHARGES


@<TRIPOS>ATOM
      1 CA         16.7956  -25.9171  -50.7013 C.3       0 UNK        -0.2013 
      2 C          17.2454  -26.4113  -49.3345 C.2       0 UNK         0.4866 
      3 O          18.4418  -26.4025  -49.0436 O.2       0 UNK        -0.5176 
      4 N          16.2979  -26.8502  -48.4960 N.am      1 UNK        -0.4884 
      5 CA         16.5402  -27.2937  -47.1206 C.3       1 UNK         0.0853 
      6 C6         15.3499  -28.1477  -46.6036 C.3       10 UNK        -0.0849 
      7 S7         15.4693  -28.6783  -44.8604 S.3       10 UNK        -0.2776 
      8 C8         16.5214  -30.1603  -44.9792 C.3       10 UNK         0.0316 
      9 C9         17.0141  -30.5686  -43.5986 C.ar      10 UNK        -0.0863 
     10 C10        16.5595  -31.7402  -42.9840 C.ar      10 UNK        -0.1009 
     11 C11        17.0012  -32.0819  -41.7000 C.ar      10 UNK        -0.0712 
     12 C12        17.8820  -31.2312  -41.0227 C.ar      10 UNK        -0.0894 
     13 C13        18.3443  -30.0619  -41.6305 C.ar      10 UNK        -0.0745 
     14 C14        17.9216  -29.7485  -42.9239 C.ar      10 UNK        -0.0972 
     15 C15        19.2889  -29.1211  -40.9012 C.3       10 UNK         0.0209 
     16 S16        18.4356  -27.5713  -40.4662 S.3       10 UNK        -0.2568 
     17 C17        19.8355  -26.4525  -40.1314 C.3       10 UNK        -0.0983 
     18 CA         20.5919  -26.0058  -41.4122 C.3       3 UNK         0.0876 
     19 N          19.7100  -25.4012  -42.4153 N.am      3 UNK        -0.4424 
     20 C          19.4768  -25.9298  -43.6211 C.2       2 UNK         0.4918 
     21 O          20.0125  -26.9619  -44.0380 O.2       2 UNK        -0.4875 
     22 CA         18.4755  -25.1945  -44.5213 C.3       2 UNK         0.0481 
     23 CB         19.1385  -24.0029  -45.2361 C.3       2 UNK        -0.1831 
     24 N          17.9798  -26.1610  -45.4961 N.am      2 UNK        -0.4498 
     25 C          16.8634  -26.0748  -46.2257 C.2       1 UNK         0.5027 
     26 O          16.1007  -25.1049  -46.2123 O.2       1 UNK        -0.4969 
     27 C          21.7436  -25.0480  -41.0662 C.2       3 UNK         0.5005 
     28 O          21.6579  -23.8417  -41.3120 O.2       3 UNK        -0.5279 
     29 N          22.7978  -25.6271  -40.4874 N.am      4 UNK        -0.4463 
     30 CA         24.0484  -25.0190  -40.0536 C.3       4 UNK         0.0283 
     31 CB         24.9175  -24.6533  -41.2734 C.3       4 UNK        -0.1875 
     32 C          24.7480  -26.0571  -39.1643 C.2       4 UNK         0.4949 
     33 O          24.2993  -27.2059  -39.1035 O.2       4 UNK        -0.5039 
     34 N          25.8505  -25.6632  -38.5157 N.am      5 UNK        -0.4663 
     35 CA         26.6261  -26.5112  -37.5972 C.3       5 UNK         0.0242 
     36 CB         27.7442  -25.6698  -36.9599 C.3       5 UNK        -0.1982 
     37 C          27.2129  -27.7909  -38.2287 C.2       5 UNK         0.5017 
     38 O          27.4393  -28.7638  -37.5086 O.2       5 UNK        -0.5012 
     39 N          27.4409  -27.7660  -39.5482 N.am      6 UNK        -0.4439 
     40 CA         27.9650  -28.8813  -40.3406 C.3       6 UNK         0.0297 
     41 CB         29.1100  -28.3512  -41.2234 C.3       6 UNK        -0.2006 
     42 C          26.8871  -29.5727  -41.2007 C.2       6 UNK         0.4892 
     43 O          27.2395  -30.4555  -41.9852 O.2       6 UNK        -0.5089 
     44 N          25.6140  -29.1644  -41.0835 N.am      7 UNK        -0.4243 
     45 CA         24.5060  -29.7135  -41.8720 C.3       7 UNK         0.0196 
     46 CB         23.3539  -28.6965  -41.9119 C.3       7 UNK        -0.2007 
     47 C          24.0089  -31.0620  -41.3249 C.2       7 UNK         0.5020 
     48 O          24.2528  -31.3993  -40.1641 O.2       7 UNK        -0.5147 
     49 N          23.2752  -31.7855  -42.1735 N.am      8 UNK        -0.4734 
     50 CA         22.5904  -33.0400  -41.8758 C.3       8 UNK         0.0238 
     51 CB         23.5632  -34.2208  -42.0552 C.3       8 UNK        -0.1912 
     52 C          21.3828  -33.1573  -42.8160 C.2       8 UNK         0.5038 
     53 O          21.3009  -32.4073  -43.7938 O.2       8 UNK        -0.5046 
     54 N          20.4781  -34.0962  -42.5137 N.am      9 UNK        -0.4200 
     55 CA         19.2397  -34.3329  -43.2774 C.3       9 UNK         0.0839 
     56 C          19.4393  -34.9498  -44.6933 C.2       9 UNK         0.5513 
     57 N          20.6144  -35.4619  -45.0391 N.am      9 UNK        -0.7519 
     58 O          18.5064  -34.9645  -45.4921 O.2       9 UNK        -0.4960 
     59 C59        18.1930  -35.1533  -42.4733 C.3       10 UNK        -0.0876 
     60 S60        17.8932  -34.5411  -40.7786 S.3       10 UNK        -0.2414 
     61 C61        16.5257  -33.3644  -41.0329 C.3       10 UNK         0.0169 
     62 H62        17.0781  -24.8731  -50.8338 H         1 UNK         0.0903 
     63 H63        17.2728  -26.5017  -51.4874 H         1 UNK         0.0903 
     64 H64        15.7160  -25.9950  -50.8291 H         1 UNK         0.0903 
     65 H65        15.3287  -26.8030  -48.7777 H         1 UNK         0.3096 
     66 H66        17.4198  -27.9412  -47.1394 H         1 UNK         0.1121 
     67 H67        14.4208  -27.5832  -46.7027 H         1 UNK         0.0849 
     68 H68        15.2266  -29.0328  -47.2300 H         1 UNK         0.0849 
     69 H69        15.9610  -30.9684  -45.4520 H         1 UNK         0.0865 
     70 H70        17.3809  -29.9582  -45.6197 H         1 UNK         0.0865 
     71 H71        15.8638  -32.3852  -43.5033 H         1 UNK         0.1346 
     72 H72        18.2104  -31.4871  -40.0245 H         1 UNK         0.1412 
     73 H73        18.2712  -28.8390  -43.3923 H         1 UNK         0.1426 
     74 H74        20.1409  -28.9198  -41.5497 H         1 UNK         0.0716 
     75 H75        19.6868  -29.5828  -39.9962 H         1 UNK         0.0716 
     76 H76        20.5091  -26.9532  -39.4332 H         1 UNK         0.0695 
     77 H77        19.4409  -25.5830  -39.6021 H         1 UNK         0.0695 
     78 H78        21.0716  -26.8861  -41.8408 H         1 UNK         0.0983 
     79 H79        19.2968  -24.5150  -42.1618 H         1 UNK         0.3095 
     80 H80        17.6425  -24.8456  -43.9076 H         1 UNK         0.0454 
     81 H81        19.5355  -23.2846  -44.5178 H         1 UNK         0.0851 
     82 H82        18.4267  -23.4687  -45.8655 H         1 UNK         0.0851 
     83 H83        19.9669  -24.3250  -45.8684 H         1 UNK         0.0851 
     84 H84        18.5506  -26.9970  -45.5431 H         1 UNK         0.2976 
     85 H85        22.7622  -26.6110  -40.2441 H         1 UNK         0.3116 
     86 H86        23.8314  -24.1293  -39.4594 H         1 UNK         0.0646 
     87 H87        25.8582  -24.1945  -40.9676 H         1 UNK         0.0847 
     88 H88        24.4130  -23.9374  -41.9223 H         1 UNK         0.0847 
     89 H89        25.1607  -25.5311  -41.8734 H         1 UNK         0.0847 
     90 H90        26.1612  -24.7070  -38.6193 H         1 UNK         0.3040 
     91 H91        25.9489  -26.8353  -36.8036 H         1 UNK         0.1015 
     92 H92        28.3233  -26.2623  -36.2498 H         1 UNK         0.0786 
     93 H93        27.3390  -24.8190  -36.4118 H         1 UNK         0.0786 
     94 H94        28.4395  -25.2886  -37.7089 H         1 UNK         0.0786 
     95 H95        27.2205  -26.9171  -40.0488 H         1 UNK         0.3172 
     96 H96        28.3793  -29.6474  -39.6823 H         1 UNK         0.0595 
     97 H97        28.7570  -27.6112  -41.9427 H         1 UNK         0.0839 
     98 H98        29.5777  -29.1581  -41.7894 H         1 UNK         0.0839 
     99 H99        29.8926  -27.8884  -40.6219 H         1 UNK         0.0839 
    100 H100       25.3692  -28.5051  -40.3537 H         1 UNK         0.2998 
    101 H101       24.8565  -29.8689  -42.8951 H         1 UNK         0.0822 
    102 H102       23.6975  -27.7217  -42.2578 H         1 UNK         0.0787 
    103 H103       22.8965  -28.5754  -40.9298 H         1 UNK         0.0787 
    104 H104       22.5683  -29.0198  -42.5964 H         1 UNK         0.0787 
    105 H105       23.0487  -31.4136  -43.0891 H         1 UNK         0.3055 
    106 H106       22.2210  -33.0153  -40.8477 H         1 UNK         0.1106 
    107 H107       23.9387  -34.2805  -43.0775 H         1 UNK         0.0828 
    108 H108       24.4221  -34.1309  -41.3899 H         1 UNK         0.0828 
    109 H109       23.0798  -35.1713  -41.8269 H         1 UNK         0.0828 
    110 H110       20.6121  -34.6760  -41.6986 H         1 UNK         0.2931 
    111 H111       18.8048  -33.3494  -43.4578 H         1 UNK         0.0412 
    112 H112       21.3868  -35.4520  -44.3930 H         1 UNK         0.3472 
    113 H113       20.7301  -35.8564  -45.9596 H         1 UNK         0.3472 
    114 H114       17.2417  -35.1842  -43.0081 H         1 UNK         0.0970 
    115 H115       18.5192  -36.1917  -42.3899 H         1 UNK         0.0970 
    116 H116       16.0918  -33.1178  -40.0630 H         1 UNK         0.0612 
    117 H117       15.7331  -33.8422  -41.6108 H         1 UNK         0.0612 
@<TRIPOS>BOND
     1    1    2 1    
     2    1   62 1    
     3    1   63 1    
     4    1   64 1    
     5    2    3 2    
     6    2    4 am   BACKBONE|DICT|INTERRES
     7    4    5 1    
     8    4   65 1    
     9    5    6 1    
    10    5   25 1    
    11    5   66 1    
    12    6    7 1    
    13    6   67 1    
    14    6   68 1    
    15    7    8 1    
    16    8    9 1    
    17    8   69 1    
    18    8   70 1    
    19    9   10 ar   
    20    9   14 ar   
    21   10   11 ar   
    22   10   71 1    
    23   11   12 ar   
    24   11   61 1    
    25   12   13 ar   
    26   12   72 1    
    27   13   14 ar   
    28   13   15 1    
    29   14   73 1    
    30   15   16 1    
    31   15   74 1    
    32   15   75 1    
    33   16   17 1    
    34   17   18 1    
    35   17   76 1    
    36   17   77 1    
    37   18   19 1    
    38   18   27 1    
    39   18   78 1    
    40   19   20 am   BACKBONE|DICT|INTERRES
    41   19   79 1    
    42   20   21 2    
    43   20   22 1    
    44   22   23 1    
    45   22   24 1    
    46   22   80 1    
    47   23   81 1    
    48   23   82 1    
    49   23   83 1    
    50   24   25 am   BACKBONE|DICT|INTERRES
    51   24   84 1    
    52   25   26 2    
    53   27   28 2    
    54   27   29 am   BACKBONE|DICT|INTERRES
    55   29   30 1    
    56   29   85 1    
    57   30   31 1    
    58   30   32 1    
    59   30   86 1    
    60   31   87 1    
    61   31   88 1    
    62   31   89 1    
    63   32   33 2    
    64   32   34 am   BACKBONE|DICT|INTERRES
    65   34   35 1    
    66   34   90 1    
    67   35   36 1    
    68   35   37 1    
    69   35   91 1    
    70   36   92 1    
    71   36   93 1    
    72   36   94 1    
    73   37   38 2    
    74   37   39 am   BACKBONE|DICT|INTERRES
    75   39   40 1    
    76   39   95 1    
    77   40   41 1    
    78   40   42 1    
    79   40   96 1    
    80   41   97 1    
    81   41   98 1    
    82   41   99 1    
    83   42   43 2    
    84   42   44 am   BACKBONE|DICT|INTERRES
    85   44   45 1    
    86   44  100 1    
    87   45   46 1    
    88   45   47 1    
    89   45  101 1    
    90   46  102 1    
    91   46  103 1    
    92   46  104 1    
    93   47   48 2    
    94   47   49 am   BACKBONE|DICT|INTERRES
    95   49   50 1    
    96   49  105 1    
    97   50   51 1    
    98   50   52 1    
    99   50  106 1    
   100   51  107 1    
   101   51  108 1    
   102   51  109 1    
   103   52   53 2    
   104   52   54 am   BACKBONE|DICT|INTERRES
   105   54   55 1    
   106   54  110 1    
   107   55   56 1    
   108   55   59 1    
   109   55  111 1    
   110   56   57 am   BACKBONE|DICT|INTERRES
   111   56   58 2    
   112   57  112 1    
   113   57  113 1    
   114   59   60 1    
   115   59  114 1    
   116   59  115 1    
   117   60   61 1    
   118   61  116 1    
   119   61  117 1    
@<TRIPOS>SUBSTRUCTURE
     1 UNK         1 GROUP             0       ****    0 ROOT    
