@<TRIPOS>MOLECULE
3R8
117   119    1
SMALL
USER_CHARGES


@<TRIPOS>ATOM
      1 CA         16.0425  -25.1508  -49.9811 C.3       0 UNK        -0.2013 
      2 C          17.2298  -25.0032  -49.0417 C.2       0 UNK         0.4866 
      3 O          17.9357  -23.9963  -49.1014 O.2       0 UNK        -0.5176 
      4 N          17.4579  -26.0025  -48.1799 N.am      1 UNK        -0.4884 
      5 CA         18.5206  -26.0244  -47.1666 C.3       1 UNK         0.0853 
      6 C6         18.7248  -27.4418  -46.5624 C.3       10 UNK        -0.0849 
      7 S7         17.1713  -28.2392  -46.0184 S.3       10 UNK        -0.2776 
      8 C8         17.7678  -29.8488  -45.4090 C.3       10 UNK         0.0316 
      9 C9         18.2292  -29.7843  -43.9591 C.ar      10 UNK        -0.0863 
     10 C10        19.5351  -30.1419  -43.6091 C.ar      10 UNK        -0.1009 
     11 C11        19.9346  -30.1416  -42.2682 C.ar      10 UNK        -0.0712 
     12 C12        19.0302  -29.7437  -41.2784 C.ar      10 UNK        -0.0894 
     13 C13        17.7272  -29.3677  -41.6178 C.ar      10 UNK        -0.0745 
     14 C14        17.3288  -29.4104  -42.9569 C.ar      10 UNK        -0.0972 
     15 C15        16.7487  -28.9125  -40.5434 C.3       10 UNK         0.0209 
     16 S16        16.1913  -27.1959  -40.8061 S.3       10 UNK        -0.2568 
     17 C17        17.7221  -26.2416  -40.5185 C.3       10 UNK        -0.0983 
     18 CA         18.5805  -26.0362  -41.8030 C.3       3 UNK         0.0876 
     19 N          17.8199  -25.5327  -42.9528 N.am      3 UNK        -0.4424 
     20 C          17.2890  -24.3112  -43.1037 C.2       2 UNK         0.4918 
     21 O          17.3080  -23.4412  -42.2308 O.2       2 UNK        -0.4875 
     22 CA         16.6028  -24.0185  -44.4582 C.3       2 UNK         0.0481 
     23 CB         16.6825  -22.5282  -44.8510 C.3       2 UNK        -0.1831 
     24 N          17.0634  -24.8758  -45.5617 N.am      2 UNK        -0.4498 
     25 C          18.3056  -24.9641  -46.0671 C.2       1 UNK         0.5027 
     26 O          19.2537  -24.2670  -45.7067 O.2       1 UNK        -0.4969 
     27 C          19.8776  -25.2204  -41.5798 C.2       3 UNK         0.5005 
     28 O          20.4872  -24.7891  -42.5611 O.2       3 UNK        -0.5279 
     29 N          20.2960  -25.0478  -40.3135 N.am      4 UNK        -0.4463 
     30 CA         21.4953  -24.3196  -39.8674 C.3       4 UNK         0.0283 
     31 CB         21.3160  -22.8015  -40.0830 C.3       4 UNK        -0.1875 
     32 C          22.7972  -24.8640  -40.4924 C.2       4 UNK         0.4949 
     33 O          23.6365  -24.0912  -40.9592 O.2       4 UNK        -0.5039 
     34 N          22.9245  -26.1945  -40.5044 N.am      5 UNK        -0.4663 
     35 CA         24.0289  -26.9392  -41.1030 C.3       5 UNK         0.0242 
     36 CB         23.6022  -27.4154  -42.5038 C.3       5 UNK        -0.1982 
     37 C          24.4097  -28.1178  -40.1972 C.2       5 UNK         0.5017 
     38 O          23.6713  -28.4394  -39.2614 O.2       5 UNK        -0.5012 
     39 N          25.5631  -28.7310  -40.4929 N.am      6 UNK        -0.4439 
     40 CA         26.1134  -29.8902  -39.7860 C.3       6 UNK         0.0297 
     41 CB         27.5318  -30.1656  -40.3142 C.3       6 UNK        -0.2006 
     42 C          25.2401  -31.1486  -39.9308 C.2       6 UNK         0.4892 
     43 O          24.5199  -31.2901  -40.9202 O.2       6 UNK        -0.5089 
     44 N          25.3780  -32.0657  -38.9635 N.am      7 UNK        -0.4243 
     45 CA         24.6206  -33.3183  -38.8285 C.3       7 UNK         0.0196 
     46 CB         24.9350  -33.9359  -37.4548 C.3       7 UNK        -0.2007 
     47 C          24.8220  -34.3585  -39.9509 C.2       7 UNK         0.5020 
     48 O          24.1602  -35.3970  -39.9270 O.2       7 UNK        -0.5147 
     49 N          25.6936  -34.0718  -40.9284 N.am      8 UNK        -0.4734 
     50 CA         25.9261  -34.8684  -42.1400 C.3       8 UNK         0.0238 
     51 CB         27.0661  -34.2258  -42.9470 C.3       8 UNK        -0.1912 
     52 C          24.6770  -35.0574  -43.0262 C.2       8 UNK         0.5038 
     53 O          24.6491  -35.9927  -43.8271 O.2       8 UNK        -0.5046 
     54 N          23.6666  -34.1944  -42.8525 N.am      9 UNK        -0.4200 
     55 CA         22.3107  -34.3533  -43.3978 C.3       9 UNK         0.0839 
     56 C          21.5102  -35.5682  -42.8370 C.2       9 UNK         0.5513 
     57 N          21.9109  -36.1872  -41.7316 N.am      9 UNK        -0.7519 
     58 O          20.5090  -35.9631  -43.4291 O.2       9 UNK        -0.4960 
     59 C59        21.4972  -33.0365  -43.2898 C.3       10 UNK        -0.0876 
     60 S60        21.3803  -32.3886  -41.5823 S.3       10 UNK        -0.2414 
     61 C61        21.3338  -30.5938  -41.8782 C.3       10 UNK         0.0169 
     62 H62        16.3777  -25.1195  -51.0175 H         1 UNK         0.0903 
     63 H63        15.5123  -26.0901  -49.8247 H         1 UNK         0.0903 
     64 H64        15.3379  -24.3341  -49.8259 H         1 UNK         0.0903 
     65 H65        16.8483  -26.8093  -48.1756 H         1 UNK         0.3096 
     66 H66        19.4501  -25.7515  -47.6723 H         1 UNK         0.1121 
     67 H67        19.1820  -28.0855  -47.3156 H         1 UNK         0.0849 
     68 H68        19.4308  -27.4180  -45.7291 H         1 UNK         0.0849 
     69 H69        16.9530  -30.5707  -45.4799 H         1 UNK         0.0865 
     70 H70        18.5589  -30.2203  -46.0622 H         1 UNK         0.0865 
     71 H71        20.2336  -30.4484  -44.3753 H         1 UNK         0.1346 
     72 H72        19.3414  -29.7359  -40.2426 H         1 UNK         0.1412 
     73 H73        16.3168  -29.1344  -43.2217 H         1 UNK         0.1426 
     74 H74        17.1853  -29.0016  -39.5475 H         1 UNK         0.0716 
     75 H75        15.8787  -29.5704  -40.5573 H         1 UNK         0.0716 
     76 H76        18.2946  -26.7545  -39.7441 H         1 UNK         0.0695 
     77 H77        17.4307  -25.2764  -40.1002 H         1 UNK         0.0695 
     78 H78        18.9414  -27.0144  -42.1171 H         1 UNK         0.0983 
     79 H79        17.7493  -26.1687  -43.7328 H         1 UNK         0.3095 
     80 H80        15.5492  -24.2617  -44.3147 H         1 UNK         0.0454 
     81 H81        16.1938  -21.8996  -44.1057 H         1 UNK         0.0851 
     82 H82        16.1880  -22.3412  -45.8040 H         1 UNK         0.0851 
     83 H83        17.7145  -22.1866  -44.9353 H         1 UNK         0.0851 
     84 H84        16.3714  -25.5089  -45.9398 H         1 UNK         0.2976 
     85 H85        19.7365  -25.4504  -39.5746 H         1 UNK         0.3116 
     86 H86        21.5798  -24.4903  -38.7931 H         1 UNK         0.0646 
     87 H87        20.4075  -22.4366  -39.6041 H         1 UNK         0.0847 
     88 H88        21.2609  -22.5473  -41.1422 H         1 UNK         0.0847 
     89 H89        22.1515  -22.2440  -39.6580 H         1 UNK         0.0847 
     90 H90        22.2391  -26.7621  -40.0235 H         1 UNK         0.3040 
     91 H91        24.9084  -26.2968  -41.1910 H         1 UNK         0.1015 
     92 H92        24.3787  -28.0152  -42.9799 H         1 UNK         0.0786 
     93 H93        23.3999  -26.5687  -43.1603 H         1 UNK         0.0786 
     94 H94        22.6973  -28.0212  -42.4618 H         1 UNK         0.0786 
     95 H95        26.0808  -28.4152  -41.3000 H         1 UNK         0.3172 
     96 H96        26.1763  -29.6341  -38.7262 H         1 UNK         0.0595 
     97 H97        27.5252  -30.4214  -41.3748 H         1 UNK         0.0839 
     98 H98        27.9975  -30.9968  -39.7829 H         1 UNK         0.0839 
     99 H99        28.1809  -29.2997  -40.1818 H         1 UNK         0.0839 
    100 H100       26.0286  -31.8675  -38.2165 H         1 UNK         0.2998 
    101 H101       23.5608  -33.0547  -38.8469 H         1 UNK         0.0822 
    102 H102       24.6975  -33.2465  -36.6443 H         1 UNK         0.0787 
    103 H103       24.3489  -34.8405  -37.2853 H         1 UNK         0.0787 
    104 H104       25.9874  -34.2093  -37.3683 H         1 UNK         0.0787 
    105 H105       26.1667  -33.1815  -40.8777 H         1 UNK         0.3055 
    106 H106       26.2432  -35.8643  -41.8231 H         1 UNK         0.1106 
    107 H107       27.9860  -34.1733  -42.3645 H         1 UNK         0.0828 
    108 H108       27.2865  -34.8071  -43.8436 H         1 UNK         0.0828 
    109 H109       26.8121  -33.2148  -43.2686 H         1 UNK         0.0828 
    110 H110       23.7806  -33.4516  -42.1755 H         1 UNK         0.2931 
    111 H111       22.4335  -34.5574  -44.4632 H         1 UNK         0.0412 
    112 H112       22.7222  -35.8649  -41.2142 H         1 UNK         0.3472 
    113 H113       21.3815  -36.9734  -41.3897 H         1 UNK         0.3472 
    114 H114       21.9682  -32.2841  -43.9235 H         1 UNK         0.0970 
    115 H115       20.4886  -33.1641  -43.6881 H         1 UNK         0.0970 
    116 H116       21.6527  -30.0823  -40.9685 H         1 UNK         0.0612 
    117 H117       22.0593  -30.3230  -42.6461 H         1 UNK         0.0612 
@<TRIPOS>BOND
     1    1    2 1    
     2    1   62 1    
     3    1   63 1    
     4    1   64 1    
     5    2    3 2    
     6    2    4 am   BACKBONE|DICT|INTERRES
     7    4    5 1    
     8    4   65 1    
     9    5    6 1    
    10    5   25 1    
    11    5   66 1    
    12    6    7 1    
    13    6   67 1    
    14    6   68 1    
    15    7    8 1    
    16    8    9 1    
    17    8   69 1    
    18    8   70 1    
    19    9   10 ar   
    20    9   14 ar   
    21   10   11 ar   
    22   10   71 1    
    23   11   12 ar   
    24   11   61 1    
    25   12   13 ar   
    26   12   72 1    
    27   13   14 ar   
    28   13   15 1    
    29   14   73 1    
    30   15   16 1    
    31   15   74 1    
    32   15   75 1    
    33   16   17 1    
    34   17   18 1    
    35   17   76 1    
    36   17   77 1    
    37   18   19 1    
    38   18   27 1    
    39   18   78 1    
    40   19   20 am   BACKBONE|DICT|INTERRES
    41   19   79 1    
    42   20   21 2    
    43   20   22 1    
    44   22   23 1    
    45   22   24 1    
    46   22   80 1    
    47   23   81 1    
    48   23   82 1    
    49   23   83 1    
    50   24   25 am   BACKBONE|DICT|INTERRES
    51   24   84 1    
    52   25   26 2    
    53   27   28 2    
    54   27   29 am   BACKBONE|DICT|INTERRES
    55   29   30 1    
    56   29   85 1    
    57   30   31 1    
    58   30   32 1    
    59   30   86 1    
    60   31   87 1    
    61   31   88 1    
    62   31   89 1    
    63   32   33 2    
    64   32   34 am   BACKBONE|DICT|INTERRES
    65   34   35 1    
    66   34   90 1    
    67   35   36 1    
    68   35   37 1    
    69   35   91 1    
    70   36   92 1    
    71   36   93 1    
    72   36   94 1    
    73   37   38 2    
    74   37   39 am   BACKBONE|DICT|INTERRES
    75   39   40 1    
    76   39   95 1    
    77   40   41 1    
    78   40   42 1    
    79   40   96 1    
    80   41   97 1    
    81   41   98 1    
    82   41   99 1    
    83   42   43 2    
    84   42   44 am   BACKBONE|DICT|INTERRES
    85   44   45 1    
    86   44  100 1    
    87   45   46 1    
    88   45   47 1    
    89   45  101 1    
    90   46  102 1    
    91   46  103 1    
    92   46  104 1    
    93   47   48 2    
    94   47   49 am   BACKBONE|DICT|INTERRES
    95   49   50 1    
    96   49  105 1    
    97   50   51 1    
    98   50   52 1    
    99   50  106 1    
   100   51  107 1    
   101   51  108 1    
   102   51  109 1    
   103   52   53 2    
   104   52   54 am   BACKBONE|DICT|INTERRES
   105   54   55 1    
   106   54  110 1    
   107   55   56 1    
   108   55   59 1    
   109   55  111 1    
   110   56   57 am   BACKBONE|DICT|INTERRES
   111   56   58 2    
   112   57  112 1    
   113   57  113 1    
   114   59   60 1    
   115   59  114 1    
   116   59  115 1    
   117   60   61 1    
   118   61  116 1    
   119   61  117 1    
@<TRIPOS>SUBSTRUCTURE
     1 UNK         1 GROUP             0       ****    0 ROOT    
