@<TRIPOS>MOLECULE
3R8
117   119    1
SMALL
USER_CHARGES


@<TRIPOS>ATOM
      1 CA         14.3982  -22.0419  -42.8680 C.3       0 UNK        -0.2013 
      2 C          14.5494  -22.9862  -44.0509 C.2       0 UNK         0.4866 
      3 O          14.0111  -22.7153  -45.1245 O.2       0 UNK        -0.5176 
      4 N          15.2802  -24.0931  -43.8650 N.am      1 UNK        -0.4884 
      5 CA         15.5411  -25.1125  -44.8909 C.3       1 UNK         0.0853 
      6 C6         15.8993  -26.4840  -44.2625 C.3       10 UNK        -0.0849 
      7 S7         17.2617  -26.4302  -43.0433 S.3       10 UNK        -0.2776 
      8 C8         17.1708  -28.1250  -42.3663 C.3       10 UNK         0.0316 
      9 C9         18.3580  -28.9799  -42.7912 C.ar      10 UNK        -0.0863 
     10 C10        19.1347  -29.6314  -41.8284 C.ar      10 UNK        -0.1009 
     11 C11        20.2395  -30.4005  -42.2064 C.ar      10 UNK        -0.0712 
     12 C12        20.5791  -30.5000  -43.5582 C.ar      10 UNK        -0.0894 
     13 C13        19.8143  -29.8498  -44.5297 C.ar      10 UNK        -0.0745 
     14 C14        18.6847  -29.1235  -44.1425 C.ar      10 UNK        -0.0972 
     15 C15        20.2192  -29.9243  -45.9939 C.3       10 UNK         0.0209 
     16 S16        21.4244  -28.6239  -46.4211 S.3       10 UNK        -0.2568 
     17 C17        20.3523  -27.1482  -46.5360 C.3       10 UNK        -0.0983 
     18 CA         20.9445  -25.8267  -45.9731 C.3       3 UNK         0.0876 
     19 N          19.9256  -24.7899  -45.8665 N.am      3 UNK        -0.4424 
     20 C          19.5211  -23.9952  -46.8608 C.2       2 UNK         0.4918 
     21 O          19.9924  -24.0258  -47.9991 O.2       2 UNK        -0.4875 
     22 CA         18.3874  -23.0096  -46.5090 C.3       2 UNK         0.0481 
     23 CB         17.7612  -22.3455  -47.7535 C.3       2 UNK        -0.1831 
     24 N          17.3472  -23.6120  -45.6615 N.am      2 UNK        -0.4498 
     25 C          16.5776  -24.6760  -45.9503 C.2       1 UNK         0.5027 
     26 O          16.6526  -25.3120  -47.0027 O.2       1 UNK        -0.4969 
     27 C          21.6193  -25.8918  -44.5945 C.2       3 UNK         0.5005 
     28 O          22.6551  -25.2484  -44.4165 O.2       3 UNK        -0.5279 
     29 N          20.9901  -26.5909  -43.6341 N.am      4 UNK        -0.4463 
     30 CA         21.3909  -26.7029  -42.2231 C.3       4 UNK         0.0283 
     31 CB         21.1449  -25.3696  -41.4870 C.3       4 UNK        -0.1875 
     32 C          22.8299  -27.2281  -42.0518 C.2       4 UNK         0.4949 
     33 O          23.6505  -26.5950  -41.3841 O.2       4 UNK        -0.5039 
     34 N          23.1161  -28.3658  -42.6984 N.am      5 UNK        -0.4663 
     35 CA         24.4420  -28.9791  -42.8309 C.3       5 UNK         0.0242 
     36 CB         24.3971  -30.0073  -43.9772 C.3       5 UNK        -0.1982 
     37 C          24.9977  -29.5866  -41.5252 C.2       5 UNK         0.5017 
     38 O          25.2299  -30.7940  -41.4614 O.2       5 UNK        -0.5012 
     39 N          25.2025  -28.7400  -40.5064 N.am      6 UNK        -0.4439 
     40 CA         25.9150  -28.9963  -39.2436 C.3       6 UNK         0.0297 
     41 CB         27.4328  -29.0682  -39.5136 C.3       6 UNK        -0.2006 
     42 C          25.4105  -30.2168  -38.4432 C.2       6 UNK         0.4892 
     43 O          26.2028  -30.8727  -37.7648 O.2       6 UNK        -0.5089 
     44 N          24.1057  -30.5065  -38.5571 N.am      7 UNK        -0.4243 
     45 CA         23.3949  -31.6617  -37.9923 C.3       7 UNK         0.0196 
     46 CB         23.4102  -31.6269  -36.4491 C.3       7 UNK        -0.2007 
     47 C          23.8445  -33.0296  -38.5526 C.2       7 UNK         0.5020 
     48 O          23.4823  -34.0587  -37.9799 O.2       7 UNK        -0.5147 
     49 N          24.5643  -33.0494  -39.6879 N.am      8 UNK        -0.4734 
     50 CA         24.9847  -34.2753  -40.3872 C.3       8 UNK         0.0238 
     51 CB         26.0333  -33.9240  -41.4547 C.3       8 UNK        -0.1912 
     52 C          23.8108  -35.0496  -41.0173 C.2       8 UNK         0.5038 
     53 O          23.9598  -36.2279  -41.3423 O.2       8 UNK        -0.5046 
     54 N          22.6661  -34.3715  -41.1496 N.am      9 UNK        -0.4200 
     55 CA         21.3480  -34.9216  -41.4786 C.3       9 UNK         0.0839 
     56 C          20.7658  -35.9094  -40.4222 C.2       9 UNK         0.5513 
     57 N          21.2787  -35.9624  -39.1969 N.am      9 UNK        -0.7519 
     58 O          19.8337  -36.6484  -40.7283 O.2       9 UNK        -0.4960 
     59 C59        20.3504  -33.7773  -41.8042 C.3       10 UNK        -0.0876 
     60 S60        20.1992  -32.5440  -40.4569 S.3       10 UNK        -0.2414 
     61 C61        21.0726  -31.1035  -41.1471 C.3       10 UNK         0.0169 
     62 H62        13.3454  -21.9305  -42.6095 H         1 UNK         0.0903 
     63 H63        14.9269  -22.4040  -41.9864 H         1 UNK         0.0903 
     64 H64        14.7930  -21.0581  -43.1201 H         1 UNK         0.0903 
     65 H65        15.7006  -24.2763  -42.9634 H         1 UNK         0.3096 
     66 H66        14.6113  -25.2561  -45.4471 H         1 UNK         0.1121 
     67 H67        15.0139  -26.8723  -43.7564 H         1 UNK         0.0849 
     68 H68        16.1359  -27.2170  -45.0361 H         1 UNK         0.0849 
     69 H69        17.1236  -28.0511  -41.2787 H         1 UNK         0.0865 
     70 H70        16.2487  -28.6190  -42.6750 H         1 UNK         0.0865 
     71 H71        18.8830  -29.5433  -40.7801 H         1 UNK         0.1346 
     72 H72        21.4380  -31.0830  -43.8587 H         1 UNK         0.1412 
     73 H73        18.0681  -28.6458  -44.8900 H         1 UNK         0.1426 
     74 H74        19.3448  -29.8452  -46.6420 H         1 UNK         0.0716 
     75 H75        20.6647  -30.8980  -46.2032 H         1 UNK         0.0716 
     76 H76        19.3972  -27.3493  -46.0572 H         1 UNK         0.0695 
     77 H77        20.1099  -27.0067  -47.5903 H         1 UNK         0.0695 
     78 H78        21.7168  -25.4919  -46.6700 H         1 UNK         0.0983 
     79 H79        19.5099  -24.6732  -44.9530 H         1 UNK         0.3095 
     80 H80        18.8466  -22.2197  -45.9130 H         1 UNK         0.0454 
     81 H81        18.5098  -21.7877  -48.3175 H         1 UNK         0.0851 
     82 H82        16.9766  -21.6420  -47.4754 H         1 UNK         0.0851 
     83 H83        17.3270  -23.0812  -48.4311 H         1 UNK         0.0851 
     84 H84        17.1975  -23.1713  -44.7646 H         1 UNK         0.2976 
     85 H85        20.1599  -27.1104  -43.8880 H         1 UNK         0.3116 
     86 H86        20.7380  -27.4447  -41.7665 H         1 UNK         0.0646 
     87 H87        21.7774  -24.5695  -41.8731 H         1 UNK         0.0847 
     88 H88        20.1063  -25.0524  -41.5808 H         1 UNK         0.0847 
     89 H89        21.3580  -25.4667  -40.4218 H         1 UNK         0.0847 
     90 H90        22.3689  -28.8045  -43.2181 H         1 UNK         0.3040 
     91 H91        25.1400  -28.1931  -43.1279 H         1 UNK         0.1015 
     92 H92        25.3900  -30.4147  -44.1725 H         1 UNK         0.0786 
     93 H93        24.0473  -29.5564  -44.9061 H         1 UNK         0.0786 
     94 H94        23.7456  -30.8487  -43.7423 H         1 UNK         0.0786 
     95 H95        24.8712  -27.7866  -40.6484 H         1 UNK         0.3172 
     96 H96        25.7320  -28.1267  -38.6108 H         1 UNK         0.0595 
     97 H97        27.6932  -29.9455  -40.1072 H         1 UNK         0.0839 
     98 H98        27.9982  -29.1247  -38.5825 H         1 UNK         0.0839 
     99 H99        27.7843  -28.1854  -40.0477 H         1 UNK         0.0839 
    100 H100       23.5555  -29.8983  -39.1465 H         1 UNK         0.2998 
    101 H101       22.3555  -31.5496  -38.3030 H         1 UNK         0.0822 
    102 H102       22.7437  -32.3839  -36.0338 H         1 UNK         0.0787 
    103 H103       23.0753  -30.6614  -36.0700 H         1 UNK         0.0787 
    104 H104       24.4054  -31.8193  -36.0476 H         1 UNK         0.0787 
    105 H105       24.8230  -32.1701  -40.1296 H         1 UNK         0.3055 
    106 H106       25.4502  -34.9372  -39.6534 H         1 UNK         0.1106 
    107 H107       26.8734  -33.3788  -41.0242 H         1 UNK         0.0828 
    108 H108       26.4347  -34.8261  -41.9183 H         1 UNK         0.0828 
    109 H109       25.6088  -33.3119  -42.2513 H         1 UNK         0.0828 
    110 H110       22.6633  -33.4148  -40.8329 H         1 UNK         0.2931 
    111 H111       21.4769  -35.5073  -42.3907 H         1 UNK         0.0412 
    112 H112       20.8908  -36.6105  -38.5299 H         1 UNK         0.3472 
    113 H113       22.0337  -35.3476  -38.9194 H         1 UNK         0.3472 
    114 H114       20.6601  -33.2774  -42.7222 H         1 UNK         0.0970 
    115 H115       19.3584  -34.1787  -42.0203 H         1 UNK         0.0970 
    116 H116       21.2845  -30.4014  -40.3399 H         1 UNK         0.0612 
    117 H117       22.0405  -31.4108  -41.5465 H         1 UNK         0.0612 
@<TRIPOS>BOND
     1    1    2 1    
     2    1   62 1    
     3    1   63 1    
     4    1   64 1    
     5    2    3 2    
     6    2    4 am   BACKBONE|DICT|INTERRES
     7    4    5 1    
     8    4   65 1    
     9    5    6 1    
    10    5   25 1    
    11    5   66 1    
    12    6    7 1    
    13    6   67 1    
    14    6   68 1    
    15    7    8 1    
    16    8    9 1    
    17    8   69 1    
    18    8   70 1    
    19    9   10 ar   
    20    9   14 ar   
    21   10   11 ar   
    22   10   71 1    
    23   11   12 ar   
    24   11   61 1    
    25   12   13 ar   
    26   12   72 1    
    27   13   14 ar   
    28   13   15 1    
    29   14   73 1    
    30   15   16 1    
    31   15   74 1    
    32   15   75 1    
    33   16   17 1    
    34   17   18 1    
    35   17   76 1    
    36   17   77 1    
    37   18   19 1    
    38   18   27 1    
    39   18   78 1    
    40   19   20 am   BACKBONE|DICT|INTERRES
    41   19   79 1    
    42   20   21 2    
    43   20   22 1    
    44   22   23 1    
    45   22   24 1    
    46   22   80 1    
    47   23   81 1    
    48   23   82 1    
    49   23   83 1    
    50   24   25 am   BACKBONE|DICT|INTERRES
    51   24   84 1    
    52   25   26 2    
    53   27   28 2    
    54   27   29 am   BACKBONE|DICT|INTERRES
    55   29   30 1    
    56   29   85 1    
    57   30   31 1    
    58   30   32 1    
    59   30   86 1    
    60   31   87 1    
    61   31   88 1    
    62   31   89 1    
    63   32   33 2    
    64   32   34 am   BACKBONE|DICT|INTERRES
    65   34   35 1    
    66   34   90 1    
    67   35   36 1    
    68   35   37 1    
    69   35   91 1    
    70   36   92 1    
    71   36   93 1    
    72   36   94 1    
    73   37   38 2    
    74   37   39 am   BACKBONE|DICT|INTERRES
    75   39   40 1    
    76   39   95 1    
    77   40   41 1    
    78   40   42 1    
    79   40   96 1    
    80   41   97 1    
    81   41   98 1    
    82   41   99 1    
    83   42   43 2    
    84   42   44 am   BACKBONE|DICT|INTERRES
    85   44   45 1    
    86   44  100 1    
    87   45   46 1    
    88   45   47 1    
    89   45  101 1    
    90   46  102 1    
    91   46  103 1    
    92   46  104 1    
    93   47   48 2    
    94   47   49 am   BACKBONE|DICT|INTERRES
    95   49   50 1    
    96   49  105 1    
    97   50   51 1    
    98   50   52 1    
    99   50  106 1    
   100   51  107 1    
   101   51  108 1    
   102   51  109 1    
   103   52   53 2    
   104   52   54 am   BACKBONE|DICT|INTERRES
   105   54   55 1    
   106   54  110 1    
   107   55   56 1    
   108   55   59 1    
   109   55  111 1    
   110   56   57 am   BACKBONE|DICT|INTERRES
   111   56   58 2    
   112   57  112 1    
   113   57  113 1    
   114   59   60 1    
   115   59  114 1    
   116   59  115 1    
   117   60   61 1    
   118   61  116 1    
   119   61  117 1    
@<TRIPOS>SUBSTRUCTURE
     1 UNK         1 GROUP             0       ****    0 ROOT    
