@<TRIPOS>MOLECULE
3R8
117   119    1
SMALL
USER_CHARGES


@<TRIPOS>ATOM
      1 CA         14.4092  -25.3145  -46.1515 C.3       0 UNK        -0.2013 
      2 C          15.8560  -24.8484  -46.2183 C.2       0 UNK         0.4866 
      3 O          16.1078  -23.6558  -46.3962 O.2       0 UNK        -0.5176 
      4 N          16.8073  -25.7809  -46.0851 N.am      1 UNK        -0.4884 
      5 CA         18.2470  -25.5055  -46.0369 C.3       1 UNK         0.0853 
      6 C6         19.0770  -26.7333  -46.5205 C.3       10 UNK        -0.0849 
      7 S7         19.3911  -28.0468  -45.2849 S.3       10 UNK        -0.2776 
      8 C8         17.9567  -29.1390  -45.5294 C.3       10 UNK         0.0316 
      9 C9         17.7961  -30.1028  -44.3635 C.ar      10 UNK        -0.0863 
     10 C10        17.8550  -31.4843  -44.5673 C.ar      10 UNK        -0.1009 
     11 C11        17.6944  -32.3745  -43.4965 C.ar      10 UNK        -0.0712 
     12 C12        17.4682  -31.8570  -42.2154 C.ar      10 UNK        -0.0894 
     13 C13        17.4080  -30.4761  -41.9977 C.ar      10 UNK        -0.0745 
     14 C14        17.5618  -29.6066  -43.0786 C.ar      10 UNK        -0.0972 
     15 C15        17.1478  -29.9251  -40.6025 C.3       10 UNK         0.0209 
     16 S16        18.6774  -29.3604  -39.7876 S.3       10 UNK        -0.2568 
     17 C17        18.8390  -27.6327  -40.3629 C.3       10 UNK        -0.0983 
     18 CA         20.1390  -27.3431  -41.1597 C.3       3 UNK         0.0876 
     19 N          20.0346  -26.0568  -41.8644 N.am      3 UNK        -0.4424 
     20 C          20.9947  -25.4093  -42.5395 C.2       2 UNK         0.4918 
     21 O          22.1642  -25.7857  -42.6157 O.2       2 UNK        -0.4875 
     22 CA         20.5555  -24.1328  -43.2805 C.3       2 UNK         0.0481 
     23 CB         21.7386  -23.1919  -43.5714 C.3       2 UNK        -0.1831 
     24 N          19.9003  -24.4823  -44.5410 N.am      2 UNK        -0.4498 
     25 C          18.6644  -24.9893  -44.6403 C.2       1 UNK         0.5027 
     26 O          17.8992  -25.1005  -43.6758 O.2       1 UNK        -0.4969 
     27 C          21.3911  -27.4566  -40.2616 C.2       3 UNK         0.5005 
     28 O          22.1121  -28.4512  -40.3473 O.2       3 UNK        -0.5279 
     29 N          21.6499  -26.4187  -39.4527 N.am      4 UNK        -0.4463 
     30 CA         22.7888  -26.3466  -38.5327 C.3       4 UNK         0.0283 
     31 CB         22.5991  -25.1556  -37.5798 C.3       4 UNK        -0.1875 
     32 C          24.1560  -26.2575  -39.2346 C.2       4 UNK         0.4949 
     33 O          25.1356  -26.7797  -38.7030 O.2       4 UNK        -0.5039 
     34 N          24.2042  -25.6067  -40.4049 N.am      5 UNK        -0.4663 
     35 CA         25.4127  -25.4793  -41.2244 C.3       5 UNK         0.0242 
     36 CB         25.3071  -24.2266  -42.1091 C.3       5 UNK        -0.1982 
     37 C          25.6466  -26.7321  -42.0815 C.2       5 UNK         0.5017 
     38 O          26.7904  -27.1631  -42.2286 O.2       5 UNK        -0.5012 
     39 N          24.5558  -27.2986  -42.6148 N.am      6 UNK        -0.4439 
     40 CA         24.5391  -28.5289  -43.4079 C.3       6 UNK         0.0297 
     41 CB         23.1668  -28.6554  -44.0917 C.3       6 UNK        -0.2006 
     42 C          24.8383  -29.7984  -42.5890 C.2       6 UNK         0.4892 
     43 O          25.2472  -30.7992  -43.1785 O.2       6 UNK        -0.5089 
     44 N          24.6102  -29.7347  -41.2670 N.am      7 UNK        -0.4243 
     45 CA         24.5890  -30.8456  -40.3074 C.3       7 UNK         0.0196 
     46 CB         25.9648  -31.5366  -40.1940 C.3       7 UNK        -0.2007 
     47 C          23.4338  -31.8122  -40.6266 C.2       7 UNK         0.5020 
     48 O          23.6297  -33.0287  -40.6906 O.2       7 UNK        -0.5147 
     49 N          22.2482  -31.2255  -40.8499 N.am      8 UNK        -0.4734 
     50 CA         21.0144  -31.8601  -41.3162 C.3       8 UNK         0.0238 
     51 CB         20.4023  -32.7255  -40.1886 C.3       8 UNK        -0.1912 
     52 C          21.2440  -32.5984  -42.6487 C.2       8 UNK         0.5038 
     53 O          21.6723  -31.9687  -43.6173 O.2       8 UNK        -0.5046 
     54 N          20.9825  -33.9076  -42.6572 N.am      9 UNK        -0.4200 
     55 CA         21.2635  -34.8343  -43.7600 C.3       9 UNK         0.0839 
     56 C          22.4331  -35.8055  -43.4194 C.2       9 UNK         0.5513 
     57 N          23.2410  -35.5488  -42.3955 N.am      9 UNK        -0.7519 
     58 O          22.6268  -36.8074  -44.1033 O.2       9 UNK        -0.4960 
     59 C59        19.9717  -35.5753  -44.1997 C.3       10 UNK        -0.0876 
     60 S60        18.7956  -34.4669  -45.0500 S.3       10 UNK        -0.2414 
     61 C61        17.7053  -33.8921  -43.6988 C.3       10 UNK         0.0169 
     62 H62        14.3330  -26.3920  -46.0068 H         1 UNK         0.0903 
     63 H63        13.8960  -24.8246  -45.3243 H         1 UNK         0.0903 
     64 H64        13.8894  -25.0590  -47.0745 H         1 UNK         0.0903 
     65 H65        16.5388  -26.7336  -45.8931 H         1 UNK         0.3096 
     66 H66        18.4438  -24.6908  -46.7383 H         1 UNK         0.1121 
     67 H67        20.0565  -26.3865  -46.8539 H         1 UNK         0.0849 
     68 H68        18.6220  -27.1739  -47.4094 H         1 UNK         0.0849 
     69 H69        17.0452  -28.5491  -45.6175 H         1 UNK         0.0865 
     70 H70        18.0735  -29.6756  -46.4723 H         1 UNK         0.0865 
     71 H71        18.0153  -31.8638  -45.5665 H         1 UNK         0.1346 
     72 H72        17.3247  -32.5327  -41.3836 H         1 UNK         0.1412 
     73 H73        17.5052  -28.5380  -42.9250 H         1 UNK         0.1426 
     74 H74        16.4193  -29.1142  -40.6447 H         1 UNK         0.0716 
     75 H75        16.6954  -30.6974  -39.9785 H         1 UNK         0.0716 
     76 H76        18.7672  -26.9779  -39.4924 H         1 UNK         0.0695 
     77 H77        17.9705  -27.3878  -40.9747 H         1 UNK         0.0695 
     78 H78        20.2353  -28.1029  -41.9386 H         1 UNK         0.0983 
     79 H79        19.0980  -25.6817  -41.9535 H         1 UNK         0.3095 
     80 H80        19.8499  -23.5933  -42.6449 H         1 UNK         0.0454 
     81 H81        21.4023  -22.2648  -44.0354 H         1 UNK         0.0851 
     82 H82        22.4712  -23.6515  -44.2360 H         1 UNK         0.0851 
     83 H83        22.2572  -22.9216  -42.6507 H         1 UNK         0.0851 
     84 H84        20.4823  -24.4559  -45.3660 H         1 UNK         0.2976 
     85 H85        21.0137  -25.6345  -39.4589 H         1 UNK         0.3116 
     86 H86        22.7891  -27.2610  -37.9352 H         1 UNK         0.0646 
     87 H87        21.6787  -25.2495  -37.0033 H         1 UNK         0.0847 
     88 H88        23.4209  -25.0942  -36.8647 H         1 UNK         0.0847 
     89 H89        22.5654  -24.2073  -38.1177 H         1 UNK         0.0847 
     90 H90        23.3416  -25.2658  -40.8083 H         1 UNK         0.3040 
     91 H91        26.2774  -25.3574  -40.5676 H         1 UNK         0.1015 
     92 H92        24.4811  -24.2977  -42.8168 H         1 UNK         0.0786 
     93 H93        26.2196  -24.0838  -42.6894 H         1 UNK         0.0786 
     94 H94        25.1604  -23.3279  -41.5098 H         1 UNK         0.0786 
     95 H95        23.6614  -26.8280  -42.4881 H         1 UNK         0.3172 
     96 H96        25.3043  -28.4441  -44.1821 H         1 UNK         0.0595 
     97 H97        22.3594  -28.7379  -43.3626 H         1 UNK         0.0839 
     98 H98        23.1225  -29.5455  -44.7210 H         1 UNK         0.0839 
     99 H99        22.9545  -27.7961  -44.7281 H         1 UNK         0.0839 
    100 H100       24.2130  -28.8697  -40.9208 H         1 UNK         0.2998 
    101 H101       24.3612  -30.4042  -39.3359 H         1 UNK         0.0822 
    102 H102       25.9645  -32.2657  -39.3830 H         1 UNK         0.0787 
    103 H103       26.2316  -32.0712  -41.1059 H         1 UNK         0.0787 
    104 H104       26.7543  -30.8153  -39.9833 H         1 UNK         0.0787 
    105 H105       22.2060  -30.2109  -40.7558 H         1 UNK         0.3055 
    106 H106       20.3155  -31.0547  -41.5443 H         1 UNK         0.1106 
    107 H107       20.1953  -32.1184  -39.3072 H         1 UNK         0.0828 
    108 H108       19.4546  -33.1694  -40.4925 H         1 UNK         0.0828 
    109 H109       21.0654  -33.5336  -39.8781 H         1 UNK         0.0828 
    110 H110       20.6800  -34.3379  -41.7962 H         1 UNK         0.2931 
    111 H111       21.6250  -34.2734  -44.6237 H         1 UNK         0.0412 
    112 H112       23.9938  -36.1885  -42.1960 H         1 UNK         0.3472 
    113 H113       23.1569  -34.6941  -41.8557 H         1 UNK         0.3472 
    114 H114       20.2080  -36.3688  -44.9109 H         1 UNK         0.0970 
    115 H115       19.4913  -36.0707  -43.3546 H         1 UNK         0.0970 
    116 H116       16.6876  -34.2154  -43.9200 H         1 UNK         0.0612 
    117 H117       17.9871  -34.3865  -42.7685 H         1 UNK         0.0612 
@<TRIPOS>BOND
     1    1    2 1    
     2    1   62 1    
     3    1   63 1    
     4    1   64 1    
     5    2    3 2    
     6    2    4 am   BACKBONE|DICT|INTERRES
     7    4    5 1    
     8    4   65 1    
     9    5    6 1    
    10    5   25 1    
    11    5   66 1    
    12    6    7 1    
    13    6   67 1    
    14    6   68 1    
    15    7    8 1    
    16    8    9 1    
    17    8   69 1    
    18    8   70 1    
    19    9   10 ar   
    20    9   14 ar   
    21   10   11 ar   
    22   10   71 1    
    23   11   12 ar   
    24   11   61 1    
    25   12   13 ar   
    26   12   72 1    
    27   13   14 ar   
    28   13   15 1    
    29   14   73 1    
    30   15   16 1    
    31   15   74 1    
    32   15   75 1    
    33   16   17 1    
    34   17   18 1    
    35   17   76 1    
    36   17   77 1    
    37   18   19 1    
    38   18   27 1    
    39   18   78 1    
    40   19   20 am   BACKBONE|DICT|INTERRES
    41   19   79 1    
    42   20   21 2    
    43   20   22 1    
    44   22   23 1    
    45   22   24 1    
    46   22   80 1    
    47   23   81 1    
    48   23   82 1    
    49   23   83 1    
    50   24   25 am   BACKBONE|DICT|INTERRES
    51   24   84 1    
    52   25   26 2    
    53   27   28 2    
    54   27   29 am   BACKBONE|DICT|INTERRES
    55   29   30 1    
    56   29   85 1    
    57   30   31 1    
    58   30   32 1    
    59   30   86 1    
    60   31   87 1    
    61   31   88 1    
    62   31   89 1    
    63   32   33 2    
    64   32   34 am   BACKBONE|DICT|INTERRES
    65   34   35 1    
    66   34   90 1    
    67   35   36 1    
    68   35   37 1    
    69   35   91 1    
    70   36   92 1    
    71   36   93 1    
    72   36   94 1    
    73   37   38 2    
    74   37   39 am   BACKBONE|DICT|INTERRES
    75   39   40 1    
    76   39   95 1    
    77   40   41 1    
    78   40   42 1    
    79   40   96 1    
    80   41   97 1    
    81   41   98 1    
    82   41   99 1    
    83   42   43 2    
    84   42   44 am   BACKBONE|DICT|INTERRES
    85   44   45 1    
    86   44  100 1    
    87   45   46 1    
    88   45   47 1    
    89   45  101 1    
    90   46  102 1    
    91   46  103 1    
    92   46  104 1    
    93   47   48 2    
    94   47   49 am   BACKBONE|DICT|INTERRES
    95   49   50 1    
    96   49  105 1    
    97   50   51 1    
    98   50   52 1    
    99   50  106 1    
   100   51  107 1    
   101   51  108 1    
   102   51  109 1    
   103   52   53 2    
   104   52   54 am   BACKBONE|DICT|INTERRES
   105   54   55 1    
   106   54  110 1    
   107   55   56 1    
   108   55   59 1    
   109   55  111 1    
   110   56   57 am   BACKBONE|DICT|INTERRES
   111   56   58 2    
   112   57  112 1    
   113   57  113 1    
   114   59   60 1    
   115   59  114 1    
   116   59  115 1    
   117   60   61 1    
   118   61  116 1    
   119   61  117 1    
@<TRIPOS>SUBSTRUCTURE
     1 UNK         1 GROUP             0       ****    0 ROOT    
