@<TRIPOS>MOLECULE
3R8
117   119    1
SMALL
USER_CHARGES


@<TRIPOS>ATOM
      1 CA         18.7648  -24.8369  -50.0710 C.3       0 UNK        -0.2013 
      2 C          19.2121  -25.6776  -48.8843 C.2       0 UNK         0.4866 
      3 O          20.3245  -26.2060  -48.8927 O.2       0 UNK        -0.5176 
      4 N          18.3512  -25.8141  -47.8685 N.am      1 UNK        -0.4884 
      5 CA         18.6330  -26.5447  -46.6288 C.3       1 UNK         0.0853 
      6 C6         17.3448  -26.8138  -45.8128 C.3       10 UNK        -0.0849 
      7 S7         16.1970  -27.9631  -46.6386 S.3       10 UNK        -0.2776 
      8 C8         16.8404  -29.5931  -46.1096 C.3       10 UNK         0.0316 
      9 C9         16.9379  -29.8071  -44.5970 C.ar      10 UNK        -0.0863 
     10 C10        17.9552  -30.6238  -44.0927 C.ar      10 UNK        -0.1009 
     11 C11        18.0611  -30.8747  -42.7211 C.ar      10 UNK        -0.0712 
     12 C12        17.1441  -30.2906  -41.8445 C.ar      10 UNK        -0.0894 
     13 C13        16.1432  -29.4419  -42.3260 C.ar      10 UNK        -0.0745 
     14 C14        16.0296  -29.2254  -43.7030 C.ar      10 UNK        -0.0972 
     15 C15        15.1869  -28.7498  -41.3617 C.3       10 UNK         0.0209 
     16 S16        16.0498  -27.7621  -40.0900 S.3       10 UNK        -0.2568 
     17 C17        17.0708  -26.6202  -41.0864 C.3       10 UNK        -0.0983 
     18 CA         18.5774  -26.9849  -41.0323 C.3       3 UNK         0.0876 
     19 N          19.3095  -26.4280  -42.1713 N.am      3 UNK        -0.4424 
     20 C          20.5602  -26.7697  -42.5093 C.2       2 UNK         0.4918 
     21 O          21.2180  -27.6310  -41.9251 O.2       2 UNK        -0.4875 
     22 CA         21.1224  -26.0813  -43.7603 C.3       2 UNK         0.0481 
     23 CB         22.6145  -26.3775  -43.9949 C.3       2 UNK        -0.1831 
     24 N          20.3393  -26.5620  -44.8943 N.am      2 UNK        -0.4498 
     25 C          19.6391  -25.7933  -45.7353 C.2       1 UNK         0.5027 
     26 O          19.6954  -24.5608  -45.7596 O.2       1 UNK        -0.4969 
     27 C          19.2339  -26.5554  -39.7030 C.2       3 UNK         0.5005 
     28 O          19.6125  -25.3889  -39.5631 O.2       3 UNK        -0.5279 
     29 N          19.3529  -27.5083  -38.7658 N.am      4 UNK        -0.4463 
     30 CA         19.9995  -27.3819  -37.4524 C.3       4 UNK         0.0283 
     31 CB         19.2271  -26.3991  -36.5458 C.3       4 UNK        -0.1875 
     32 C          21.5085  -27.0648  -37.5365 C.2       4 UNK         0.4949 
     33 O          22.0432  -26.3890  -36.6556 O.2       4 UNK        -0.5039 
     34 N          22.1735  -27.5745  -38.5799 N.am      5 UNK        -0.4663 
     35 CA         23.6131  -27.4742  -38.8033 C.3       5 UNK         0.0242 
     36 CB         23.8983  -26.3172  -39.7771 C.3       5 UNK        -0.1982 
     37 C          24.1214  -28.8062  -39.3682 C.2       5 UNK         0.5017 
     38 O          23.3389  -29.5723  -39.9334 O.2       5 UNK        -0.5012 
     39 N          25.4311  -29.0477  -39.2278 N.am      6 UNK        -0.4439 
     40 CA         26.1142  -30.2624  -39.6918 C.3       6 UNK         0.0297 
     41 CB         27.4457  -30.4016  -38.9335 C.3       6 UNK        -0.2006 
     42 C          26.3529  -30.3121  -41.2148 C.2       6 UNK         0.4892 
     43 O          26.7825  -31.3497  -41.7199 O.2       6 UNK        -0.5089 
     44 N          26.0958  -29.2000  -41.9177 N.am      7 UNK        -0.4243 
     45 CA         26.2763  -29.0500  -43.3645 C.3       7 UNK         0.0196 
     46 CB         26.2865  -27.5513  -43.7088 C.3       7 UNK        -0.2007 
     47 C          25.2378  -29.8042  -44.2192 C.2       7 UNK         0.5020 
     48 O          25.4463  -29.9333  -45.4261 O.2       7 UNK        -0.5147 
     49 N          24.1524  -30.2883  -43.6051 N.am      8 UNK        -0.4734 
     50 CA         23.1271  -31.1198  -44.2321 C.3       8 UNK         0.0238 
     51 CB         21.9071  -30.2483  -44.5802 C.3       8 UNK        -0.1912 
     52 C          22.7502  -32.2599  -43.2761 C.2       8 UNK         0.5038 
     53 O          23.0376  -32.1743  -42.0801 O.2       8 UNK        -0.5046 
     54 N          22.1023  -33.2980  -43.8221 N.am      9 UNK        -0.4200 
     55 CA         21.6428  -34.5064  -43.1083 C.3       9 UNK         0.0839 
     56 C          22.7879  -35.4105  -42.5533 C.2       9 UNK         0.5513 
     57 N          24.0188  -35.2877  -43.0357 N.am      9 UNK        -0.7519 
     58 O          22.5560  -36.2625  -41.6990 O.2       9 UNK        -0.4960 
     59 C59        20.5400  -34.2126  -42.0472 C.3       10 UNK        -0.0876 
     60 S60        19.0404  -33.4664  -42.7723 S.3       10 UNK        -0.2414 
     61 C61        19.1828  -31.7512  -42.1844 C.3       10 UNK         0.0169 
     62 H62        17.7569  -24.4446  -49.9365 H         1 UNK         0.0903 
     63 H63        19.4411  -23.9938  -50.2091 H         1 UNK         0.0903 
     64 H64        18.7764  -25.4361  -50.9811 H         1 UNK         0.0903 
     65 H65        17.4536  -25.3526  -47.9092 H         1 UNK         0.3096 
     66 H66        19.0828  -27.5021  -46.9026 H         1 UNK         0.1121 
     67 H67        16.8107  -25.8793  -45.6296 H         1 UNK         0.0849 
     68 H68        17.5800  -27.2079  -44.8231 H         1 UNK         0.0849 
     69 H69        16.1946  -30.3685  -46.5234 H         1 UNK         0.0865 
     70 H70        17.8188  -29.7357  -46.5711 H         1 UNK         0.0865 
     71 H71        18.6626  -31.0830  -44.7694 H         1 UNK         0.1346 
     72 H72        17.2234  -30.4713  -40.7812 H         1 UNK         0.1412 
     73 H73        15.2391  -28.5897  -44.0773 H         1 UNK         0.1426 
     74 H74        14.5749  -29.5051  -40.8670 H         1 UNK         0.0716 
     75 H75        14.4966  -28.0977  -41.8990 H         1 UNK         0.0716 
     76 H76        16.8987  -25.5977  -40.7445 H         1 UNK         0.0695 
     77 H77        16.7116  -26.6498  -42.1163 H         1 UNK         0.0695 
     78 H78        18.6707  -28.0688  -41.1227 H         1 UNK         0.0983 
     79 H79        18.8503  -25.6912  -42.6850 H         1 UNK         0.3095 
     80 H80        21.0031  -25.0042  -43.6259 H         1 UNK         0.0454 
     81 H81        22.8145  -27.4459  -44.0759 H         1 UNK         0.0851 
     82 H82        23.2138  -25.9934  -43.1695 H         1 UNK         0.0851 
     83 H83        22.9744  -25.9001  -44.9062 H         1 UNK         0.0851 
     84 H84        20.2023  -27.5628  -44.9254 H         1 UNK         0.2976 
     85 H85        18.9925  -28.4283  -38.9793 H         1 UNK         0.3116 
     86 H86        19.9315  -28.3680  -36.9905 H         1 UNK         0.0646 
     87 H87        19.3116  -25.3705  -36.8971 H         1 UNK         0.0847 
     88 H88        19.6111  -26.4241  -35.5253 H         1 UNK         0.0847 
     89 H89        18.1679  -26.6514  -36.4973 H         1 UNK         0.0847 
     90 H90        21.6855  -28.1522  -39.2540 H         1 UNK         0.3040 
     91 H91        24.1242  -27.2893  -37.8555 H         1 UNK         0.1015 
     92 H92        23.5211  -25.3715  -39.3871 H         1 UNK         0.0786 
     93 H93        23.4299  -26.4863  -40.7470 H         1 UNK         0.0786 
     94 H94        24.9687  -26.1938  -39.9451 H         1 UNK         0.0786 
     95 H95        26.0056  -28.3605  -38.7595 H         1 UNK         0.3172 
     96 H96        25.4905  -31.1230  -39.4397 H         1 UNK         0.0595 
     97 H97        28.1204  -29.5709  -39.1445 H         1 UNK         0.0839 
     98 H98        27.9632  -31.3196  -39.2160 H         1 UNK         0.0839 
     99 H99        27.2878  -30.4429  -37.8556 H         1 UNK         0.0839 
    100 H100       25.7424  -28.3978  -41.4186 H         1 UNK         0.2998 
    101 H101       27.2539  -29.4615  -43.6251 H         1 UNK         0.0822 
    102 H102       27.1077  -27.0362  -43.2100 H         1 UNK         0.0787 
    103 H103       26.4125  -27.3937  -44.7810 H         1 UNK         0.0787 
    104 H104       25.3580  -27.0643  -43.4140 H         1 UNK         0.0787 
    105 H105       24.0770  -30.2126  -42.5972 H         1 UNK         0.3055 
    106 H106       23.5196  -31.5723  -45.1458 H         1 UNK         0.1106 
    107 H107       21.1047  -30.8453  -45.0142 H         1 UNK         0.0828 
    108 H108       21.5068  -29.7479  -43.6979 H         1 UNK         0.0828 
    109 H109       22.1682  -29.4828  -45.3107 H         1 UNK         0.0828 
    110 H110       21.9116  -33.2876  -44.8136 H         1 UNK         0.2931 
    111 H111       21.1770  -35.1228  -43.8781 H         1 UNK         0.0412 
    112 H112       24.2263  -34.6030  -43.7445 H         1 UNK         0.3472 
    113 H113       24.7498  -35.8834  -42.6794 H         1 UNK         0.3472 
    114 H114       20.2211  -35.1378  -41.5641 H         1 UNK         0.0970 
    115 H115       20.9286  -33.5819  -41.2462 H         1 UNK         0.0970 
    116 H116       20.1382  -31.3323  -42.4949 H         1 UNK         0.0612 
    117 H117       19.1866  -31.7508  -41.0933 H         1 UNK         0.0612 
@<TRIPOS>BOND
     1    1    2 1    
     2    1   62 1    
     3    1   63 1    
     4    1   64 1    
     5    2    3 2    
     6    2    4 am   BACKBONE|DICT|INTERRES
     7    4    5 1    
     8    4   65 1    
     9    5    6 1    
    10    5   25 1    
    11    5   66 1    
    12    6    7 1    
    13    6   67 1    
    14    6   68 1    
    15    7    8 1    
    16    8    9 1    
    17    8   69 1    
    18    8   70 1    
    19    9   10 ar   
    20    9   14 ar   
    21   10   11 ar   
    22   10   71 1    
    23   11   12 ar   
    24   11   61 1    
    25   12   13 ar   
    26   12   72 1    
    27   13   14 ar   
    28   13   15 1    
    29   14   73 1    
    30   15   16 1    
    31   15   74 1    
    32   15   75 1    
    33   16   17 1    
    34   17   18 1    
    35   17   76 1    
    36   17   77 1    
    37   18   19 1    
    38   18   27 1    
    39   18   78 1    
    40   19   20 am   BACKBONE|DICT|INTERRES
    41   19   79 1    
    42   20   21 2    
    43   20   22 1    
    44   22   23 1    
    45   22   24 1    
    46   22   80 1    
    47   23   81 1    
    48   23   82 1    
    49   23   83 1    
    50   24   25 am   BACKBONE|DICT|INTERRES
    51   24   84 1    
    52   25   26 2    
    53   27   28 2    
    54   27   29 am   BACKBONE|DICT|INTERRES
    55   29   30 1    
    56   29   85 1    
    57   30   31 1    
    58   30   32 1    
    59   30   86 1    
    60   31   87 1    
    61   31   88 1    
    62   31   89 1    
    63   32   33 2    
    64   32   34 am   BACKBONE|DICT|INTERRES
    65   34   35 1    
    66   34   90 1    
    67   35   36 1    
    68   35   37 1    
    69   35   91 1    
    70   36   92 1    
    71   36   93 1    
    72   36   94 1    
    73   37   38 2    
    74   37   39 am   BACKBONE|DICT|INTERRES
    75   39   40 1    
    76   39   95 1    
    77   40   41 1    
    78   40   42 1    
    79   40   96 1    
    80   41   97 1    
    81   41   98 1    
    82   41   99 1    
    83   42   43 2    
    84   42   44 am   BACKBONE|DICT|INTERRES
    85   44   45 1    
    86   44  100 1    
    87   45   46 1    
    88   45   47 1    
    89   45  101 1    
    90   46  102 1    
    91   46  103 1    
    92   46  104 1    
    93   47   48 2    
    94   47   49 am   BACKBONE|DICT|INTERRES
    95   49   50 1    
    96   49  105 1    
    97   50   51 1    
    98   50   52 1    
    99   50  106 1    
   100   51  107 1    
   101   51  108 1    
   102   51  109 1    
   103   52   53 2    
   104   52   54 am   BACKBONE|DICT|INTERRES
   105   54   55 1    
   106   54  110 1    
   107   55   56 1    
   108   55   59 1    
   109   55  111 1    
   110   56   57 am   BACKBONE|DICT|INTERRES
   111   56   58 2    
   112   57  112 1    
   113   57  113 1    
   114   59   60 1    
   115   59  114 1    
   116   59  115 1    
   117   60   61 1    
   118   61  116 1    
   119   61  117 1    
@<TRIPOS>SUBSTRUCTURE
     1 UNK         1 GROUP             0       ****    0 ROOT    
