@<TRIPOS>MOLECULE
3R8
117   119    1
SMALL
USER_CHARGES


@<TRIPOS>ATOM
      1 CA         17.3200  -27.8617  -41.5686 C.3       0 UNK        -0.2013 
      2 C          17.0390  -26.6123  -42.3852 C.2       0 UNK         0.4866 
      3 O          17.1204  -25.5025  -41.8602 O.2       0 UNK        -0.5176 
      4 N          16.7113  -26.7881  -43.6722 N.am      1 UNK        -0.4884 
      5 CA         16.3454  -25.7143  -44.6126 C.3       1 UNK         0.0853 
      6 C6         15.7464  -26.2834  -45.9228 C.3       10 UNK        -0.0849 
      7 S7         14.3640  -27.4356  -45.6171 S.3       10 UNK        -0.2776 
      8 C8         14.9008  -28.9225  -46.5252 C.3       10 UNK         0.0316 
      9 C9         16.1146  -29.6127  -45.9093 C.ar      10 UNK        -0.0863 
     10 C10        16.0254  -30.2076  -44.6447 C.ar      10 UNK        -0.1009 
     11 C11        17.1015  -30.9318  -44.1177 C.ar      10 UNK        -0.0712 
     12 C12        18.2603  -31.0749  -44.8839 C.ar      10 UNK        -0.0894 
     13 C13        18.3837  -30.4519  -46.1269 C.ar      10 UNK        -0.0745 
     14 C14        17.3067  -29.7200  -46.6360 C.ar      10 UNK        -0.0972 
     15 C15        19.6726  -30.6089  -46.9248 C.3       10 UNK         0.0209 
     16 S16        20.8344  -29.2260  -46.6733 S.3       10 UNK        -0.2568 
     17 C17        21.2682  -29.3817  -44.9017 C.3       10 UNK        -0.0983 
     18 CA         21.7429  -28.0572  -44.2514 C.3       3 UNK         0.0876 
     19 N          20.8902  -26.9335  -44.6507 N.am      3 UNK        -0.4424 
     20 C          21.1344  -25.6239  -44.4975 C.2       2 UNK         0.4918 
     21 O          22.1267  -25.1715  -43.9280 O.2       2 UNK        -0.4875 
     22 CA         20.0422  -24.6762  -45.0122 C.3       2 UNK         0.0481 
     23 CB         20.2849  -24.3184  -46.4902 C.3       2 UNK        -0.1831 
     24 N          18.7395  -25.3151  -44.8249 N.am      2 UNK        -0.4498 
     25 C          17.5247  -24.7725  -44.9414 C.2       1 UNK         0.5027 
     26 O          17.3115  -23.6091  -45.2848 O.2       1 UNK        -0.4969 
     27 C          21.8802  -28.2373  -42.7196 C.2       3 UNK         0.5005 
     28 O          22.5461  -29.1778  -42.2857 O.2       3 UNK        -0.5279 
     29 N          21.2747  -27.3531  -41.9116 N.am      4 UNK        -0.4463 
     30 CA         21.4124  -27.3144  -40.4523 C.3       4 UNK         0.0283 
     31 CB         20.5278  -26.1967  -39.8778 C.3       4 UNK        -0.1875 
     32 C          22.8736  -27.1306  -40.0027 C.2       4 UNK         0.4949 
     33 O          23.3049  -27.7741  -39.0465 O.2       4 UNK        -0.5039 
     34 N          23.6200  -26.3006  -40.7457 N.am      5 UNK        -0.4663 
     35 CA         25.0555  -26.0766  -40.5608 C.3       5 UNK         0.0242 
     36 CB         25.4651  -24.8110  -41.3309 C.3       5 UNK        -0.1982 
     37 C          25.9240  -27.2720  -40.9945 C.2       5 UNK         0.5017 
     38 O          27.0526  -27.3957  -40.5182 O.2       5 UNK        -0.5012 
     39 N          25.3931  -28.1428  -41.8646 N.am      6 UNK        -0.4439 
     40 CA         26.0498  -29.3531  -42.3592 C.3       6 UNK         0.0297 
     41 CB         25.5969  -29.6238  -43.8071 C.3       6 UNK        -0.2006 
     42 C          25.7665  -30.5332  -41.4142 C.2       6 UNK         0.4892 
     43 O          25.1907  -31.5383  -41.8331 O.2       6 UNK        -0.5089 
     44 N          26.1638  -30.3673  -40.1439 N.am      7 UNK        -0.4243 
     45 CA         26.0405  -31.3268  -39.0395 C.3       7 UNK         0.0196 
     46 CB         27.0171  -32.5046  -39.2473 C.3       7 UNK        -0.2007 
     47 C          24.5913  -31.7899  -38.7803 C.2       7 UNK         0.5020 
     48 O          24.3722  -32.9687  -38.4976 O.2       7 UNK        -0.5147 
     49 N          23.6385  -30.8483  -38.8713 N.am      8 UNK        -0.4734 
     50 CA         22.1929  -31.0296  -38.6985 C.3       8 UNK         0.0238 
     51 CB         21.8556  -31.3946  -37.2362 C.3       8 UNK        -0.1912 
     52 C          21.5950  -32.0167  -39.7187 C.2       8 UNK         0.5038 
     53 O          21.1688  -33.1087  -39.3355 O.2       8 UNK        -0.5046 
     54 N          21.5680  -31.6044  -40.9944 N.am      9 UNK        -0.4200 
     55 CA         21.0063  -32.3623  -42.1277 C.3       9 UNK         0.0839 
     56 C          21.8659  -33.5936  -42.5454 C.2       9 UNK         0.5513 
     57 N          23.1774  -33.5829  -42.3447 N.am      9 UNK        -0.7519 
     58 O          21.3478  -34.5698  -43.0824 O.2       9 UNK        -0.4960 
     59 C59        19.4927  -32.7106  -41.9609 C.3       10 UNK        -0.0876 
     60 S60        18.4285  -31.2541  -41.6603 S.3       10 UNK        -0.2414 
     61 C61        16.9913  -31.5864  -42.7426 C.3       10 UNK         0.0169 
     62 H62        18.3714  -28.1373  -41.6439 H         1 UNK         0.0903 
     63 H63        17.0846  -27.6945  -40.5178 H         1 UNK         0.0903 
     64 H64        16.7171  -28.7000  -41.9151 H         1 UNK         0.0903 
     65 H65        16.6228  -27.7266  -44.0401 H         1 UNK         0.3096 
     66 H66        15.5814  -25.1028  -44.1269 H         1 UNK         0.1121 
     67 H67        16.5170  -26.7870  -46.5098 H         1 UNK         0.0849 
     68 H68        15.3720  -25.4729  -46.5515 H         1 UNK         0.0849 
     69 H69        14.0724  -29.6321  -46.5468 H         1 UNK         0.0865 
     70 H70        15.0900  -28.6540  -47.5659 H         1 UNK         0.0865 
     71 H71        15.1052  -30.1236  -44.0821 H         1 UNK         0.1346 
     72 H72        19.0858  -31.6581  -44.5061 H         1 UNK         0.1412 
     73 H73        17.3894  -29.2620  -47.6125 H         1 UNK         0.1426 
     74 H74        20.1706  -31.5447  -46.6656 H         1 UNK         0.0716 
     75 H75        19.4368  -30.6780  -47.9878 H         1 UNK         0.0716 
     76 H76        22.0356  -30.1522  -44.8060 H         1 UNK         0.0695 
     77 H77        20.4018  -29.7460  -44.3553 H         1 UNK         0.0695 
     78 H78        22.7463  -27.8424  -44.6253 H         1 UNK         0.0983 
     79 H79        20.1060  -27.2048  -45.2255 H         1 UNK         0.3095 
     80 H80        20.0716  -23.7658  -44.4105 H         1 UNK         0.0454 
     81 H81        19.5666  -23.5813  -46.8482 H         1 UNK         0.0851 
     82 H82        20.2143  -25.1949  -47.1355 H         1 UNK         0.0851 
     83 H83        21.2783  -23.8896  -46.6287 H         1 UNK         0.0851 
     84 H84        18.7619  -26.2560  -44.4608 H         1 UNK         0.2976 
     85 H85        20.7659  -26.5947  -42.3399 H         1 UNK         0.3116 
     86 H86        21.0504  -28.2664  -40.0642 H         1 UNK         0.0646 
     87 H87        19.4769  -26.3523  -40.1197 H         1 UNK         0.0847 
     88 H88        20.6039  -26.1615  -38.7901 H         1 UNK         0.0847 
     89 H89        20.8160  -25.2149  -40.2555 H         1 UNK         0.0847 
     90 H90        23.1805  -25.8202  -41.5197 H         1 UNK         0.3040 
     91 H91        25.2422  -25.9091  -39.4975 H         1 UNK         0.1015 
     92 H92        25.2819  -24.9123  -42.4017 H         1 UNK         0.0786 
     93 H93        26.5275  -24.5998  -41.1999 H         1 UNK         0.0786 
     94 H94        24.9174  -23.9370  -40.9778 H         1 UNK         0.0786 
     95 H95        24.4164  -28.0431  -42.1076 H         1 UNK         0.3172 
     96 H96        27.1311  -29.2010  -42.3777 H         1 UNK         0.0595 
     97 H97        24.5315  -29.8447  -43.8686 H         1 UNK         0.0839 
     98 H98        26.1265  -30.4816  -44.2233 H         1 UNK         0.0839 
     99 H99        25.8023  -28.7716  -44.4549 H         1 UNK         0.0839 
    100 H100       26.6059  -29.4842  -39.9157 H         1 UNK         0.2998 
    101 H101       26.3514  -30.7970  -38.1378 H         1 UNK         0.0822 
    102 H102       27.0300  -33.1625  -38.3773 H         1 UNK         0.0787 
    103 H103       26.7387  -33.1109  -40.1101 H         1 UNK         0.0787 
    104 H104       28.0374  -32.1528  -39.3996 H         1 UNK         0.0787 
    105 H105       23.9224  -29.9037  -39.1062 H         1 UNK         0.3055 
    106 H106       21.7307  -30.0635  -38.8943 H         1 UNK         0.1106 
    107 H107       22.2344  -30.6432  -36.5435 H         1 UNK         0.0828 
    108 H108       20.7763  -31.4542  -37.0911 H         1 UNK         0.0828 
    109 H109       22.2734  -32.3590  -36.9462 H         1 UNK         0.0828 
    110 H110       21.9917  -30.7156  -41.2459 H         1 UNK         0.2931 
    111 H111       21.0782  -31.6859  -42.9785 H         1 UNK         0.0412 
    112 H112       23.6555  -32.7681  -41.9719 H         1 UNK         0.3472 
    113 H113       23.7189  -34.3845  -42.6245 H         1 UNK         0.3472 
    114 H114       19.3463  -33.4147  -41.1411 H         1 UNK         0.0970 
    115 H115       19.1306  -33.2310  -42.8484 H         1 UNK         0.0970 
    116 H116       16.8472  -32.6609  -42.8608 H         1 UNK         0.0612 
    117 H117       16.1026  -31.2189  -42.2277 H         1 UNK         0.0612 
@<TRIPOS>BOND
     1    1    2 1    
     2    1   62 1    
     3    1   63 1    
     4    1   64 1    
     5    2    3 2    
     6    2    4 am   BACKBONE|DICT|INTERRES
     7    4    5 1    
     8    4   65 1    
     9    5    6 1    
    10    5   25 1    
    11    5   66 1    
    12    6    7 1    
    13    6   67 1    
    14    6   68 1    
    15    7    8 1    
    16    8    9 1    
    17    8   69 1    
    18    8   70 1    
    19    9   10 ar   
    20    9   14 ar   
    21   10   11 ar   
    22   10   71 1    
    23   11   12 ar   
    24   11   61 1    
    25   12   13 ar   
    26   12   72 1    
    27   13   14 ar   
    28   13   15 1    
    29   14   73 1    
    30   15   16 1    
    31   15   74 1    
    32   15   75 1    
    33   16   17 1    
    34   17   18 1    
    35   17   76 1    
    36   17   77 1    
    37   18   19 1    
    38   18   27 1    
    39   18   78 1    
    40   19   20 am   BACKBONE|DICT|INTERRES
    41   19   79 1    
    42   20   21 2    
    43   20   22 1    
    44   22   23 1    
    45   22   24 1    
    46   22   80 1    
    47   23   81 1    
    48   23   82 1    
    49   23   83 1    
    50   24   25 am   BACKBONE|DICT|INTERRES
    51   24   84 1    
    52   25   26 2    
    53   27   28 2    
    54   27   29 am   BACKBONE|DICT|INTERRES
    55   29   30 1    
    56   29   85 1    
    57   30   31 1    
    58   30   32 1    
    59   30   86 1    
    60   31   87 1    
    61   31   88 1    
    62   31   89 1    
    63   32   33 2    
    64   32   34 am   BACKBONE|DICT|INTERRES
    65   34   35 1    
    66   34   90 1    
    67   35   36 1    
    68   35   37 1    
    69   35   91 1    
    70   36   92 1    
    71   36   93 1    
    72   36   94 1    
    73   37   38 2    
    74   37   39 am   BACKBONE|DICT|INTERRES
    75   39   40 1    
    76   39   95 1    
    77   40   41 1    
    78   40   42 1    
    79   40   96 1    
    80   41   97 1    
    81   41   98 1    
    82   41   99 1    
    83   42   43 2    
    84   42   44 am   BACKBONE|DICT|INTERRES
    85   44   45 1    
    86   44  100 1    
    87   45   46 1    
    88   45   47 1    
    89   45  101 1    
    90   46  102 1    
    91   46  103 1    
    92   46  104 1    
    93   47   48 2    
    94   47   49 am   BACKBONE|DICT|INTERRES
    95   49   50 1    
    96   49  105 1    
    97   50   51 1    
    98   50   52 1    
    99   50  106 1    
   100   51  107 1    
   101   51  108 1    
   102   51  109 1    
   103   52   53 2    
   104   52   54 am   BACKBONE|DICT|INTERRES
   105   54   55 1    
   106   54  110 1    
   107   55   56 1    
   108   55   59 1    
   109   55  111 1    
   110   56   57 am   BACKBONE|DICT|INTERRES
   111   56   58 2    
   112   57  112 1    
   113   57  113 1    
   114   59   60 1    
   115   59  114 1    
   116   59  115 1    
   117   60   61 1    
   118   61  116 1    
   119   61  117 1    
@<TRIPOS>SUBSTRUCTURE
     1 UNK         1 GROUP             0       ****    0 ROOT    
