@<TRIPOS>MOLECULE
3R8
117   119    1
SMALL
USER_CHARGES


@<TRIPOS>ATOM
      1 CA         14.9710  -24.2879  -47.6170 C.3       0 UNK        -0.2013 
      2 C          15.2058  -25.2401  -46.4540 C.2       0 UNK         0.4866 
      3 O          14.5635  -26.2879  -46.3797 O.2       0 UNK        -0.5176 
      4 N          16.1212  -24.8872  -45.5467 N.am      1 UNK        -0.4884 
      5 CA         16.5232  -25.6885  -44.3934 C.3       1 UNK         0.0853 
      6 C6         15.4988  -25.5779  -43.2314 C.3       10 UNK        -0.0849 
      7 S7         15.7841  -26.6687  -41.7917 S.3       10 UNK        -0.2776 
      8 C8         15.5515  -28.3448  -42.4749 C.3       10 UNK         0.0316 
      9 C9         16.8612  -28.9372  -42.9821 C.ar      10 UNK        -0.0863 
     10 C10        17.9028  -29.2015  -42.0880 C.ar      10 UNK        -0.1009 
     11 C11        19.1111  -29.7406  -42.5391 C.ar      10 UNK        -0.0712 
     12 C12        19.2806  -30.0094  -43.9010 C.ar      10 UNK        -0.0894 
     13 C13        18.2455  -29.7502  -44.8050 C.ar      10 UNK        -0.0745 
     14 C14        17.0339  -29.2331  -44.3372 C.ar      10 UNK        -0.0972 
     15 C15        18.4175  -30.0363  -46.2886 C.3       10 UNK         0.0209 
     16 S16        18.9378  -28.5480  -47.2016 S.3       10 UNK        -0.2568 
     17 C17        20.7521  -28.5879  -47.0020 C.3       10 UNK        -0.0983 
     18 CA         21.3163  -27.3254  -46.3050 C.3       3 UNK         0.0876 
     19 N          20.7265  -27.1325  -44.9722 N.am      3 UNK        -0.4424 
     20 C          20.9815  -26.1366  -44.1101 C.2       2 UNK         0.4918 
     21 O          21.8642  -25.2914  -44.2676 O.2       2 UNK        -0.4875 
     22 CA         20.0611  -26.0845  -42.8766 C.3       2 UNK         0.0481 
     23 CB         20.3260  -24.8716  -41.9610 C.3       2 UNK        -0.1831 
     24 N          18.6472  -26.1584  -43.2638 N.am      2 UNK        -0.4498 
     25 C          17.9615  -25.2855  -44.0179 C.2       1 UNK         0.5027 
     26 O          18.4206  -24.2181  -44.4364 O.2       1 UNK        -0.4969 
     27 C          22.8599  -27.3620  -46.3283 C.2       3 UNK         0.5005 
     28 O          23.4572  -26.9453  -47.3224 O.2       3 UNK        -0.5279 
     29 N          23.4722  -27.8428  -45.2403 N.am      4 UNK        -0.4463 
     30 CA         24.9170  -27.8486  -45.0148 C.3       4 UNK         0.0283 
     31 CB         25.4762  -29.2583  -45.2870 C.3       4 UNK        -0.1875 
     32 C          25.2145  -27.3330  -43.5977 C.2       4 UNK         0.4949 
     33 O          26.0606  -27.8968  -42.9033 O.2       4 UNK        -0.5039 
     34 N          24.4852  -26.2820  -43.1897 N.am      5 UNK        -0.4663 
     35 CA         24.4463  -25.6996  -41.8440 C.3       5 UNK         0.0242 
     36 CB         25.8100  -25.0771  -41.4628 C.3       5 UNK        -0.1982 
     37 C          23.8947  -26.7126  -40.8202 C.2       5 UNK         0.5017 
     38 O          22.9705  -27.4611  -41.1513 O.2       5 UNK        -0.5012 
     39 N          24.4580  -26.7327  -39.6051 N.am      6 UNK        -0.4439 
     40 CA         24.1140  -27.6557  -38.5191 C.3       6 UNK         0.0297 
     41 CB         24.5228  -27.0208  -37.1764 C.3       6 UNK        -0.2006 
     42 C          24.7370  -29.0515  -38.7318 C.2       6 UNK         0.4892 
     43 O          25.5048  -29.5256  -37.8918 O.2       6 UNK        -0.5089 
     44 N          24.4091  -29.6713  -39.8700 N.am      7 UNK        -0.4243 
     45 CA         24.8126  -31.0236  -40.2514 C.3       7 UNK         0.0196 
     46 CB         24.6270  -31.1716  -41.7712 C.3       7 UNK        -0.2007 
     47 C          23.9998  -32.0924  -39.5033 C.2       7 UNK         0.5020 
     48 O          22.9642  -31.7882  -38.9074 O.2       7 UNK        -0.5147 
     49 N          24.4412  -33.3521  -39.6060 N.am      8 UNK        -0.4734 
     50 CA         23.7458  -34.5372  -39.0860 C.3       8 UNK         0.0238 
     51 CB         24.7758  -35.6607  -38.8609 C.3       8 UNK        -0.1912 
     52 C          22.5757  -34.9756  -39.9957 C.2       8 UNK         0.5038 
     53 O          22.4821  -36.1485  -40.3636 O.2       8 UNK        -0.5046 
     54 N          21.7229  -34.0151  -40.3653 N.am      9 UNK        -0.4200 
     55 CA         20.5059  -34.1931  -41.1644 C.3       9 UNK         0.0839 
     56 C          19.3739  -34.9335  -40.3979 C.2       9 UNK         0.5513 
     57 N          18.4258  -35.5192  -41.1172 N.am      9 UNK        -0.7519 
     58 O          19.3312  -34.9687  -39.1692 O.2       9 UNK        -0.4960 
     59 C59        20.0307  -32.8433  -41.7695 C.3       10 UNK        -0.0876 
     60 S60        19.8429  -31.5010  -40.5415 S.3       10 UNK        -0.2414 
     61 C61        20.2250  -30.0319  -41.5449 C.3       10 UNK         0.0169 
     62 H62        13.9306  -23.9641  -47.6324 H         1 UNK         0.0903 
     63 H63        15.6011  -23.4010  -47.5514 H         1 UNK         0.0903 
     64 H64        15.1865  -24.7883  -48.5607 H         1 UNK         0.0903 
     65 H65        16.6735  -24.0446  -45.6622 H         1 UNK         0.3096 
     66 H66        16.5664  -26.7187  -44.7368 H         1 UNK         0.1121 
     67 H67        14.4955  -25.7924  -43.6027 H         1 UNK         0.0849 
     68 H68        15.4606  -24.5489  -42.8694 H         1 UNK         0.0849 
     69 H69        15.1583  -28.9911  -41.6888 H         1 UNK         0.0865 
     70 H70        14.7926  -28.3246  -43.2590 H         1 UNK         0.0865 
     71 H71        17.7718  -28.9917  -41.0346 H         1 UNK         0.1346 
     72 H72        20.2129  -30.4274  -44.2554 H         1 UNK         0.1412 
     73 H73        16.2298  -29.0468  -45.0373 H         1 UNK         0.1426 
     74 H74        19.1268  -30.8494  -46.4503 H         1 UNK         0.0716 
     75 H75        17.4695  -30.3823  -46.7034 H         1 UNK         0.0716 
     76 H76        21.1787  -28.6915  -48.0019 H         1 UNK         0.0695 
     77 H77        21.0469  -29.4865  -46.4574 H         1 UNK         0.0695 
     78 H78        21.0238  -26.4549  -46.8961 H         1 UNK         0.0983 
     79 H79        19.9650  -27.7588  -44.7522 H         1 UNK         0.3095 
     80 H80        20.2709  -26.9828  -42.2950 H         1 UNK         0.0454 
     81 H81        19.6404  -24.8582  -41.1140 H         1 UNK         0.0851 
     82 H82        21.3365  -24.9060  -41.5558 H         1 UNK         0.0851 
     83 H83        20.2218  -23.9254  -42.4926 H         1 UNK         0.0851 
     84 H84        18.1577  -26.9888  -42.9517 H         1 UNK         0.2976 
     85 H85        22.9014  -28.1400  -44.4606 H         1 UNK         0.3116 
     86 H86        25.4085  -27.1507  -45.6959 H         1 UNK         0.0646 
     87 H87        25.3057  -29.5554  -46.3217 H         1 UNK         0.0847 
     88 H88        26.5526  -29.2968  -45.1147 H         1 UNK         0.0847 
     89 H89        25.0121  -30.0071  -44.6456 H         1 UNK         0.0847 
     90 H90        23.7812  -25.9198  -43.8255 H         1 UNK         0.3040 
     91 H91        23.7181  -24.8890  -41.8886 H         1 UNK         0.1015 
     92 H92        26.5787  -25.8335  -41.2993 H         1 UNK         0.0786 
     93 H93        25.7338  -24.4774  -40.5550 H         1 UNK         0.0786 
     94 H94        26.1676  -24.4113  -42.2485 H         1 UNK         0.0786 
     95 H95        25.2373  -26.1131  -39.4356 H         1 UNK         0.3172 
     96 H96        23.0299  -27.7887  -38.5034 H         1 UNK         0.0595 
     97 H97        25.5994  -26.8565  -37.1167 H         1 UNK         0.0839 
     98 H98        24.2445  -27.6638  -36.3402 H         1 UNK         0.0839 
     99 H99        24.0270  -26.0622  -37.0225 H         1 UNK         0.0839 
    100 H100       23.7679  -29.1890  -40.4906 H         1 UNK         0.2998 
    101 H101       25.8684  -31.1575  -40.0058 H         1 UNK         0.0822 
    102 H102       24.9449  -32.1548  -42.1202 H         1 UNK         0.0787 
    103 H103       25.2237  -30.4348  -42.3076 H         1 UNK         0.0787 
    104 H104       23.5852  -31.0407  -42.0666 H         1 UNK         0.0787 
    105 H105       25.2774  -33.5276  -40.1455 H         1 UNK         0.3055 
    106 H106       23.3098  -34.2902  -38.1150 H         1 UNK         0.1106 
    107 H107       24.3057  -36.5400  -38.4180 H         1 UNK         0.0828 
    108 H108       25.2414  -35.9757  -39.7956 H         1 UNK         0.0828 
    109 H109       25.5667  -35.3443  -38.1807 H         1 UNK         0.0828 
    110 H110       21.8573  -33.0902  -39.9702 H         1 UNK         0.2931 
    111 H111       20.7795  -34.8382  -42.0019 H         1 UNK         0.0412 
    112 H112       17.6766  -35.9986  -40.6420 H         1 UNK         0.3472 
    113 H113       18.4468  -35.4998  -42.1252 H         1 UNK         0.3472 
    114 H114       20.7549  -32.5255  -42.5207 H         1 UNK         0.0970 
    115 H115       19.0881  -32.9610  -42.3074 H         1 UNK         0.0970 
    116 H116       21.1824  -30.1660  -42.0504 H         1 UNK         0.0612 
    117 H117       20.3506  -29.1756  -40.8804 H         1 UNK         0.0612 
@<TRIPOS>BOND
     1    1    2 1    
     2    1   62 1    
     3    1   63 1    
     4    1   64 1    
     5    2    3 2    
     6    2    4 am   BACKBONE|DICT|INTERRES
     7    4    5 1    
     8    4   65 1    
     9    5    6 1    
    10    5   25 1    
    11    5   66 1    
    12    6    7 1    
    13    6   67 1    
    14    6   68 1    
    15    7    8 1    
    16    8    9 1    
    17    8   69 1    
    18    8   70 1    
    19    9   10 ar   
    20    9   14 ar   
    21   10   11 ar   
    22   10   71 1    
    23   11   12 ar   
    24   11   61 1    
    25   12   13 ar   
    26   12   72 1    
    27   13   14 ar   
    28   13   15 1    
    29   14   73 1    
    30   15   16 1    
    31   15   74 1    
    32   15   75 1    
    33   16   17 1    
    34   17   18 1    
    35   17   76 1    
    36   17   77 1    
    37   18   19 1    
    38   18   27 1    
    39   18   78 1    
    40   19   20 am   BACKBONE|DICT|INTERRES
    41   19   79 1    
    42   20   21 2    
    43   20   22 1    
    44   22   23 1    
    45   22   24 1    
    46   22   80 1    
    47   23   81 1    
    48   23   82 1    
    49   23   83 1    
    50   24   25 am   BACKBONE|DICT|INTERRES
    51   24   84 1    
    52   25   26 2    
    53   27   28 2    
    54   27   29 am   BACKBONE|DICT|INTERRES
    55   29   30 1    
    56   29   85 1    
    57   30   31 1    
    58   30   32 1    
    59   30   86 1    
    60   31   87 1    
    61   31   88 1    
    62   31   89 1    
    63   32   33 2    
    64   32   34 am   BACKBONE|DICT|INTERRES
    65   34   35 1    
    66   34   90 1    
    67   35   36 1    
    68   35   37 1    
    69   35   91 1    
    70   36   92 1    
    71   36   93 1    
    72   36   94 1    
    73   37   38 2    
    74   37   39 am   BACKBONE|DICT|INTERRES
    75   39   40 1    
    76   39   95 1    
    77   40   41 1    
    78   40   42 1    
    79   40   96 1    
    80   41   97 1    
    81   41   98 1    
    82   41   99 1    
    83   42   43 2    
    84   42   44 am   BACKBONE|DICT|INTERRES
    85   44   45 1    
    86   44  100 1    
    87   45   46 1    
    88   45   47 1    
    89   45  101 1    
    90   46  102 1    
    91   46  103 1    
    92   46  104 1    
    93   47   48 2    
    94   47   49 am   BACKBONE|DICT|INTERRES
    95   49   50 1    
    96   49  105 1    
    97   50   51 1    
    98   50   52 1    
    99   50  106 1    
   100   51  107 1    
   101   51  108 1    
   102   51  109 1    
   103   52   53 2    
   104   52   54 am   BACKBONE|DICT|INTERRES
   105   54   55 1    
   106   54  110 1    
   107   55   56 1    
   108   55   59 1    
   109   55  111 1    
   110   56   57 am   BACKBONE|DICT|INTERRES
   111   56   58 2    
   112   57  112 1    
   113   57  113 1    
   114   59   60 1    
   115   59  114 1    
   116   59  115 1    
   117   60   61 1    
   118   61  116 1    
   119   61  117 1    
@<TRIPOS>SUBSTRUCTURE
     1 UNK         1 GROUP             0       ****    0 ROOT    
