@<TRIPOS>MOLECULE
3R8
117   119    1
SMALL
USER_CHARGES


@<TRIPOS>ATOM
      1 CA         14.3070  -25.0756  -47.9106 C.3       0 UNK        -0.2013 
      2 C          14.9733  -25.7267  -46.7077 C.2       0 UNK         0.4866 
      3 O          14.4910  -26.7490  -46.2194 O.2       0 UNK        -0.5176 
      4 N          16.0770  -25.1449  -46.2271 N.am      1 UNK        -0.4884 
      5 CA         16.8730  -25.6514  -45.1111 C.3       1 UNK         0.0853 
      6 C6         16.2224  -25.3533  -43.7293 C.3       10 UNK        -0.0849 
      7 S7         16.9823  -26.2495  -42.3291 S.3       10 UNK        -0.2776 
      8 C8         16.2658  -27.9224  -42.4716 C.3       10 UNK         0.0316 
      9 C9         17.3721  -28.9527  -42.6458 C.ar      10 UNK        -0.0863 
     10 C10        17.9252  -29.6040  -41.5378 C.ar      10 UNK        -0.1009 
     11 C11        19.0065  -30.4779  -41.6952 C.ar      10 UNK        -0.0712 
     12 C12        19.5359  -30.6936  -42.9718 C.ar      10 UNK        -0.0894 
     13 C13        18.9720  -30.0725  -44.0874 C.ar      10 UNK        -0.0745 
     14 C14        17.8760  -29.2250  -43.9187 C.ar      10 UNK        -0.0972 
     15 C15        19.5370  -30.3044  -45.4795 C.3       10 UNK         0.0209 
     16 S16        20.1219  -28.7523  -46.2322 S.3       10 UNK        -0.2568 
     17 C17        21.8142  -28.5716  -45.5679 C.3       10 UNK        -0.0983 
     18 CA         22.0070  -27.5042  -44.4540 C.3       3 UNK         0.0876 
     19 N          21.1806  -26.3000  -44.6436 N.am      3 UNK        -0.4424 
     20 C          21.3778  -25.1142  -44.0500 C.2       2 UNK         0.4918 
     21 O          22.3301  -24.8898  -43.3031 O.2       2 UNK        -0.4875 
     22 CA         20.3071  -24.0222  -44.2300 C.3       2 UNK         0.0481 
     23 CB         20.6577  -23.0780  -45.3963 C.3       2 UNK        -0.1831 
     24 N          18.9273  -24.5314  -44.3089 N.am      2 UNK        -0.4498 
     25 C          18.3258  -25.1790  -45.3167 C.2       1 UNK         0.5027 
     26 O          18.8825  -25.4304  -46.3859 O.2       1 UNK        -0.4969 
     27 C          21.9635  -28.0882  -43.0196 C.2       3 UNK         0.5005 
     28 O          22.7732  -28.9618  -42.6957 O.2       3 UNK        -0.5279 
     29 N          21.1034  -27.5328  -42.1519 N.am      4 UNK        -0.4463 
     30 CA         21.1451  -27.6852  -40.6962 C.3       4 UNK         0.0283 
     31 CB         19.9519  -26.9519  -40.0651 C.3       4 UNK        -0.1875 
     32 C          22.4545  -27.1828  -40.0645 C.2       4 UNK         0.4949 
     33 O          22.8783  -27.7455  -39.0567 O.2       4 UNK        -0.5039 
     34 N          23.0991  -26.1757  -40.6763 N.am      5 UNK        -0.4663 
     35 CA         24.4058  -25.6575  -40.2529 C.3       5 UNK         0.0242 
     36 CB         24.7008  -24.3445  -40.9947 C.3       5 UNK        -0.1982 
     37 C          25.5506  -26.6652  -40.4642 C.2       5 UNK         0.5017 
     38 O          26.5222  -26.6428  -39.7086 O.2       5 UNK        -0.5012 
     39 N          25.4013  -27.5413  -41.4673 N.am      6 UNK        -0.4439 
     40 CA         26.2949  -28.6695  -41.7367 C.3       6 UNK         0.0297 
     41 CB         26.2958  -28.9477  -43.2501 C.3       6 UNK        -0.2006 
     42 C          25.8912  -29.9380  -40.9605 C.2       6 UNK         0.4892 
     43 O          26.6621  -30.8981  -40.9547 O.2       6 UNK        -0.5089 
     44 N          24.6930  -29.9307  -40.3515 N.am      7 UNK        -0.4243 
     45 CA         24.0196  -31.0421  -39.6687 C.3       7 UNK         0.0196 
     46 CB         24.7634  -31.4216  -38.3714 C.3       7 UNK        -0.2007 
     47 C          23.7752  -32.2472  -40.5980 C.2       7 UNK         0.5020 
     48 O          23.8535  -33.3949  -40.1562 O.2       7 UNK        -0.5147 
     49 N          23.4814  -31.9678  -41.8775 N.am      8 UNK        -0.4734 
     50 CA         23.4051  -32.9647  -42.9541 C.3       8 UNK         0.0238 
     51 CB         23.2971  -32.2354  -44.3014 C.3       8 UNK        -0.1912 
     52 C          22.2743  -33.9997  -42.8053 C.2       8 UNK         0.5038 
     53 O          22.3538  -35.0661  -43.4160 O.2       8 UNK        -0.5046 
     54 N          21.2553  -33.6703  -42.0037 N.am      9 UNK        -0.4200 
     55 CA         20.1418  -34.5530  -41.6379 C.3       9 UNK         0.0839 
     56 C          20.4627  -35.5408  -40.4770 C.2       9 UNK         0.5513 
     57 N          21.6234  -35.4674  -39.8334 N.am      9 UNK        -0.7519 
     58 O          19.6468  -36.4052  -40.1672 O.2       9 UNK        -0.4960 
     59 C59        18.8298  -33.7510  -41.4196 C.3       10 UNK        -0.0876 
     60 S60        18.7964  -32.6616  -39.9482 S.3       10 UNK        -0.2414 
     61 C61        19.6449  -31.1396  -40.4819 C.3       10 UNK         0.0169 
     62 H62        14.8344  -24.1783  -48.2340 H         1 UNK         0.0903 
     63 H63        14.2798  -25.7730  -48.7474 H         1 UNK         0.0903 
     64 H64        13.2824  -24.7966  -47.6662 H         1 UNK         0.0903 
     65 H65        16.4660  -24.3369  -46.6959 H         1 UNK         0.3096 
     66 H66        16.9163  -26.7323  -45.2279 H         1 UNK         0.1121 
     67 H67        16.2427  -24.2827  -43.5184 H         1 UNK         0.0849 
     68 H68        15.1641  -25.6178  -43.7496 H         1 UNK         0.0849 
     69 H69        15.6831  -28.1398  -41.5752 H         1 UNK         0.0865 
     70 H70        15.5683  -27.9757  -43.3092 H         1 UNK         0.0865 
     71 H71        17.5363  -29.4070  -40.5481 H         1 UNK         0.1346 
     72 H72        20.3889  -31.3419  -43.0993 H         1 UNK         0.1412 
     73 H73        17.4402  -28.7574  -44.7875 H         1 UNK         0.1426 
     74 H74        20.3386  -31.0434  -45.4724 H         1 UNK         0.0716 
     75 H75        18.7481  -30.7187  -46.1086 H         1 UNK         0.0716 
     76 H76        22.2026  -29.5440  -45.2662 H         1 UNK         0.0695 
     77 H77        22.4320  -28.2849  -46.4203 H         1 UNK         0.0695 
     78 H78        23.0408  -27.1645  -44.5509 H         1 UNK         0.0983 
     79 H79        20.3916  -26.3979  -45.2732 H         1 UNK         0.3095 
     80 H80        20.3311  -23.4221  -43.3189 H         1 UNK         0.0454 
     81 H81        20.7265  -23.6045  -46.3483 H         1 UNK         0.0851 
     82 H82        19.9177  -22.2849  -45.5023 H         1 UNK         0.0851 
     83 H83        21.6229  -22.5991  -45.2268 H         1 UNK         0.0851 
     84 H84        18.3889  -24.4272  -43.4581 H         1 UNK         0.2976 
     85 H85        20.4480  -26.8567  -42.5140 H         1 UNK         0.3116 
     86 H86        21.0659  -28.7481  -40.4720 H         1 UNK         0.0646 
     87 H87        19.9522  -27.0672  -38.9803 H         1 UNK         0.0847 
     88 H88        19.0037  -27.3439  -40.4260 H         1 UNK         0.0847 
     89 H89        19.9734  -25.8827  -40.2794 H         1 UNK         0.0847 
     90 H90        22.6947  -25.7582  -41.5093 H         1 UNK         0.3040 
     91 H91        24.3530  -25.4427  -39.1830 H         1 UNK         0.1015 
     92 H92        23.9209  -23.6038  -40.8172 H         1 UNK         0.0786 
     93 H93        24.7781  -24.4974  -42.0720 H         1 UNK         0.0786 
     94 H94        25.6433  -23.9098  -40.6588 H         1 UNK         0.0786 
     95 H95        24.5570  -27.4949  -42.0210 H         1 UNK         0.3172 
     96 H96        27.3123  -28.4085  -41.4379 H         1 UNK         0.0595 
     97 H97        26.9850  -29.7563  -43.4975 H         1 UNK         0.0839 
     98 H98        26.6124  -28.0710  -43.8152 H         1 UNK         0.0839 
     99 H99        25.3095  -29.2421  -43.6103 H         1 UNK         0.0839 
    100 H100       24.1537  -29.0771  -40.4040 H         1 UNK         0.2998 
    101 H101       23.0328  -30.6722  -39.3863 H         1 UNK         0.0822 
    102 H102       24.9095  -30.5517  -37.7309 H         1 UNK         0.0787 
    103 H103       24.1973  -32.1551  -37.7960 H         1 UNK         0.0787 
    104 H104       25.7422  -31.8558  -38.5776 H         1 UNK         0.0787 
    105 H105       23.4082  -30.9930  -42.1516 H         1 UNK         0.3055 
    106 H106       24.3434  -33.5240  -42.9452 H         1 UNK         0.1106 
    107 H107       23.2932  -32.9426  -45.1320 H         1 UNK         0.0828 
    108 H108       22.3797  -31.6536  -44.3645 H         1 UNK         0.0828 
    109 H109       24.1369  -31.5579  -44.4575 H         1 UNK         0.0828 
    110 H110       21.3082  -32.7968  -41.5054 H         1 UNK         0.2931 
    111 H111       19.9517  -35.1953  -42.5001 H         1 UNK         0.0412 
    112 H112       21.8130  -36.1210  -39.0903 H         1 UNK         0.3472 
    113 H113       22.3150  -34.7655  -40.0711 H         1 UNK         0.3472 
    114 H114       17.9972  -34.4493  -41.3174 H         1 UNK         0.0970 
    115 H115       18.5909  -33.1724  -42.3114 H         1 UNK         0.0970 
    116 H116       20.6977  -31.3469  -40.6691 H         1 UNK         0.0612 
    117 H117       19.6292  -30.4417  -39.6437 H         1 UNK         0.0612 
@<TRIPOS>BOND
     1    1    2 1    
     2    1   62 1    
     3    1   63 1    
     4    1   64 1    
     5    2    3 2    
     6    2    4 am   BACKBONE|DICT|INTERRES
     7    4    5 1    
     8    4   65 1    
     9    5    6 1    
    10    5   25 1    
    11    5   66 1    
    12    6    7 1    
    13    6   67 1    
    14    6   68 1    
    15    7    8 1    
    16    8    9 1    
    17    8   69 1    
    18    8   70 1    
    19    9   10 ar   
    20    9   14 ar   
    21   10   11 ar   
    22   10   71 1    
    23   11   12 ar   
    24   11   61 1    
    25   12   13 ar   
    26   12   72 1    
    27   13   14 ar   
    28   13   15 1    
    29   14   73 1    
    30   15   16 1    
    31   15   74 1    
    32   15   75 1    
    33   16   17 1    
    34   17   18 1    
    35   17   76 1    
    36   17   77 1    
    37   18   19 1    
    38   18   27 1    
    39   18   78 1    
    40   19   20 am   BACKBONE|DICT|INTERRES
    41   19   79 1    
    42   20   21 2    
    43   20   22 1    
    44   22   23 1    
    45   22   24 1    
    46   22   80 1    
    47   23   81 1    
    48   23   82 1    
    49   23   83 1    
    50   24   25 am   BACKBONE|DICT|INTERRES
    51   24   84 1    
    52   25   26 2    
    53   27   28 2    
    54   27   29 am   BACKBONE|DICT|INTERRES
    55   29   30 1    
    56   29   85 1    
    57   30   31 1    
    58   30   32 1    
    59   30   86 1    
    60   31   87 1    
    61   31   88 1    
    62   31   89 1    
    63   32   33 2    
    64   32   34 am   BACKBONE|DICT|INTERRES
    65   34   35 1    
    66   34   90 1    
    67   35   36 1    
    68   35   37 1    
    69   35   91 1    
    70   36   92 1    
    71   36   93 1    
    72   36   94 1    
    73   37   38 2    
    74   37   39 am   BACKBONE|DICT|INTERRES
    75   39   40 1    
    76   39   95 1    
    77   40   41 1    
    78   40   42 1    
    79   40   96 1    
    80   41   97 1    
    81   41   98 1    
    82   41   99 1    
    83   42   43 2    
    84   42   44 am   BACKBONE|DICT|INTERRES
    85   44   45 1    
    86   44  100 1    
    87   45   46 1    
    88   45   47 1    
    89   45  101 1    
    90   46  102 1    
    91   46  103 1    
    92   46  104 1    
    93   47   48 2    
    94   47   49 am   BACKBONE|DICT|INTERRES
    95   49   50 1    
    96   49  105 1    
    97   50   51 1    
    98   50   52 1    
    99   50  106 1    
   100   51  107 1    
   101   51  108 1    
   102   51  109 1    
   103   52   53 2    
   104   52   54 am   BACKBONE|DICT|INTERRES
   105   54   55 1    
   106   54  110 1    
   107   55   56 1    
   108   55   59 1    
   109   55  111 1    
   110   56   57 am   BACKBONE|DICT|INTERRES
   111   56   58 2    
   112   57  112 1    
   113   57  113 1    
   114   59   60 1    
   115   59  114 1    
   116   59  115 1    
   117   60   61 1    
   118   61  116 1    
   119   61  117 1    
@<TRIPOS>SUBSTRUCTURE
     1 UNK         1 GROUP             0       ****    0 ROOT    
