@<TRIPOS>MOLECULE
3R8
117   119    1
SMALL
USER_CHARGES


@<TRIPOS>ATOM
      1 CA         21.3259  -29.8093  -43.9607 C.3       0 UNK        -0.2013 
      2 C          20.8530  -28.6384  -43.1224 C.2       0 UNK         0.4866 
      3 O          21.6170  -27.6896  -42.9635 O.2       0 UNK        -0.5176 
      4 N          19.6080  -28.6877  -42.6205 N.am      1 UNK        -0.4884 
      5 CA         18.9962  -27.7771  -41.6332 C.3       1 UNK         0.0853 
      6 C6         17.4720  -28.0168  -41.4861 C.3       10 UNK        -0.0849 
      7 S7         17.0426  -29.7497  -41.1123 S.3       10 UNK        -0.2776 
      8 C8         16.1014  -30.2333  -42.5991 C.3       10 UNK         0.0316 
      9 C9         17.0087  -30.6711  -43.7412 C.ar      10 UNK        -0.0863 
     10 C10        17.7522  -31.8443  -43.6100 C.ar      10 UNK        -0.1009 
     11 C11        18.5588  -32.3041  -44.6509 C.ar      10 UNK        -0.0712 
     12 C12        18.6131  -31.5799  -45.8469 C.ar      10 UNK        -0.0894 
     13 C13        17.8732  -30.4001  -45.9984 C.ar      10 UNK        -0.0745 
     14 C14        17.0729  -29.9504  -44.9389 C.ar      10 UNK        -0.0972 
     15 C15        17.8807  -29.6625  -47.3351 C.3       10 UNK         0.0209 
     16 S16        18.2871  -27.8906  -47.1965 S.3       10 UNK        -0.2568 
     17 C17        20.1096  -27.9164  -47.0989 C.3       10 UNK        -0.0983 
     18 CA         20.6893  -26.5375  -46.6858 C.3       3 UNK         0.0876 
     19 N          20.1097  -26.0749  -45.4240 N.am      3 UNK        -0.4424 
     20 C          20.0453  -24.8059  -44.9986 C.2       2 UNK         0.4918 
     21 O          20.5433  -23.8567  -45.6034 O.2       2 UNK        -0.4875 
     22 CA         19.2772  -24.5522  -43.6866 C.3       2 UNK         0.0481 
     23 CB         18.0350  -23.6826  -43.9435 C.3       2 UNK        -0.1831 
     24 N          18.8562  -25.8169  -43.0761 N.am      2 UNK        -0.4498 
     25 C          19.2799  -26.2835  -41.8957 C.2       1 UNK         0.5027 
     26 O          19.9108  -25.6223  -41.0699 O.2       1 UNK        -0.4969 
     27 C          22.2325  -26.5636  -46.6479 C.2       3 UNK         0.5005 
     28 O          22.8583  -26.4909  -47.7068 O.2       3 UNK        -0.5279 
     29 N          22.8172  -26.6572  -45.4454 N.am      4 UNK        -0.4463 
     30 CA         24.2609  -26.6321  -45.2008 C.3       4 UNK         0.0283 
     31 CB         24.8114  -28.0689  -45.1697 C.3       4 UNK        -0.1875 
     32 C          24.6092  -25.8903  -43.9013 C.2       4 UNK         0.4949 
     33 O          25.6727  -25.2758  -43.8348 O.2       4 UNK        -0.5039 
     34 N          23.7278  -25.9776  -42.8920 N.am      5 UNK        -0.4663 
     35 CA         23.8211  -25.4130  -41.5378 C.3       5 UNK         0.0242 
     36 CB         23.9855  -23.8789  -41.5706 C.3       5 UNK        -0.1982 
     37 C          24.8650  -26.1011  -40.6345 C.2       5 UNK         0.5017 
     38 O          25.0796  -25.6457  -39.5103 O.2       5 UNK        -0.5012 
     39 N          25.4787  -27.1901  -41.1188 N.am      6 UNK        -0.4439 
     40 CA         26.4532  -28.0030  -40.3890 C.3       6 UNK         0.0297 
     41 CB         27.2499  -28.8615  -41.3853 C.3       6 UNK        -0.2006 
     42 C          25.7957  -28.8869  -39.3163 C.2       6 UNK         0.4892 
     43 O          26.3464  -29.0194  -38.2228 O.2       6 UNK        -0.5089 
     44 N          24.6337  -29.4638  -39.6448 N.am      7 UNK        -0.4243 
     45 CA         23.8203  -30.3145  -38.7823 C.3       7 UNK         0.0196 
     46 CB         24.4709  -31.7020  -38.6158 C.3       7 UNK        -0.2007 
     47 C          22.4338  -30.4488  -39.4170 C.2       7 UNK         0.5020 
     48 O          22.3164  -30.3858  -40.6424 O.2       7 UNK        -0.5147 
     49 N          21.4133  -30.6594  -38.5806 N.am      8 UNK        -0.4734 
     50 CA         20.0399  -30.9140  -39.0093 C.3       8 UNK         0.0238 
     51 CB         19.0697  -30.3536  -37.9532 C.3       8 UNK        -0.1912 
     52 C          19.8468  -32.4215  -39.2321 C.2       8 UNK         0.5038 
     53 O          19.4990  -33.1379  -38.2917 O.2       8 UNK        -0.5046 
     54 N          20.1036  -32.8761  -40.4633 N.am      9 UNK        -0.4200 
     55 CA         19.9412  -34.2675  -40.9232 C.3       9 UNK         0.0839 
     56 C          18.4729  -34.7827  -41.0408 C.2       9 UNK         0.5513 
     57 N          17.4536  -34.0120  -40.6820 N.am      9 UNK        -0.7519 
     58 O          18.2526  -35.9190  -41.4513 O.2       9 UNK        -0.4960 
     59 C59        20.7968  -34.5714  -42.1915 C.3       10 UNK        -0.0876 
     60 S60        20.8414  -33.2456  -43.4487 S.3       10 UNK        -0.2414 
     61 C61        19.3691  -33.5782  -44.4632 C.3       10 UNK         0.0169 
     62 H62        20.4906  -30.3790  -44.3540 H         1 UNK         0.0903 
     63 H63        21.9301  -29.4677  -44.7995 H         1 UNK         0.0903 
     64 H64        21.9431  -30.4701  -43.3535 H         1 UNK         0.0903 
     65 H65        19.0363  -29.4936  -42.8390 H         1 UNK         0.3096 
     66 H66        19.4653  -28.0132  -40.6758 H         1 UNK         0.1121 
     67 H67        16.9414  -27.7048  -42.3870 H         1 UNK         0.0849 
     68 H68        17.0717  -27.4018  -40.6775 H         1 UNK         0.0849 
     69 H69        15.4494  -31.0678  -42.3362 H         1 UNK         0.0865 
     70 H70        15.4372  -29.4242  -42.9064 H         1 UNK         0.0865 
     71 H71        17.7020  -32.4032  -42.6891 H         1 UNK         0.1346 
     72 H72        19.2284  -31.9392  -46.6604 H         1 UNK         0.1412 
     73 H73        16.4823  -29.0525  -45.0604 H         1 UNK         0.1426 
     74 H74        16.8878  -29.7523  -47.7776 H         1 UNK         0.0716 
     75 H75        18.5698  -30.1307  -48.0399 H         1 UNK         0.0716 
     76 H76        20.4973  -28.2170  -48.0741 H         1 UNK         0.0695 
     77 H77        20.4070  -28.6938  -46.3961 H         1 UNK         0.0695 
     78 H78        20.4125  -25.8163  -47.4585 H         1 UNK         0.0983 
     79 H79        19.6878  -26.7899  -44.8546 H         1 UNK         0.3095 
     80 H80        19.9514  -24.0082  -43.0221 H         1 UNK         0.0454 
     81 H81        18.3127  -22.7210  -44.3771 H         1 UNK         0.0851 
     82 H82        17.4995  -23.4755  -43.0170 H         1 UNK         0.0851 
     83 H83        17.3397  -24.1630  -44.6329 H         1 UNK         0.0851 
     84 H84        18.2917  -26.4241  -43.6526 H         1 UNK         0.2976 
     85 H85        22.2220  -26.7204  -44.6276 H         1 UNK         0.3116 
     86 H86        24.7536  -26.0899  -46.0109 H         1 UNK         0.0646 
     87 H87        24.6422  -28.5775  -46.1188 H         1 UNK         0.0847 
     88 H88        24.3450  -28.6640  -44.3837 H         1 UNK         0.0847 
     89 H89        25.8873  -28.0721  -44.9893 H         1 UNK         0.0847 
     90 H90        22.9205  -26.5927  -43.0055 H         1 UNK         0.3040 
     91 H91        22.8556  -25.6230  -41.0734 H         1 UNK         0.1015 
     92 H92        23.8790  -23.4542  -40.5717 H         1 UNK         0.0786 
     93 H93        23.2280  -23.4131  -42.2009 H         1 UNK         0.0786 
     94 H94        24.9656  -23.5809  -41.9435 H         1 UNK         0.0786 
     95 H95        25.2446  -27.4778  -42.0567 H         1 UNK         0.3172 
     96 H96        27.1528  -27.3310  -39.8870 H         1 UNK         0.0595 
     97 H97        26.6073  -29.5494  -41.9364 H         1 UNK         0.0839 
     98 H98        28.0001  -29.4614  -40.8679 H         1 UNK         0.0839 
     99 H99        27.7777  -28.2411  -42.1101 H         1 UNK         0.0839 
    100 H100       24.2247  -29.2952  -40.5557 H         1 UNK         0.2998 
    101 H101       23.7193  -29.8325  -37.8074 H         1 UNK         0.0822 
    102 H102       24.6129  -32.1953  -39.5783 H         1 UNK         0.0787 
    103 H103       25.4434  -31.6346  -38.1282 H         1 UNK         0.0787 
    104 H104       23.8496  -32.3558  -38.0024 H         1 UNK         0.0787 
    105 H105       21.5989  -30.7457  -37.5910 H         1 UNK         0.3055 
    106 H106       19.8394  -30.3977  -39.9510 H         1 UNK         0.1106 
    107 H107       19.2374  -30.7916  -36.9685 H         1 UNK         0.0828 
    108 H108       18.0343  -30.5588  -38.2284 H         1 UNK         0.0828 
    109 H109       19.1696  -29.2721  -37.8603 H         1 UNK         0.0828 
    110 H110       20.4303  -32.2280  -41.1669 H         1 UNK         0.2931 
    111 H111       20.3612  -34.8898  -40.1304 H         1 UNK         0.0412 
    112 H112       16.5159  -34.3742  -40.7544 H         1 UNK         0.3472 
    113 H113       17.6127  -33.0960  -40.2962 H         1 UNK         0.3472 
    114 H114       20.5163  -35.5148  -42.6637 H         1 UNK         0.0970 
    115 H115       21.8305  -34.7197  -41.8757 H         1 UNK         0.0970 
    116 H116       18.7452  -34.3411  -43.9962 H         1 UNK         0.0612 
    117 H117       19.6834  -33.9837  -45.4259 H         1 UNK         0.0612 
@<TRIPOS>BOND
     1    1    2 1    
     2    1   62 1    
     3    1   63 1    
     4    1   64 1    
     5    2    3 2    
     6    2    4 am   BACKBONE|DICT|INTERRES
     7    4    5 1    
     8    4   65 1    
     9    5    6 1    
    10    5   25 1    
    11    5   66 1    
    12    6    7 1    
    13    6   67 1    
    14    6   68 1    
    15    7    8 1    
    16    8    9 1    
    17    8   69 1    
    18    8   70 1    
    19    9   10 ar   
    20    9   14 ar   
    21   10   11 ar   
    22   10   71 1    
    23   11   12 ar   
    24   11   61 1    
    25   12   13 ar   
    26   12   72 1    
    27   13   14 ar   
    28   13   15 1    
    29   14   73 1    
    30   15   16 1    
    31   15   74 1    
    32   15   75 1    
    33   16   17 1    
    34   17   18 1    
    35   17   76 1    
    36   17   77 1    
    37   18   19 1    
    38   18   27 1    
    39   18   78 1    
    40   19   20 am   BACKBONE|DICT|INTERRES
    41   19   79 1    
    42   20   21 2    
    43   20   22 1    
    44   22   23 1    
    45   22   24 1    
    46   22   80 1    
    47   23   81 1    
    48   23   82 1    
    49   23   83 1    
    50   24   25 am   BACKBONE|DICT|INTERRES
    51   24   84 1    
    52   25   26 2    
    53   27   28 2    
    54   27   29 am   BACKBONE|DICT|INTERRES
    55   29   30 1    
    56   29   85 1    
    57   30   31 1    
    58   30   32 1    
    59   30   86 1    
    60   31   87 1    
    61   31   88 1    
    62   31   89 1    
    63   32   33 2    
    64   32   34 am   BACKBONE|DICT|INTERRES
    65   34   35 1    
    66   34   90 1    
    67   35   36 1    
    68   35   37 1    
    69   35   91 1    
    70   36   92 1    
    71   36   93 1    
    72   36   94 1    
    73   37   38 2    
    74   37   39 am   BACKBONE|DICT|INTERRES
    75   39   40 1    
    76   39   95 1    
    77   40   41 1    
    78   40   42 1    
    79   40   96 1    
    80   41   97 1    
    81   41   98 1    
    82   41   99 1    
    83   42   43 2    
    84   42   44 am   BACKBONE|DICT|INTERRES
    85   44   45 1    
    86   44  100 1    
    87   45   46 1    
    88   45   47 1    
    89   45  101 1    
    90   46  102 1    
    91   46  103 1    
    92   46  104 1    
    93   47   48 2    
    94   47   49 am   BACKBONE|DICT|INTERRES
    95   49   50 1    
    96   49  105 1    
    97   50   51 1    
    98   50   52 1    
    99   50  106 1    
   100   51  107 1    
   101   51  108 1    
   102   51  109 1    
   103   52   53 2    
   104   52   54 am   BACKBONE|DICT|INTERRES
   105   54   55 1    
   106   54  110 1    
   107   55   56 1    
   108   55   59 1    
   109   55  111 1    
   110   56   57 am   BACKBONE|DICT|INTERRES
   111   56   58 2    
   112   57  112 1    
   113   57  113 1    
   114   59   60 1    
   115   59  114 1    
   116   59  115 1    
   117   60   61 1    
   118   61  116 1    
   119   61  117 1    
@<TRIPOS>SUBSTRUCTURE
     1 UNK         1 GROUP             0       ****    0 ROOT    
