@<TRIPOS>MOLECULE
3R8
117   119    1
SMALL
USER_CHARGES


@<TRIPOS>ATOM
      1 CA         15.7686  -22.1102  -42.5479 C.3       0 UNK        -0.2013 
      2 C          16.4505  -22.8190  -43.7085 C.2       0 UNK         0.4866 
      3 O          17.1267  -22.1729  -44.5096 O.2       0 UNK        -0.5176 
      4 N          16.2708  -24.1411  -43.8113 N.am      1 UNK        -0.4884 
      5 CA         16.9063  -25.0074  -44.8074 C.3       1 UNK         0.0853 
      6 C6         16.1987  -26.3843  -44.9319 C.3       10 UNK        -0.0849 
      7 S7         15.6955  -27.1490  -43.3454 S.3       10 UNK        -0.2776 
      8 C8         14.9227  -28.7024  -43.9045 C.3       10 UNK         0.0316 
      9 C9         15.9651  -29.7840  -44.1434 C.ar      10 UNK        -0.0863 
     10 C10        16.2757  -30.7059  -43.1395 C.ar      10 UNK        -0.1009 
     11 C11        17.2632  -31.6781  -43.3343 C.ar      10 UNK        -0.0712 
     12 C12        17.9484  -31.7104  -44.5589 C.ar      10 UNK        -0.0894 
     13 C13        17.6419  -30.7966  -45.5707 C.ar      10 UNK        -0.0745 
     14 C14        16.6314  -29.8564  -45.3663 C.ar      10 UNK        -0.0972 
     15 C15        18.3877  -30.8161  -46.8946 C.3       10 UNK         0.0209 
     16 S16        19.3119  -29.2688  -47.1613 S.3       10 UNK        -0.2568 
     17 C17        20.8985  -29.5877  -46.3084 C.3       10 UNK        -0.0983 
     18 CA         21.3304  -28.5323  -45.2462 C.3       3 UNK         0.0876 
     19 N          20.8334  -27.1816  -45.5262 N.am      3 UNK        -0.4424 
     20 C          21.4174  -26.0500  -45.1136 C.2       2 UNK         0.4918 
     21 O          22.4754  -26.0155  -44.4869 O.2       2 UNK        -0.4875 
     22 CA         20.7041  -24.7298  -45.4527 C.3       2 UNK         0.0481 
     23 CB         21.2625  -24.1449  -46.7597 C.3       2 UNK        -0.1831 
     24 N          19.2421  -24.8261  -45.5502 N.am      2 UNK        -0.4498 
     25 C          18.4211  -25.1381  -44.5358 C.2       1 UNK         0.5027 
     26 O          18.8163  -25.5074  -43.4285 O.2       1 UNK        -0.4969 
     27 C          21.0801  -28.9869  -43.7918 C.2       3 UNK         0.5005 
     28 O          21.7533  -29.9164  -43.3469 O.2       3 UNK        -0.5279 
     29 N          20.1926  -28.3116  -43.0450 N.am      4 UNK        -0.4463 
     30 CA         19.9749  -28.5347  -41.6121 C.3       4 UNK         0.0283 
     31 CB         18.5019  -28.2562  -41.2704 C.3       4 UNK        -0.1875 
     32 C          20.9469  -27.6850  -40.7719 C.2       4 UNK         0.4949 
     33 O          20.5151  -26.9152  -39.9119 O.2       4 UNK        -0.5039 
     34 N          22.2472  -27.8217  -41.0475 N.am      5 UNK        -0.4663 
     35 CA         23.3380  -27.0989  -40.4002 C.3       5 UNK         0.0242 
     36 CB         23.4896  -25.7048  -41.0381 C.3       5 UNK        -0.1982 
     37 C          24.6303  -27.9116  -40.5382 C.2       5 UNK         0.5017 
     38 O          24.6742  -28.8666  -41.3182 O.2       5 UNK        -0.5012 
     39 N          25.6583  -27.5217  -39.7686 N.am      6 UNK        -0.4439 
     40 CA         27.0258  -28.0709  -39.7656 C.3       6 UNK         0.0297 
     41 CB         27.7524  -27.6859  -41.0723 C.3       6 UNK        -0.2006 
     42 C          27.1089  -29.5871  -39.4807 C.2       6 UNK         0.4892 
     43 O          28.0633  -30.2369  -39.9103 O.2       6 UNK        -0.5089 
     44 N          26.0939  -30.1193  -38.7820 N.am      7 UNK        -0.4243 
     45 CA         25.8460  -31.5377  -38.4946 C.3       7 UNK         0.0196 
     46 CB         26.9484  -32.1191  -37.5830 C.3       7 UNK        -0.2007 
     47 C          25.5970  -32.4063  -39.7481 C.2       7 UNK         0.5020 
     48 O          25.6802  -33.6317  -39.6520 O.2       7 UNK        -0.5147 
     49 N          25.2727  -31.7860  -40.8941 N.am      8 UNK        -0.4734 
     50 CA         24.9472  -32.4868  -42.1417 C.3       8 UNK         0.0238 
     51 CB         25.0919  -31.5197  -43.3277 C.3       8 UNK        -0.1912 
     52 C          23.5403  -33.1081  -42.1186 C.2       8 UNK         0.5038 
     53 O          23.3179  -34.1243  -42.7779 O.2       8 UNK        -0.5046 
     54 N          22.6317  -32.4984  -41.3516 N.am      9 UNK        -0.4200 
     55 CA         21.2549  -32.9319  -41.1137 C.3       9 UNK         0.0839 
     56 C          20.7137  -32.2537  -39.8282 C.2       9 UNK         0.5513 
     57 N          19.6846  -32.8182  -39.2139 N.am      9 UNK        -0.7519 
     58 O          21.2129  -31.2201  -39.3854 O.2       9 UNK        -0.4960 
     59 C59        20.3480  -32.6915  -42.3517 C.3       10 UNK        -0.0876 
     60 S60        18.9221  -33.8249  -42.4292 S.3       10 UNK        -0.2414 
     61 C61        17.5369  -32.6578  -42.1884 C.3       10 UNK         0.0169 
     62 H62        16.5122  -21.6261  -41.9154 H         1 UNK         0.0903 
     63 H63        15.0888  -21.3451  -42.9222 H         1 UNK         0.0903 
     64 H64        15.1949  -22.8003  -41.9294 H         1 UNK         0.0903 
     65 H65        15.7338  -24.6340  -43.1105 H         1 UNK         0.3096 
     66 H66        16.7935  -24.5091  -45.7733 H         1 UNK         0.1121 
     67 H67        15.2946  -26.2616  -45.5305 H         1 UNK         0.0849 
     68 H68        16.8269  -27.0787  -45.4895 H         1 UNK         0.0849 
     69 H69        14.2122  -29.0329  -43.1452 H         1 UNK         0.0865 
     70 H70        14.3377  -28.5273  -44.8088 H         1 UNK         0.0865 
     71 H71        15.7534  -30.6582  -42.1934 H         1 UNK         0.1346 
     72 H72        18.7203  -32.4435  -44.7401 H         1 UNK         0.1412 
     73 H73        16.3845  -29.1639  -46.1585 H         1 UNK         0.1426 
     74 H74        17.6632  -30.9324  -47.7018 H         1 UNK         0.0716 
     75 H75        19.0609  -31.6719  -46.9646 H         1 UNK         0.0716 
     76 H76        21.6558  -29.6147  -47.0933 H         1 UNK         0.0695 
     77 H77        20.8990  -30.5965  -45.8905 H         1 UNK         0.0695 
     78 H78        22.4200  -28.4784  -45.3132 H         1 UNK         0.0983 
     79 H79        19.9769  -27.1313  -46.0590 H         1 UNK         0.3095 
     80 H80        20.9290  -24.0276  -44.6472 H         1 UNK         0.0454 
     81 H81        22.3467  -24.0351  -46.7066 H         1 UNK         0.0851 
     82 H82        20.8504  -23.1561  -46.9617 H         1 UNK         0.0851 
     83 H83        21.0423  -24.7837  -47.6160 H         1 UNK         0.0851 
     84 H84        18.8367  -24.5341  -46.4283 H         1 UNK         0.2976 
     85 H85        19.7289  -27.5022  -43.4411 H         1 UNK         0.3116 
     86 H86        20.1712  -29.5790  -41.3682 H         1 UNK         0.0646 
     87 H87        18.2374  -27.2112  -41.4345 H         1 UNK         0.0847 
     88 H88        17.8361  -28.8666  -41.8764 H         1 UNK         0.0847 
     89 H89        18.2922  -28.4871  -40.2255 H         1 UNK         0.0847 
     90 H90        22.5400  -28.5125  -41.7322 H         1 UNK         0.3040 
     91 H91        23.1135  -26.9953  -39.3362 H         1 UNK         0.1015 
     92 H92        24.2721  -25.1254  -40.5470 H         1 UNK         0.0786 
     93 H93        22.5677  -25.1278  -40.9622 H         1 UNK         0.0786 
     94 H94        23.7508  -25.7757  -42.0947 H         1 UNK         0.0786 
     95 H95        25.5093  -26.7406  -39.1435 H         1 UNK         0.3172 
     96 H96        27.5483  -27.5832  -38.9414 H         1 UNK         0.0595 
     97 H97        27.3189  -28.1896  -41.9372 H         1 UNK         0.0839 
     98 H98        28.8077  -27.9589  -41.0324 H         1 UNK         0.0839 
     99 H99        27.7058  -26.6119  -41.2518 H         1 UNK         0.0839 
    100 H100       25.3677  -29.4850  -38.4802 H         1 UNK         0.2998 
    101 H101       24.9115  -31.5661  -37.9320 H         1 UNK         0.0822 
    102 H102       26.6825  -33.1176  -37.2336 H         1 UNK         0.0787 
    103 H103       27.1006  -31.4998  -36.6991 H         1 UNK         0.0787 
    104 H104       27.9029  -32.2030  -38.1033 H         1 UNK         0.0787 
    105 H105       25.2128  -30.7717  -40.9143 H         1 UNK         0.3055 
    106 H106       25.6631  -33.3007  -42.2783 H         1 UNK         0.1106 
    107 H107       26.0931  -31.0911  -43.3722 H         1 UNK         0.0828 
    108 H108       24.9145  -32.0338  -44.2732 H         1 UNK         0.0828 
    109 H109       24.3780  -30.6975  -43.2679 H         1 UNK         0.0828 
    110 H110       22.8999  -31.6704  -40.8367 H         1 UNK         0.2931 
    111 H111       21.3053  -34.0037  -40.9107 H         1 UNK         0.0412 
    112 H112       19.3189  -32.3944  -38.3757 H         1 UNK         0.3472 
    113 H113       19.2637  -33.6585  -39.5794 H         1 UNK         0.3472 
    114 H114       20.0118  -31.6557  -42.3962 H         1 UNK         0.0970 
    115 H115       20.9114  -32.8462  -43.2727 H         1 UNK         0.0970 
    116 H116       16.6334  -33.2447  -42.0181 H         1 UNK         0.0612 
    117 H117       17.7143  -32.0933  -41.2717 H         1 UNK         0.0612 
@<TRIPOS>BOND
     1    1    2 1    
     2    1   62 1    
     3    1   63 1    
     4    1   64 1    
     5    2    3 2    
     6    2    4 am   BACKBONE|DICT|INTERRES
     7    4    5 1    
     8    4   65 1    
     9    5    6 1    
    10    5   25 1    
    11    5   66 1    
    12    6    7 1    
    13    6   67 1    
    14    6   68 1    
    15    7    8 1    
    16    8    9 1    
    17    8   69 1    
    18    8   70 1    
    19    9   10 ar   
    20    9   14 ar   
    21   10   11 ar   
    22   10   71 1    
    23   11   12 ar   
    24   11   61 1    
    25   12   13 ar   
    26   12   72 1    
    27   13   14 ar   
    28   13   15 1    
    29   14   73 1    
    30   15   16 1    
    31   15   74 1    
    32   15   75 1    
    33   16   17 1    
    34   17   18 1    
    35   17   76 1    
    36   17   77 1    
    37   18   19 1    
    38   18   27 1    
    39   18   78 1    
    40   19   20 am   BACKBONE|DICT|INTERRES
    41   19   79 1    
    42   20   21 2    
    43   20   22 1    
    44   22   23 1    
    45   22   24 1    
    46   22   80 1    
    47   23   81 1    
    48   23   82 1    
    49   23   83 1    
    50   24   25 am   BACKBONE|DICT|INTERRES
    51   24   84 1    
    52   25   26 2    
    53   27   28 2    
    54   27   29 am   BACKBONE|DICT|INTERRES
    55   29   30 1    
    56   29   85 1    
    57   30   31 1    
    58   30   32 1    
    59   30   86 1    
    60   31   87 1    
    61   31   88 1    
    62   31   89 1    
    63   32   33 2    
    64   32   34 am   BACKBONE|DICT|INTERRES
    65   34   35 1    
    66   34   90 1    
    67   35   36 1    
    68   35   37 1    
    69   35   91 1    
    70   36   92 1    
    71   36   93 1    
    72   36   94 1    
    73   37   38 2    
    74   37   39 am   BACKBONE|DICT|INTERRES
    75   39   40 1    
    76   39   95 1    
    77   40   41 1    
    78   40   42 1    
    79   40   96 1    
    80   41   97 1    
    81   41   98 1    
    82   41   99 1    
    83   42   43 2    
    84   42   44 am   BACKBONE|DICT|INTERRES
    85   44   45 1    
    86   44  100 1    
    87   45   46 1    
    88   45   47 1    
    89   45  101 1    
    90   46  102 1    
    91   46  103 1    
    92   46  104 1    
    93   47   48 2    
    94   47   49 am   BACKBONE|DICT|INTERRES
    95   49   50 1    
    96   49  105 1    
    97   50   51 1    
    98   50   52 1    
    99   50  106 1    
   100   51  107 1    
   101   51  108 1    
   102   51  109 1    
   103   52   53 2    
   104   52   54 am   BACKBONE|DICT|INTERRES
   105   54   55 1    
   106   54  110 1    
   107   55   56 1    
   108   55   59 1    
   109   55  111 1    
   110   56   57 am   BACKBONE|DICT|INTERRES
   111   56   58 2    
   112   57  112 1    
   113   57  113 1    
   114   59   60 1    
   115   59  114 1    
   116   59  115 1    
   117   60   61 1    
   118   61  116 1    
   119   61  117 1    
@<TRIPOS>SUBSTRUCTURE
     1 UNK         1 GROUP             0       ****    0 ROOT    
