@<TRIPOS>MOLECULE
3R8
117   119    1
SMALL
USER_CHARGES


@<TRIPOS>ATOM
      1 CA         13.8923  -24.5486  -44.1388 C.3       0 UNK        -0.2013 
      2 C          15.0260  -25.5624  -44.1522 C.2       0 UNK         0.4866 
      3 O          16.1914  -25.1782  -44.2577 O.2       0 UNK        -0.5176 
      4 N          14.6988  -26.8557  -44.0365 N.am      1 UNK        -0.4884 
      5 CA         15.6417  -27.9827  -44.0396 C.3       1 UNK         0.0853 
      6 C6         14.9587  -29.2938  -44.5029 C.3       10 UNK        -0.0849 
      7 S7         14.5328  -29.1922  -46.2762 S.3       10 UNK        -0.2776 
      8 C8         15.7752  -30.2814  -47.0526 C.3       10 UNK         0.0316 
      9 C9         17.2025  -29.9911  -46.5995 C.ar      10 UNK        -0.0863 
     10 C10        17.8873  -30.9276  -45.8204 C.ar      10 UNK        -0.1009 
     11 C11        19.1995  -30.6886  -45.3962 C.ar      10 UNK        -0.0712 
     12 C12        19.8317  -29.5022  -45.7807 C.ar      10 UNK        -0.0894 
     13 C13        19.1636  -28.5586  -46.5682 C.ar      10 UNK        -0.0745 
     14 C14        17.8473  -28.8079  -46.9725 C.ar      10 UNK        -0.0972 
     15 C15        19.8733  -27.2911  -47.0244 C.3       10 UNK         0.0209 
     16 S16        19.7213  -25.9410  -45.8132 S.3       10 UNK        -0.2568 
     17 C17        21.1996  -26.1995  -44.7729 C.3       10 UNK        -0.0983 
     18 CA         20.9707  -25.7711  -43.3031 C.3       3 UNK         0.0876 
     19 N          19.8461  -26.4894  -42.6969 N.am      3 UNK        -0.4424 
     20 C          19.2431  -26.1575  -41.5476 C.2       2 UNK         0.4918 
     21 O          19.5960  -25.2226  -40.8277 O.2       2 UNK        -0.4875 
     22 CA         18.0171  -27.0023  -41.1821 C.3       2 UNK         0.0481 
     23 CB         17.2288  -26.4628  -39.9737 C.3       2 UNK        -0.1831 
     24 N          17.1523  -27.0958  -42.3526 N.am      2 UNK        -0.4498 
     25 C          16.3566  -28.1167  -42.6793 C.2       1 UNK         0.5027 
     26 O          16.1795  -29.1056  -41.9650 O.2       1 UNK        -0.4969 
     27 C          22.2770  -25.9019  -42.4921 C.2       3 UNK         0.5005 
     28 O          23.1281  -25.0164  -42.5870 O.2       3 UNK        -0.5279 
     29 N          22.4137  -26.9947  -41.7214 N.am      4 UNK        -0.4463 
     30 CA         23.5462  -27.3284  -40.8483 C.3       4 UNK         0.0283 
     31 CB         23.6862  -26.3068  -39.7001 C.3       4 UNK        -0.1875 
     32 C          24.8699  -27.5589  -41.6027 C.2       4 UNK         0.4949 
     33 O          25.9409  -27.4197  -41.0091 O.2       4 UNK        -0.5039 
     34 N          24.7839  -27.9534  -42.8813 N.am      5 UNK        -0.4663 
     35 CA         25.9148  -28.3500  -43.7231 C.3       5 UNK         0.0242 
     36 CB         25.4251  -28.5286  -45.1705 C.3       5 UNK        -0.1982 
     37 C          26.5343  -29.6431  -43.1723 C.2       5 UNK         0.5017 
     38 O          25.9064  -30.6964  -43.2746 O.2       5 UNK        -0.5012 
     39 N          27.6911  -29.5191  -42.5049 N.am      6 UNK        -0.4439 
     40 CA         28.3278  -30.5504  -41.6705 C.3       6 UNK         0.0297 
     41 CB         28.8489  -31.7190  -42.5348 C.3       6 UNK        -0.2006 
     42 C          27.4209  -31.0184  -40.5083 C.2       6 UNK         0.4892 
     43 O          27.4529  -32.1926  -40.1374 O.2       6 UNK        -0.5089 
     44 N          26.6166  -30.0828  -39.9763 N.am      7 UNK        -0.4243 
     45 CA         25.5941  -30.2510  -38.9362 C.3       7 UNK         0.0196 
     46 CB         26.2288  -30.6930  -37.5999 C.3       7 UNK        -0.2007 
     47 C          24.4014  -31.1394  -39.3528 C.2       7 UNK         0.5020 
     48 O          23.6985  -31.6456  -38.4769 O.2       7 UNK        -0.5147 
     49 N          24.1733  -31.3181  -40.6628 N.am      8 UNK        -0.4734 
     50 CA         23.0630  -32.1114  -41.1951 C.3       8 UNK         0.0238 
     51 CB         23.3288  -32.4426  -42.6720 C.3       8 UNK        -0.1912 
     52 C          21.7078  -31.3980  -41.0558 C.2       8 UNK         0.5038 
     53 O          21.6236  -30.1858  -41.2758 O.2       8 UNK        -0.5046 
     54 N          20.6717  -32.1969  -40.7742 N.am      9 UNK        -0.4200 
     55 CA         19.2540  -31.8094  -40.7024 C.3       9 UNK         0.0839 
     56 C          18.9301  -30.8366  -39.5282 C.2       9 UNK         0.5513 
     57 N          17.7984  -30.1447  -39.5549 N.am      9 UNK        -0.7519 
     58 O          19.6656  -30.7506  -38.5470 O.2       9 UNK        -0.4960 
     59 C59        18.6784  -31.3749  -42.0825 C.3       10 UNK        -0.0876 
     60 S60        18.9516  -32.6366  -43.3736 S.3       10 UNK        -0.2414 
     61 C61        19.9723  -31.7222  -44.5784 C.3       10 UNK         0.0169 
     62 H62        12.9177  -25.0268  -44.0432 H         1 UNK         0.0903 
     63 H63        14.0159  -23.8592  -43.3040 H         1 UNK         0.0903 
     64 H64        13.8969  -23.9700  -45.0622 H         1 UNK         0.0903 
     65 H65        13.7258  -27.1097  -43.9392 H         1 UNK         0.3096 
     66 H66        16.4328  -27.7592  -44.7593 H         1 UNK         0.1121 
     67 H67        14.0511  -29.4825  -43.9268 H         1 UNK         0.0849 
     68 H68        15.6010  -30.1598  -44.3354 H         1 UNK         0.0849 
     69 H69        15.5082  -31.3184  -46.8423 H         1 UNK         0.0865 
     70 H70        15.7139  -30.1698  -48.1360 H         1 UNK         0.0865 
     71 H71        17.3957  -31.8515  -45.5494 H         1 UNK         0.1346 
     72 H72        20.8561  -29.3260  -45.4851 H         1 UNK         0.1412 
     73 H73        17.3239  -28.0844  -47.5831 H         1 UNK         0.1426 
     74 H74        19.4476  -26.9529  -47.9705 H         1 UNK         0.0716 
     75 H75        20.9257  -27.4947  -47.2285 H         1 UNK         0.0716 
     76 H76        22.0162  -25.6256  -45.2157 H         1 UNK         0.0695 
     77 H77        21.5043  -27.2451  -44.8184 H         1 UNK         0.0695 
     78 H78        20.7124  -24.7095  -43.3010 H         1 UNK         0.0983 
     79 H79        19.4636  -27.2489  -43.2407 H         1 UNK         0.3095 
     80 H80        18.3999  -27.9935  -40.9415 H         1 UNK         0.0454 
     81 H81        16.8349  -25.4643  -40.1657 H         1 UNK         0.0851 
     82 H82        17.8630  -26.4022  -39.0886 H         1 UNK         0.0851 
     83 H83        16.3896  -27.1126  -39.7257 H         1 UNK         0.0851 
     84 H84        17.1702  -26.3006  -42.9885 H         1 UNK         0.2976 
     85 H85        21.6681  -27.6794  -41.7325 H         1 UNK         0.3116 
     86 H86        23.2968  -28.2874  -40.3937 H         1 UNK         0.0646 
     87 H87        24.0148  -25.3322  -40.0621 H         1 UNK         0.0847 
     88 H88        24.4183  -26.6409  -38.9640 H         1 UNK         0.0847 
     89 H89        22.7413  -26.1686  -39.1747 H         1 UNK         0.0847 
     90 H90        23.8631  -28.0769  -43.2745 H         1 UNK         0.3040 
     91 H91        26.6608  -27.5524  -43.7064 H         1 UNK         0.1015 
     92 H92        24.6517  -29.2943  -45.2476 H         1 UNK         0.0786 
     93 H93        26.2456  -28.8282  -45.8238 H         1 UNK         0.0786 
     94 H94        25.0170  -27.5993  -45.5685 H         1 UNK         0.0786 
     95 H95        28.1046  -28.5977  -42.4447 H         1 UNK         0.3172 
     96 H96        29.1924  -30.0753  -41.2049 H         1 UNK         0.0595 
     97 H97        29.4426  -32.4120  -41.9373 H         1 UNK         0.0839 
     98 H98        29.4869  -31.3621  -43.3431 H         1 UNK         0.0839 
     99 H99        28.0337  -32.2918  -42.9781 H         1 UNK         0.0839 
    100 H100       26.6597  -29.1484  -40.3743 H         1 UNK         0.2998 
    101 H101       25.1735  -29.2573  -38.7768 H         1 UNK         0.0822 
    102 H102       25.5018  -30.6511  -36.7877 H         1 UNK         0.0787 
    103 H103       26.6018  -31.7164  -37.6466 H         1 UNK         0.0787 
    104 H104       27.0593  -30.0446  -37.3208 H         1 UNK         0.0787 
    105 H105       24.7961  -30.8992  -41.3424 H         1 UNK         0.3055 
    106 H106       23.0276  -33.0505  -40.6378 H         1 UNK         0.1106 
    107 H107       22.5502  -33.0922  -43.0741 H         1 UNK         0.0828 
    108 H108       23.3508  -31.5428  -43.2883 H         1 UNK         0.0828 
    109 H109       24.2800  -32.9598  -42.7998 H         1 UNK         0.0828 
    110 H110       20.8515  -33.1745  -40.6000 H         1 UNK         0.2931 
    111 H111       18.7389  -32.7301  -40.4258 H         1 UNK         0.0412 
    112 H112       17.1799  -30.1540  -40.3559 H         1 UNK         0.3472 
    113 H113       17.5805  -29.5519  -38.7702 H         1 UNK         0.3472 
    114 H114       17.5996  -31.2382  -42.0179 H         1 UNK         0.0970 
    115 H115       19.0926  -30.4140  -42.3924 H         1 UNK         0.0970 
    116 H116       20.4167  -32.4407  -45.2679 H         1 UNK         0.0612 
    117 H117       20.8002  -31.2498  -44.0476 H         1 UNK         0.0612 
@<TRIPOS>BOND
     1    1    2 1    
     2    1   62 1    
     3    1   63 1    
     4    1   64 1    
     5    2    3 2    
     6    2    4 am   BACKBONE|DICT|INTERRES
     7    4    5 1    
     8    4   65 1    
     9    5    6 1    
    10    5   25 1    
    11    5   66 1    
    12    6    7 1    
    13    6   67 1    
    14    6   68 1    
    15    7    8 1    
    16    8    9 1    
    17    8   69 1    
    18    8   70 1    
    19    9   10 ar   
    20    9   14 ar   
    21   10   11 ar   
    22   10   71 1    
    23   11   12 ar   
    24   11   61 1    
    25   12   13 ar   
    26   12   72 1    
    27   13   14 ar   
    28   13   15 1    
    29   14   73 1    
    30   15   16 1    
    31   15   74 1    
    32   15   75 1    
    33   16   17 1    
    34   17   18 1    
    35   17   76 1    
    36   17   77 1    
    37   18   19 1    
    38   18   27 1    
    39   18   78 1    
    40   19   20 am   BACKBONE|DICT|INTERRES
    41   19   79 1    
    42   20   21 2    
    43   20   22 1    
    44   22   23 1    
    45   22   24 1    
    46   22   80 1    
    47   23   81 1    
    48   23   82 1    
    49   23   83 1    
    50   24   25 am   BACKBONE|DICT|INTERRES
    51   24   84 1    
    52   25   26 2    
    53   27   28 2    
    54   27   29 am   BACKBONE|DICT|INTERRES
    55   29   30 1    
    56   29   85 1    
    57   30   31 1    
    58   30   32 1    
    59   30   86 1    
    60   31   87 1    
    61   31   88 1    
    62   31   89 1    
    63   32   33 2    
    64   32   34 am   BACKBONE|DICT|INTERRES
    65   34   35 1    
    66   34   90 1    
    67   35   36 1    
    68   35   37 1    
    69   35   91 1    
    70   36   92 1    
    71   36   93 1    
    72   36   94 1    
    73   37   38 2    
    74   37   39 am   BACKBONE|DICT|INTERRES
    75   39   40 1    
    76   39   95 1    
    77   40   41 1    
    78   40   42 1    
    79   40   96 1    
    80   41   97 1    
    81   41   98 1    
    82   41   99 1    
    83   42   43 2    
    84   42   44 am   BACKBONE|DICT|INTERRES
    85   44   45 1    
    86   44  100 1    
    87   45   46 1    
    88   45   47 1    
    89   45  101 1    
    90   46  102 1    
    91   46  103 1    
    92   46  104 1    
    93   47   48 2    
    94   47   49 am   BACKBONE|DICT|INTERRES
    95   49   50 1    
    96   49  105 1    
    97   50   51 1    
    98   50   52 1    
    99   50  106 1    
   100   51  107 1    
   101   51  108 1    
   102   51  109 1    
   103   52   53 2    
   104   52   54 am   BACKBONE|DICT|INTERRES
   105   54   55 1    
   106   54  110 1    
   107   55   56 1    
   108   55   59 1    
   109   55  111 1    
   110   56   57 am   BACKBONE|DICT|INTERRES
   111   56   58 2    
   112   57  112 1    
   113   57  113 1    
   114   59   60 1    
   115   59  114 1    
   116   59  115 1    
   117   60   61 1    
   118   61  116 1    
   119   61  117 1    
@<TRIPOS>SUBSTRUCTURE
     1 UNK         1 GROUP             0       ****    0 ROOT    
