@<TRIPOS>MOLECULE
3R8
117   119    1
SMALL
USER_CHARGES


@<TRIPOS>ATOM
      1 CA         17.6940  -24.3823  -48.5772 C.3       0 UNK        -0.2013 
      2 C          17.6656  -25.2822  -47.3515 C.2       0 UNK         0.4866 
      3 O          18.6364  -25.9918  -47.0883 O.2       0 UNK        -0.5176 
      4 N          16.5641  -25.2568  -46.5899 N.am      1 UNK        -0.4884 
      5 CA         16.3567  -26.0359  -45.3638 C.3       1 UNK         0.0853 
      6 C6         14.8418  -26.2417  -45.1034 C.3       10 UNK        -0.0849 
      7 S7         14.4422  -27.4181  -43.7643 S.3       10 UNK        -0.2776 
      8 C8         14.7227  -29.0379  -44.5496 C.3       10 UNK         0.0316 
      9 C9         16.1045  -29.5869  -44.2207 C.ar      10 UNK        -0.0863 
     10 C10        16.3866  -30.0215  -42.9208 C.ar      10 UNK        -0.1009 
     11 C11        17.6402  -30.5503  -42.6034 C.ar      10 UNK        -0.0712 
     12 C12        18.6125  -30.6447  -43.6000 C.ar      10 UNK        -0.0894 
     13 C13        18.3488  -30.2163  -44.9043 C.ar      10 UNK        -0.0745 
     14 C14        17.0896  -29.6899  -45.2093 C.ar      10 UNK        -0.0972 
     15 C15        19.4042  -30.3660  -45.9935 C.3       10 UNK         0.0209 
     16 S16        20.5034  -28.9166  -46.1159 S.3       10 UNK        -0.2568 
     17 C17        21.6192  -29.1719  -44.6917 C.3       10 UNK        -0.0983 
     18 CA         21.8385  -27.9292  -43.7867 C.3       3 UNK         0.0876 
     19 N          20.6689  -27.0385  -43.6967 N.am      3 UNK        -0.4424 
     20 C          20.6895  -25.7994  -43.1779 C.2       2 UNK         0.4918 
     21 O          21.6808  -25.3220  -42.6238 O.2       2 UNK        -0.4875 
     22 CA         19.4056  -24.9571  -43.2694 C.3       2 UNK         0.0481 
     23 CB         19.7052  -23.4792  -43.5860 C.3       2 UNK        -0.1831 
     24 N          18.4659  -25.4920  -44.2549 N.am      2 UNK        -0.4498 
     25 C          17.1325  -25.4085  -44.1831 C.2       1 UNK         0.5027 
     26 O          16.5328  -24.8345  -43.2718 O.2       1 UNK        -0.4969 
     27 C          22.3859  -28.3581  -42.4062 C.2       3 UNK         0.5005 
     28 O          23.5508  -28.7489  -42.3056 O.2       3 UNK        -0.5279 
     29 N          21.5579  -28.2286  -41.3573 N.am      4 UNK        -0.4463 
     30 CA         21.9076  -28.4395  -39.9508 C.3       4 UNK         0.0283 
     31 CB         20.6526  -28.2581  -39.0837 C.3       4 UNK        -0.1875 
     32 C          23.0473  -27.5324  -39.4497 C.2       4 UNK         0.4949 
     33 O          23.7323  -27.9108  -38.5008 O.2       4 UNK        -0.5039 
     34 N          23.2884  -26.3969  -40.1248 N.am      5 UNK        -0.4663 
     35 CA         24.4605  -25.5381  -39.9189 C.3       5 UNK         0.0242 
     36 CB         24.2882  -24.2466  -40.7336 C.3       5 UNK        -0.1982 
     37 C          25.7956  -26.2248  -40.2749 C.2       5 UNK         0.5017 
     38 O          26.8278  -25.8493  -39.7189 O.2       5 UNK        -0.5012 
     39 N          25.7481  -27.2274  -41.1641 N.am      6 UNK        -0.4439 
     40 CA         26.8607  -28.1106  -41.5208 C.3       6 UNK         0.0297 
     41 CB         26.9250  -28.2228  -43.0550 C.3       6 UNK        -0.2006 
     42 C          26.7140  -29.5014  -40.8684 C.2       6 UNK         0.4892 
     43 O          27.4590  -30.4122  -41.2321 O.2       6 UNK        -0.5089 
     44 N          25.7602  -29.6460  -39.9329 N.am      7 UNK        -0.4243 
     45 CA         25.3805  -30.8638  -39.2067 C.3       7 UNK         0.0196 
     46 CB         26.5321  -31.3431  -38.2968 C.3       7 UNK        -0.2007 
     47 C          24.8201  -31.9870  -40.1041 C.2       7 UNK         0.5020 
     48 O          24.8951  -33.1566  -39.7231 O.2       7 UNK        -0.5147 
     49 N          24.2546  -31.6303  -41.2646 N.am      8 UNK        -0.4734 
     50 CA         23.6246  -32.5666  -42.1954 C.3       8 UNK         0.0238 
     51 CB         24.0067  -32.1676  -43.6293 C.3       8 UNK        -0.1912 
     52 C          22.1013  -32.5333  -42.0169 C.2       8 UNK         0.5038 
     53 O          21.5419  -31.4565  -41.8116 O.2       8 UNK        -0.5046 
     54 N          21.4560  -33.6973  -42.1330 N.am      9 UNK        -0.4200 
     55 CA         19.9998  -33.8899  -42.1208 C.3       9 UNK         0.0839 
     56 C          19.6419  -35.3339  -42.5671 C.2       9 UNK         0.5513 
     57 N          18.3608  -35.6519  -42.6808 N.am      9 UNK        -0.7519 
     58 O          20.5120  -36.1678  -42.8156 O.2       9 UNK        -0.4960 
     59 C59        19.3296  -33.4742  -40.7742 C.3       10 UNK        -0.0876 
     60 S60        17.6423  -32.8037  -40.9920 S.3       10 UNK        -0.2414 
     61 C61        17.9459  -31.0165  -41.1870 C.3       10 UNK         0.0169 
     62 H62        17.8380  -24.9799  -49.4769 H         1 UNK         0.0903 
     63 H63        16.7696  -23.8162  -48.6902 H         1 UNK         0.0903 
     64 H64        18.5190  -23.6743  -48.5028 H         1 UNK         0.0903 
     65 H65        15.8126  -24.6277  -46.8372 H         1 UNK         0.3096 
     66 H66        16.7907  -27.0219  -45.5271 H         1 UNK         0.1121 
     67 H67        14.3530  -26.5933  -46.0135 H         1 UNK         0.0849 
     68 H68        14.3661  -25.2878  -44.8675 H         1 UNK         0.0849 
     69 H69        13.9703  -29.7378  -44.1831 H         1 UNK         0.0865 
     70 H70        14.5696  -28.9704  -45.6277 H         1 UNK         0.0865 
     71 H71        15.6256  -29.9486  -42.1555 H         1 UNK         0.1346 
     72 H72        19.5718  -31.0684  -43.3531 H         1 UNK         0.1412 
     73 H73        16.8759  -29.3710  -46.2207 H         1 UNK         0.1426 
     74 H74        18.9158  -30.5098  -46.9585 H         1 UNK         0.0716 
     75 H75        19.9996  -31.2648  -45.8242 H         1 UNK         0.0716 
     76 H76        22.5812  -29.4930  -45.0933 H         1 UNK         0.0695 
     77 H77        21.2651  -30.0189  -44.1097 H         1 UNK         0.0695 
     78 H78        22.6295  -27.3349  -44.2500 H         1 UNK         0.0983 
     79 H79        19.8228  -27.3869  -44.1236 H         1 UNK         0.3095 
     80 H80        18.9477  -25.0097  -42.2798 H         1 UNK         0.0454 
     81 H81        20.1843  -23.3679  -44.5592 H         1 UNK         0.0851 
     82 H82        20.3708  -23.0413  -42.8410 H         1 UNK         0.0851 
     83 H83        18.7944  -22.8805  -43.5905 H         1 UNK         0.0851 
     84 H84        18.8628  -25.8722  -45.1110 H         1 UNK         0.2976 
     85 H85        20.6174  -27.9159  -41.5458 H         1 UNK         0.3116 
     86 H86        22.2468  -29.4728  -39.8525 H         1 UNK         0.0646 
     87 H87        19.8690  -28.9611  -39.3662 H         1 UNK         0.0847 
     88 H88        20.2470  -27.2489  -39.1648 H         1 UNK         0.0847 
     89 H89        20.8776  -28.4351  -38.0309 H         1 UNK         0.0847 
     90 H90        22.6784  -26.1489  -40.8965 H         1 UNK         0.3040 
     91 H91        24.5018  -25.2756  -38.8594 H         1 UNK         0.1015 
     92 H92        25.1236  -23.5649  -40.5676 H         1 UNK         0.0786 
     93 H93        23.3774  -23.7175  -40.4522 H         1 UNK         0.0786 
     94 H94        24.2396  -24.4491  -41.8045 H         1 UNK         0.0786 
     95 H95        24.8481  -27.4945  -41.5550 H         1 UNK         0.3172 
     96 H96        27.8052  -27.6897  -41.1709 H         1 UNK         0.0595 
     97 H97        26.0331  -28.7004  -43.4625 H         1 UNK         0.0839 
     98 H98        27.7844  -28.8160  -43.3701 H         1 UNK         0.0839 
     99 H99        27.0232  -27.2422  -43.5208 H         1 UNK         0.0839 
    100 H100       25.2175  -28.8266  -39.6874 H         1 UNK         0.2998 
    101 H101       24.5546  -30.5739  -38.5557 H         1 UNK         0.0822 
    102 H102       26.8977  -30.5361  -37.6617 H         1 UNK         0.0787 
    103 H103       26.2029  -32.1468  -37.6371 H         1 UNK         0.0787 
    104 H104       27.3742  -31.7236  -38.8755 H         1 UNK         0.0787 
    105 H105       24.1574  -30.6459  -41.4912 H         1 UNK         0.3055 
    106 H106       23.9818  -33.5833  -42.0158 H         1 UNK         0.1106 
    107 H107       23.7123  -31.1427  -43.8520 H         1 UNK         0.0828 
    108 H108       23.5248  -32.8160  -44.3622 H         1 UNK         0.0828 
    109 H109       25.0830  -32.2436  -43.7851 H         1 UNK         0.0828 
    110 H110       21.9716  -34.5473  -42.3241 H         1 UNK         0.2931 
    111 H111       19.6233  -33.2502  -42.9181 H         1 UNK         0.0412 
    112 H112       18.1039  -36.5827  -42.9708 H         1 UNK         0.3472 
    113 H113       17.6464  -34.9732  -42.4617 H         1 UNK         0.3472 
    114 H114       19.2812  -34.3229  -40.0895 H         1 UNK         0.0970 
    115 H115       19.9207  -32.7299  -40.2413 H         1 UNK         0.0970 
    116 H116       18.9766  -30.7673  -40.9317 H         1 UNK         0.0612 
    117 H117       17.3210  -30.4770  -40.4739 H         1 UNK         0.0612 
@<TRIPOS>BOND
     1    1    2 1    
     2    1   62 1    
     3    1   63 1    
     4    1   64 1    
     5    2    3 2    
     6    2    4 am   BACKBONE|DICT|INTERRES
     7    4    5 1    
     8    4   65 1    
     9    5    6 1    
    10    5   25 1    
    11    5   66 1    
    12    6    7 1    
    13    6   67 1    
    14    6   68 1    
    15    7    8 1    
    16    8    9 1    
    17    8   69 1    
    18    8   70 1    
    19    9   10 ar   
    20    9   14 ar   
    21   10   11 ar   
    22   10   71 1    
    23   11   12 ar   
    24   11   61 1    
    25   12   13 ar   
    26   12   72 1    
    27   13   14 ar   
    28   13   15 1    
    29   14   73 1    
    30   15   16 1    
    31   15   74 1    
    32   15   75 1    
    33   16   17 1    
    34   17   18 1    
    35   17   76 1    
    36   17   77 1    
    37   18   19 1    
    38   18   27 1    
    39   18   78 1    
    40   19   20 am   BACKBONE|DICT|INTERRES
    41   19   79 1    
    42   20   21 2    
    43   20   22 1    
    44   22   23 1    
    45   22   24 1    
    46   22   80 1    
    47   23   81 1    
    48   23   82 1    
    49   23   83 1    
    50   24   25 am   BACKBONE|DICT|INTERRES
    51   24   84 1    
    52   25   26 2    
    53   27   28 2    
    54   27   29 am   BACKBONE|DICT|INTERRES
    55   29   30 1    
    56   29   85 1    
    57   30   31 1    
    58   30   32 1    
    59   30   86 1    
    60   31   87 1    
    61   31   88 1    
    62   31   89 1    
    63   32   33 2    
    64   32   34 am   BACKBONE|DICT|INTERRES
    65   34   35 1    
    66   34   90 1    
    67   35   36 1    
    68   35   37 1    
    69   35   91 1    
    70   36   92 1    
    71   36   93 1    
    72   36   94 1    
    73   37   38 2    
    74   37   39 am   BACKBONE|DICT|INTERRES
    75   39   40 1    
    76   39   95 1    
    77   40   41 1    
    78   40   42 1    
    79   40   96 1    
    80   41   97 1    
    81   41   98 1    
    82   41   99 1    
    83   42   43 2    
    84   42   44 am   BACKBONE|DICT|INTERRES
    85   44   45 1    
    86   44  100 1    
    87   45   46 1    
    88   45   47 1    
    89   45  101 1    
    90   46  102 1    
    91   46  103 1    
    92   46  104 1    
    93   47   48 2    
    94   47   49 am   BACKBONE|DICT|INTERRES
    95   49   50 1    
    96   49  105 1    
    97   50   51 1    
    98   50   52 1    
    99   50  106 1    
   100   51  107 1    
   101   51  108 1    
   102   51  109 1    
   103   52   53 2    
   104   52   54 am   BACKBONE|DICT|INTERRES
   105   54   55 1    
   106   54  110 1    
   107   55   56 1    
   108   55   59 1    
   109   55  111 1    
   110   56   57 am   BACKBONE|DICT|INTERRES
   111   56   58 2    
   112   57  112 1    
   113   57  113 1    
   114   59   60 1    
   115   59  114 1    
   116   59  115 1    
   117   60   61 1    
   118   61  116 1    
   119   61  117 1    
@<TRIPOS>SUBSTRUCTURE
     1 UNK         1 GROUP             0       ****    0 ROOT    
