@<TRIPOS>MOLECULE
3R8
117   119    1
SMALL
USER_CHARGES


@<TRIPOS>ATOM
      1 CA         20.2406  -32.7517  -45.1740 C.3       0 UNK        -0.2013 
      2 C          19.6827  -31.3458  -45.3232 C.2       0 UNK         0.4866 
      3 O          20.1282  -30.4278  -44.6342 O.2       0 UNK        -0.5176 
      4 N          18.7273  -31.1538  -46.2422 N.am      1 UNK        -0.4884 
      5 CA         18.0039  -29.8984  -46.4974 C.3       1 UNK         0.0853 
      6 C6         16.6319  -30.1851  -47.1607 C.3       10 UNK        -0.0849 
      7 S7         15.3972  -28.8618  -46.9192 S.3       10 UNK        -0.2776 
      8 C8         14.7482  -29.2203  -45.2528 C.3       10 UNK         0.0316 
      9 C9         15.4967  -28.4782  -44.1493 C.ar      10 UNK        -0.0863 
     10 C10        15.9978  -29.1719  -43.0431 C.ar      10 UNK        -0.1009 
     11 C11        16.5982  -28.4860  -41.9791 C.ar      10 UNK        -0.0712 
     12 C12        16.6941  -27.0914  -42.0346 C.ar      10 UNK        -0.0894 
     13 C13        16.2057  -26.3829  -43.1383 C.ar      10 UNK        -0.0745 
     14 C14        15.6115  -27.0848  -44.1909 C.ar      10 UNK        -0.0972 
     15 C15        16.2344  -24.8570  -43.1687 C.3       10 UNK         0.0209 
     16 S16        17.8687  -24.1419  -42.7953 S.3       10 UNK        -0.2568 
     17 C17        18.8666  -24.7051  -44.2150 C.3       10 UNK        -0.0983 
     18 CA         19.8112  -25.8759  -43.8294 C.3       3 UNK         0.0876 
     19 N          20.1229  -26.7548  -44.9582 N.am      3 UNK        -0.4424 
     20 C          20.7884  -26.4313  -46.0789 C.2       2 UNK         0.4918 
     21 O          21.2345  -25.3095  -46.3182 O.2       2 UNK        -0.4875 
     22 CA         20.9955  -27.5573  -47.1118 C.3       2 UNK         0.0481 
     23 CB         22.4595  -28.0245  -47.1070 C.3       2 UNK        -0.1831 
     24 N          20.1262  -28.7018  -46.8317 N.am      2 UNK        -0.4498 
     25 C          18.8532  -28.8229  -47.2274 C.2       1 UNK         0.5027 
     26 O          18.3531  -28.1085  -48.0973 O.2       1 UNK        -0.4969 
     27 C          21.0869  -25.4540  -43.0657 C.2       3 UNK         0.5005 
     28 O          21.2712  -24.2793  -42.7398 O.2       3 UNK        -0.5279 
     29 N          21.9467  -26.4419  -42.7900 N.am      4 UNK        -0.4463 
     30 CA         23.1233  -26.3229  -41.9382 C.3       4 UNK         0.0283 
     31 CB         24.3943  -26.5143  -42.7833 C.3       4 UNK        -0.1875 
     32 C          22.9816  -27.4042  -40.8661 C.2       4 UNK         0.4949 
     33 O          23.0497  -28.5904  -41.1958 O.2       4 UNK        -0.5039 
     34 N          22.7240  -26.9880  -39.6212 N.am      5 UNK        -0.4663 
     35 CA         22.5214  -27.8800  -38.4774 C.3       5 UNK         0.0242 
     36 CB         22.0521  -27.0591  -37.2661 C.3       5 UNK        -0.1982 
     37 C          23.7991  -28.6634  -38.1399 C.2       5 UNK         0.5017 
     38 O          24.8772  -28.0671  -38.0883 O.2       5 UNK        -0.5012 
     39 N          23.6564  -29.9808  -37.9480 N.am      6 UNK        -0.4439 
     40 CA         24.6850  -30.9964  -37.6793 C.3       6 UNK         0.0297 
     41 CB         25.4785  -30.6867  -36.3949 C.3       6 UNK        -0.2006 
     42 C          25.6266  -31.2751  -38.8657 C.2       6 UNK         0.4892 
     43 O          25.9735  -32.4348  -39.0912 O.2       6 UNK        -0.5089 
     44 N          26.0124  -30.2284  -39.6060 N.am      7 UNK        -0.4243 
     45 CA         26.8414  -30.2985  -40.8095 C.3       7 UNK         0.0196 
     46 CB         27.2964  -28.8826  -41.1932 C.3       7 UNK        -0.2007 
     47 C          26.1305  -30.9783  -41.9916 C.2       7 UNK         0.5020 
     48 O          26.7867  -31.6895  -42.7533 O.2       7 UNK        -0.5147 
     49 N          24.8156  -30.7593  -42.1201 N.am      8 UNK        -0.4734 
     50 CA         23.9675  -31.3811  -43.1355 C.3       8 UNK         0.0238 
     51 CB         23.6445  -30.3675  -44.2477 C.3       8 UNK        -0.1912 
     52 C          22.6935  -31.9416  -42.4958 C.2       8 UNK         0.5038 
     53 O          22.4496  -33.1441  -42.6010 O.2       8 UNK        -0.5046 
     54 N          21.9086  -31.0694  -41.8513 N.am      9 UNK        -0.4200 
     55 CA         20.6392  -31.4160  -41.2076 C.3       9 UNK         0.0839 
     56 C          20.8911  -31.9606  -39.7789 C.2       9 UNK         0.5513 
     57 N          20.5759  -33.2217  -39.5206 N.am      9 UNK        -0.7519 
     58 O          21.3489  -31.2367  -38.8978 O.2       9 UNK        -0.4960 
     59 C59        19.6545  -30.2158  -41.2220 C.3       10 UNK        -0.0876 
     60 S60        17.9314  -30.7820  -41.0375 S.3       10 UNK        -0.2414 
     61 C61        17.0454  -29.2219  -40.7176 C.3       10 UNK         0.0169 
     62 H62        21.3167  -32.7500  -45.3436 H         1 UNK         0.0903 
     63 H63        20.0563  -33.1201  -44.1654 H         1 UNK         0.0903 
     64 H64        19.7870  -33.4489  -45.8778 H         1 UNK         0.0903 
     65 H65        18.4420  -31.9370  -46.8136 H         1 UNK         0.3096 
     66 H66        17.7950  -29.4696  -45.5148 H         1 UNK         0.1121 
     67 H67        16.7523  -30.3602  -48.2315 H         1 UNK         0.0849 
     68 H68        16.2043  -31.1072  -46.7636 H         1 UNK         0.0849 
     69 H69        13.7025  -28.9116  -45.2190 H         1 UNK         0.0865 
     70 H70        14.7479  -30.2969  -45.0763 H         1 UNK         0.0865 
     71 H71        15.8853  -30.2462  -42.9897 H         1 UNK         0.1346 
     72 H72        17.1228  -26.5488  -41.2030 H         1 UNK         0.1412 
     73 H73        15.2032  -26.5440  -45.0341 H         1 UNK         0.1426 
     74 H74        15.5186  -24.4849  -42.4346 H         1 UNK         0.0716 
     75 H75        15.9016  -24.4791  -44.1368 H         1 UNK         0.0716 
     76 H76        19.4247  -23.8610  -44.6241 H         1 UNK         0.0695 
     77 H77        18.1855  -25.0181  -45.0080 H         1 UNK         0.0695 
     78 H78        19.2658  -26.5177  -43.1359 H         1 UNK         0.0983 
     79 H79        19.8093  -27.7095  -44.8626 H         1 UNK         0.3095 
     80 H80        20.7659  -27.1561  -48.1009 H         1 UNK         0.0454 
     81 H81        22.7646  -28.3875  -46.1261 H         1 UNK         0.0851 
     82 H82        23.1299  -27.2059  -47.3722 H         1 UNK         0.0851 
     83 H83        22.6246  -28.8244  -47.8289 H         1 UNK         0.0851 
     84 H84        20.4353  -29.3497  -46.1103 H         1 UNK         0.2976 
     85 H85        21.7133  -27.3838  -43.0711 H         1 UNK         0.3116 
     86 H86        23.1669  -25.3423  -41.4592 H         1 UNK         0.0646 
     87 H87        24.4636  -27.5163  -43.2081 H         1 UNK         0.0847 
     88 H88        25.2860  -26.3496  -42.1786 H         1 UNK         0.0847 
     89 H89        24.4299  -25.8016  -43.6072 H         1 UNK         0.0847 
     90 H90        22.6943  -25.9964  -39.4325 H         1 UNK         0.3040 
     91 H91        21.7300  -28.5844  -38.7420 H         1 UNK         0.1015 
     92 H92        21.1208  -26.5335  -37.4782 H         1 UNK         0.0786 
     93 H93        22.7962  -26.3195  -36.9668 H         1 UNK         0.0786 
     94 H94        21.8699  -27.7044  -36.4056 H         1 UNK         0.0786 
     95 H95        22.7304  -30.3749  -38.1193 H         1 UNK         0.3172 
     96 H96        24.1310  -31.9200  -37.5032 H         1 UNK         0.0595 
     97 H97        26.0928  -29.7917  -36.4965 H         1 UNK         0.0839 
     98 H98        26.1498  -31.5100  -36.1475 H         1 UNK         0.0839 
     99 H99        24.8142  -30.5433  -35.5428 H         1 UNK         0.0839 
    100 H100       25.7019  -29.3095  -39.3041 H         1 UNK         0.2998 
    101 H101       27.7278  -30.8910  -40.5725 H         1 UNK         0.0822 
    102 H102       27.8870  -28.4265  -40.3984 H         1 UNK         0.0787 
    103 H103       27.9168  -28.8994  -42.0904 H         1 UNK         0.0787 
    104 H104       26.4460  -28.2321  -41.3941 H         1 UNK         0.0787 
    105 H105       24.3526  -30.1367  -41.4662 H         1 UNK         0.3055 
    106 H106       24.4869  -32.2272  -43.5918 H         1 UNK         0.1106 
    107 H107       23.0174  -30.8200  -45.0165 H         1 UNK         0.0828 
    108 H108       23.1115  -29.4973  -43.8649 H         1 UNK         0.0828 
    109 H109       24.5529  -30.0149  -44.7361 H         1 UNK         0.0828 
    110 H110       22.2279  -30.1118  -41.7310 H         1 UNK         0.2931 
    111 H111       20.1841  -32.2091  -41.8053 H         1 UNK         0.0412 
    112 H112       20.2034  -33.8198  -40.2417 H         1 UNK         0.3472 
    113 H113       20.7230  -33.5851  -38.5922 H         1 UNK         0.3472 
    114 H114       19.9015  -29.4874  -40.4474 H         1 UNK         0.0970 
    115 H115       19.7180  -29.6811  -42.1702 H         1 UNK         0.0970 
    116 H116       17.6640  -28.5804  -40.0881 H         1 UNK         0.0612 
    117 H117       16.1546  -29.4534  -40.1325 H         1 UNK         0.0612 
@<TRIPOS>BOND
     1    1    2 1    
     2    1   62 1    
     3    1   63 1    
     4    1   64 1    
     5    2    3 2    
     6    2    4 am   BACKBONE|DICT|INTERRES
     7    4    5 1    
     8    4   65 1    
     9    5    6 1    
    10    5   25 1    
    11    5   66 1    
    12    6    7 1    
    13    6   67 1    
    14    6   68 1    
    15    7    8 1    
    16    8    9 1    
    17    8   69 1    
    18    8   70 1    
    19    9   10 ar   
    20    9   14 ar   
    21   10   11 ar   
    22   10   71 1    
    23   11   12 ar   
    24   11   61 1    
    25   12   13 ar   
    26   12   72 1    
    27   13   14 ar   
    28   13   15 1    
    29   14   73 1    
    30   15   16 1    
    31   15   74 1    
    32   15   75 1    
    33   16   17 1    
    34   17   18 1    
    35   17   76 1    
    36   17   77 1    
    37   18   19 1    
    38   18   27 1    
    39   18   78 1    
    40   19   20 am   BACKBONE|DICT|INTERRES
    41   19   79 1    
    42   20   21 2    
    43   20   22 1    
    44   22   23 1    
    45   22   24 1    
    46   22   80 1    
    47   23   81 1    
    48   23   82 1    
    49   23   83 1    
    50   24   25 am   BACKBONE|DICT|INTERRES
    51   24   84 1    
    52   25   26 2    
    53   27   28 2    
    54   27   29 am   BACKBONE|DICT|INTERRES
    55   29   30 1    
    56   29   85 1    
    57   30   31 1    
    58   30   32 1    
    59   30   86 1    
    60   31   87 1    
    61   31   88 1    
    62   31   89 1    
    63   32   33 2    
    64   32   34 am   BACKBONE|DICT|INTERRES
    65   34   35 1    
    66   34   90 1    
    67   35   36 1    
    68   35   37 1    
    69   35   91 1    
    70   36   92 1    
    71   36   93 1    
    72   36   94 1    
    73   37   38 2    
    74   37   39 am   BACKBONE|DICT|INTERRES
    75   39   40 1    
    76   39   95 1    
    77   40   41 1    
    78   40   42 1    
    79   40   96 1    
    80   41   97 1    
    81   41   98 1    
    82   41   99 1    
    83   42   43 2    
    84   42   44 am   BACKBONE|DICT|INTERRES
    85   44   45 1    
    86   44  100 1    
    87   45   46 1    
    88   45   47 1    
    89   45  101 1    
    90   46  102 1    
    91   46  103 1    
    92   46  104 1    
    93   47   48 2    
    94   47   49 am   BACKBONE|DICT|INTERRES
    95   49   50 1    
    96   49  105 1    
    97   50   51 1    
    98   50   52 1    
    99   50  106 1    
   100   51  107 1    
   101   51  108 1    
   102   51  109 1    
   103   52   53 2    
   104   52   54 am   BACKBONE|DICT|INTERRES
   105   54   55 1    
   106   54  110 1    
   107   55   56 1    
   108   55   59 1    
   109   55  111 1    
   110   56   57 am   BACKBONE|DICT|INTERRES
   111   56   58 2    
   112   57  112 1    
   113   57  113 1    
   114   59   60 1    
   115   59  114 1    
   116   59  115 1    
   117   60   61 1    
   118   61  116 1    
   119   61  117 1    
@<TRIPOS>SUBSTRUCTURE
     1 UNK         1 GROUP             0       ****    0 ROOT    
