@<TRIPOS>MOLECULE
3R8
117   119    1
SMALL
USER_CHARGES


@<TRIPOS>ATOM
      1 CA         17.9728  -21.2540  -41.5988 C.3       0 UNK        -0.2013 
      2 C          17.3725  -22.4136  -42.3793 C.2       0 UNK         0.4866 
      3 O          16.3374  -22.2464  -43.0243 O.2       0 UNK        -0.5176 
      4 N          18.0156  -23.5887  -42.3293 N.am      1 UNK        -0.4884 
      5 CA         17.5774  -24.8109  -43.0215 C.3       1 UNK         0.0853 
      6 C6         18.1707  -26.0820  -42.3505 C.3       10 UNK        -0.0849 
      7 S7         16.9799  -27.4664  -42.3087 S.3       10 UNK        -0.2776 
      8 C8         17.8532  -28.6824  -41.2687 C.3       10 UNK         0.0316 
      9 C9         18.5533  -29.7455  -42.1076 C.ar      10 UNK        -0.0863 
     10 C10        18.0432  -31.0475  -42.1683 C.ar      10 UNK        -0.1009 
     11 C11        18.6598  -32.0237  -42.9597 C.ar      10 UNK        -0.0712 
     12 C12        19.7843  -31.6736  -43.7153 C.ar      10 UNK        -0.0894 
     13 C13        20.3257  -30.3902  -43.6367 C.ar      10 UNK        -0.0745 
     14 C14        19.7098  -29.4330  -42.8264 C.ar      10 UNK        -0.0972 
     15 C15        21.5977  -30.0569  -44.3999 C.3       10 UNK         0.0209 
     16 S16        21.2942  -29.6336  -46.1421 S.3       10 UNK        -0.2568 
     17 C17        20.5581  -27.9754  -45.9723 C.3       10 UNK        -0.0983 
     18 CA         21.5216  -26.7910  -46.2428 C.3       3 UNK         0.0876 
     19 N          20.8292  -25.5256  -46.0400 N.am      3 UNK        -0.4424 
     20 C          19.9703  -24.9477  -46.8837 C.2       2 UNK         0.4918 
     21 O          19.7185  -25.3793  -48.0101 O.2       2 UNK        -0.4875 
     22 CA         19.2614  -23.6879  -46.3467 C.3       2 UNK         0.0481 
     23 CB         18.1377  -23.1823  -47.2761 C.3       2 UNK        -0.1831 
     24 N          18.7673  -23.8731  -44.9735 N.am      2 UNK        -0.4498 
     25 C          17.8701  -24.7783  -44.5413 C.2       1 UNK         0.5027 
     26 O          17.2872  -25.5711  -45.2817 O.2       1 UNK        -0.4969 
     27 C          22.7542  -26.7474  -45.3171 C.2       3 UNK         0.5005 
     28 O          22.6705  -26.1616  -44.2330 O.2       3 UNK        -0.5279 
     29 N          23.8766  -27.3241  -45.7722 N.am      4 UNK        -0.4463 
     30 CA         25.1964  -27.2148  -45.1394 C.3       4 UNK         0.0283 
     31 CB         26.2746  -27.7633  -46.0891 C.3       4 UNK        -0.1875 
     32 C          25.2938  -27.8850  -43.7598 C.2       4 UNK         0.4949 
     33 O          25.7061  -27.2366  -42.7972 O.2       4 UNK        -0.5039 
     34 N          24.9021  -29.1635  -43.6734 N.am      5 UNK        -0.4663 
     35 CA         24.9171  -29.9652  -42.4417 C.3       5 UNK         0.0242 
     36 CB         25.0332  -31.4568  -42.8118 C.3       5 UNK        -0.1982 
     37 C          23.6920  -29.6630  -41.5563 C.2       5 UNK         0.5017 
     38 O          22.9085  -30.5692  -41.2633 O.2       5 UNK        -0.5012 
     39 N          23.5330  -28.3795  -41.2041 N.am      6 UNK        -0.4439 
     40 CA         22.3975  -27.7584  -40.5182 C.3       6 UNK         0.0297 
     41 CB         22.7487  -26.2968  -40.1937 C.3       6 UNK        -0.2006 
     42 C          21.9358  -28.5159  -39.2623 C.2       6 UNK         0.4892 
     43 O          22.5816  -28.4201  -38.2180 O.2       6 UNK        -0.5089 
     44 N          20.8401  -29.2726  -39.4205 N.am      7 UNK        -0.4243 
     45 CA         20.1654  -30.1261  -38.4325 C.3       7 UNK         0.0196 
     46 CB         19.7043  -29.3123  -37.2053 C.3       7 UNK        -0.2007 
     47 C          20.9506  -31.3906  -38.0306 C.2       7 UNK         0.5020 
     48 O          20.4552  -32.1636  -37.2098 O.2       7 UNK        -0.5147 
     49 N          22.1276  -31.6114  -38.6284 N.am      8 UNK        -0.4734 
     50 CA         22.9050  -32.8433  -38.5041 C.3       8 UNK         0.0238 
     51 CB         24.4040  -32.5206  -38.6144 C.3       8 UNK        -0.1912 
     52 C          22.4790  -33.8557  -39.5761 C.2       8 UNK         0.5038 
     53 O          22.3771  -35.0447  -39.2731 O.2       8 UNK        -0.5046 
     54 N          22.2140  -33.3604  -40.7950 N.am      9 UNK        -0.4200 
     55 CA         21.7337  -34.1304  -41.9530 C.3       9 UNK         0.0839 
     56 C          22.7449  -35.1853  -42.5038 C.2       9 UNK         0.5513 
     57 N          24.0360  -35.0658  -42.2171 N.am      9 UNK        -0.7519 
     58 O          22.3698  -36.1104  -43.2190 O.2       9 UNK        -0.4960 
     59 C59        20.2940  -34.6834  -41.7207 C.3       10 UNK        -0.0876 
     60 S60        19.2964  -34.7713  -43.2495 S.3       10 UNK        -0.2414 
     61 C61        18.0718  -33.4341  -43.0069 C.3       10 UNK         0.0169 
     62 H62        18.2141  -20.4327  -42.2731 H         1 UNK         0.0903 
     63 H63        17.2586  -20.8898  -40.8607 H         1 UNK         0.0903 
     64 H64        18.8841  -21.5415  -41.0747 H         1 UNK         0.0903 
     65 H65        18.8591  -23.6679  -41.7779 H         1 UNK         0.3096 
     66 H66        16.4893  -24.8492  -42.9262 H         1 UNK         0.1121 
     67 H67        19.0972  -26.3981  -42.8325 H         1 UNK         0.0849 
     68 H68        18.4359  -25.8692  -41.3134 H         1 UNK         0.0849 
     69 H69        17.1256  -29.1482  -40.6022 H         1 UNK         0.0865 
     70 H70        18.5679  -28.1765  -40.6197 H         1 UNK         0.0865 
     71 H71        17.1548  -31.3008  -41.6057 H         1 UNK         0.1346 
     72 H72        20.2557  -32.4036  -44.3578 H         1 UNK         0.1412 
     73 H73        20.1200  -28.4365  -42.7762 H         1 UNK         0.1426 
     74 H74        22.2732  -30.9111  -44.3624 H         1 UNK         0.0716 
     75 H75        22.1164  -29.2310  -43.9156 H         1 UNK         0.0716 
     76 H76        20.0974  -27.8667  -44.9921 H         1 UNK         0.0695 
     77 H77        19.7281  -27.9311  -46.6791 H         1 UNK         0.0695 
     78 H78        21.8688  -26.8370  -47.2775 H         1 UNK         0.0983 
     79 H79        21.0341  -25.0927  -45.1478 H         1 UNK         0.3095 
     80 H80        20.0212  -22.9067  -46.2971 H         1 UNK         0.0454 
     81 H81        17.6666  -22.2843  -46.8768 H         1 UNK         0.0851 
     82 H82        17.3600  -23.9326  -47.4209 H         1 UNK         0.0851 
     83 H83        18.5311  -22.9304  -48.2616 H         1 UNK         0.0851 
     84 H84        19.1741  -23.2658  -44.2759 H         1 UNK         0.2976 
     85 H85        23.8429  -27.8061  -46.6597 H         1 UNK         0.3116 
     86 H86        25.3971  -26.1511  -44.9934 H         1 UNK         0.0646 
     87 H87        27.2660  -27.6857  -45.6402 H         1 UNK         0.0847 
     88 H88        26.3024  -27.2031  -47.0238 H         1 UNK         0.0847 
     89 H89        26.1099  -28.8136  -46.3325 H         1 UNK         0.0847 
     90 H90        24.5567  -29.6156  -44.5074 H         1 UNK         0.3040 
     91 H91        25.8036  -29.7035  -41.8591 H         1 UNK         0.1015 
     92 H92        25.9185  -31.6459  -43.4191 H         1 UNK         0.0786 
     93 H93        24.1658  -31.8141  -43.3659 H         1 UNK         0.0786 
     94 H94        25.1230  -32.0740  -41.9182 H         1 UNK         0.0786 
     95 H95        24.2502  -27.7412  -41.5356 H         1 UNK         0.3172 
     96 H96        21.5721  -27.7354  -41.2287 H         1 UNK         0.0595 
     97 H97        23.6231  -26.2260  -39.5454 H         1 UNK         0.0839 
     98 H98        21.9228  -25.7995  -39.6833 H         1 UNK         0.0839 
     99 H99        22.9567  -25.7289  -41.1013 H         1 UNK         0.0839 
    100 H100       20.4684  -29.3475  -40.3575 H         1 UNK         0.2998 
    101 H101       19.2675  -30.4926  -38.9326 H         1 UNK         0.0822 
    102 H102       20.5467  -28.9685  -36.6046 H         1 UNK         0.0787 
    103 H103       19.1238  -28.4390  -37.5028 H         1 UNK         0.0787 
    104 H104       19.0698  -29.9143  -36.5536 H         1 UNK         0.0787 
    105 H105       22.4368  -30.9477  -39.3303 H         1 UNK         0.3055 
    106 H106       22.7263  -33.2960  -37.5258 H         1 UNK         0.1106 
    107 H107       25.0053  -33.4276  -38.5388 H         1 UNK         0.0828 
    108 H108       24.6507  -32.0412  -39.5611 H         1 UNK         0.0828 
    109 H109       24.7220  -31.8541  -37.8125 H         1 UNK         0.0828 
    110 H110       22.3586  -32.3678  -40.9591 H         1 UNK         0.2931 
    111 H111       21.6807  -33.3839  -42.7433 H         1 UNK         0.0412 
    112 H112       24.3618  -34.3167  -41.6296 H         1 UNK         0.3472 
    113 H113       24.6865  -35.7445  -42.5809 H         1 UNK         0.3472 
    114 H114       20.3291  -35.6718  -41.2591 H         1 UNK         0.0970 
    115 H115       19.7590  -34.0516  -41.0098 H         1 UNK         0.0970 
    116 H116       17.3513  -33.4761  -43.8245 H         1 UNK         0.0612 
    117 H117       17.5137  -33.6421  -42.0926 H         1 UNK         0.0612 
@<TRIPOS>BOND
     1    1    2 1    
     2    1   62 1    
     3    1   63 1    
     4    1   64 1    
     5    2    3 2    
     6    2    4 am   BACKBONE|DICT|INTERRES
     7    4    5 1    
     8    4   65 1    
     9    5    6 1    
    10    5   25 1    
    11    5   66 1    
    12    6    7 1    
    13    6   67 1    
    14    6   68 1    
    15    7    8 1    
    16    8    9 1    
    17    8   69 1    
    18    8   70 1    
    19    9   10 ar   
    20    9   14 ar   
    21   10   11 ar   
    22   10   71 1    
    23   11   12 ar   
    24   11   61 1    
    25   12   13 ar   
    26   12   72 1    
    27   13   14 ar   
    28   13   15 1    
    29   14   73 1    
    30   15   16 1    
    31   15   74 1    
    32   15   75 1    
    33   16   17 1    
    34   17   18 1    
    35   17   76 1    
    36   17   77 1    
    37   18   19 1    
    38   18   27 1    
    39   18   78 1    
    40   19   20 am   BACKBONE|DICT|INTERRES
    41   19   79 1    
    42   20   21 2    
    43   20   22 1    
    44   22   23 1    
    45   22   24 1    
    46   22   80 1    
    47   23   81 1    
    48   23   82 1    
    49   23   83 1    
    50   24   25 am   BACKBONE|DICT|INTERRES
    51   24   84 1    
    52   25   26 2    
    53   27   28 2    
    54   27   29 am   BACKBONE|DICT|INTERRES
    55   29   30 1    
    56   29   85 1    
    57   30   31 1    
    58   30   32 1    
    59   30   86 1    
    60   31   87 1    
    61   31   88 1    
    62   31   89 1    
    63   32   33 2    
    64   32   34 am   BACKBONE|DICT|INTERRES
    65   34   35 1    
    66   34   90 1    
    67   35   36 1    
    68   35   37 1    
    69   35   91 1    
    70   36   92 1    
    71   36   93 1    
    72   36   94 1    
    73   37   38 2    
    74   37   39 am   BACKBONE|DICT|INTERRES
    75   39   40 1    
    76   39   95 1    
    77   40   41 1    
    78   40   42 1    
    79   40   96 1    
    80   41   97 1    
    81   41   98 1    
    82   41   99 1    
    83   42   43 2    
    84   42   44 am   BACKBONE|DICT|INTERRES
    85   44   45 1    
    86   44  100 1    
    87   45   46 1    
    88   45   47 1    
    89   45  101 1    
    90   46  102 1    
    91   46  103 1    
    92   46  104 1    
    93   47   48 2    
    94   47   49 am   BACKBONE|DICT|INTERRES
    95   49   50 1    
    96   49  105 1    
    97   50   51 1    
    98   50   52 1    
    99   50  106 1    
   100   51  107 1    
   101   51  108 1    
   102   51  109 1    
   103   52   53 2    
   104   52   54 am   BACKBONE|DICT|INTERRES
   105   54   55 1    
   106   54  110 1    
   107   55   56 1    
   108   55   59 1    
   109   55  111 1    
   110   56   57 am   BACKBONE|DICT|INTERRES
   111   56   58 2    
   112   57  112 1    
   113   57  113 1    
   114   59   60 1    
   115   59  114 1    
   116   59  115 1    
   117   60   61 1    
   118   61  116 1    
   119   61  117 1    
@<TRIPOS>SUBSTRUCTURE
     1 UNK         1 GROUP             0       ****    0 ROOT    
