@<TRIPOS>MOLECULE
3R8
117   119    1
SMALL
USER_CHARGES


@<TRIPOS>ATOM
      1 CA         15.8827  -22.8193  -44.1718 C.3       0 UNK        -0.2013 
      2 C          16.4164  -24.2435  -44.1462 C.2       0 UNK         0.4866 
      3 O          17.4457  -24.5198  -44.7628 O.2       0 UNK        -0.5176 
      4 N          15.7226  -25.1474  -43.4399 N.am      1 UNK        -0.4884 
      5 CA         16.0975  -26.5526  -43.2533 C.3       1 UNK         0.0853 
      6 C6         14.8981  -27.3749  -42.7125 C.3       10 UNK        -0.0849 
      7 S7         15.2362  -29.1340  -42.3456 S.3       10 UNK        -0.2776 
      8 C8         15.2429  -29.8986  -43.9987 C.3       10 UNK         0.0316 
      9 C9         16.6354  -29.9016  -44.6158 C.ar      10 UNK        -0.0863 
     10 C10        17.6417  -30.7003  -44.0620 C.ar      10 UNK        -0.1009 
     11 C11        18.9176  -30.7351  -44.6315 C.ar      10 UNK        -0.0712 
     12 C12        19.1821  -29.9673  -45.7685 C.ar      10 UNK        -0.0894 
     13 C13        18.1841  -29.1713  -46.3381 C.ar      10 UNK        -0.0745 
     14 C14        16.9123  -29.1421  -45.7570 C.ar      10 UNK        -0.0972 
     15 C15        18.4614  -28.3781  -47.6070 C.3       10 UNK         0.0209 
     16 S16        19.0136  -26.6826  -47.2498 S.3       10 UNK        -0.2568 
     17 C17        20.8031  -26.9232  -46.9790 C.3       10 UNK        -0.0983 
     18 CA         21.3878  -25.9208  -45.9487 C.3       3 UNK         0.0876 
     19 N          20.6944  -25.9895  -44.6501 N.am      3 UNK        -0.4424 
     20 C          20.8424  -26.9232  -43.6958 C.2       2 UNK         0.4918 
     21 O          21.6973  -27.8055  -43.7132 O.2       2 UNK        -0.4875 
     22 CA         19.8702  -26.8503  -42.5175 C.3       2 UNK         0.0481 
     23 CB         20.2257  -25.6501  -41.6138 C.3       2 UNK        -0.1831 
     24 N          18.5160  -26.7676  -43.0559 N.am      2 UNK        -0.4498 
     25 C          17.3683  -26.6451  -42.3819 C.2       1 UNK         0.5027 
     26 O          17.2803  -26.5613  -41.1549 O.2       1 UNK        -0.4969 
     27 C          22.9313  -26.0199  -45.8424 C.2       3 UNK         0.5005 
     28 O          23.5697  -26.6467  -46.6896 O.2       3 UNK        -0.5279 
     29 N          23.4951  -25.4332  -44.7740 N.am      4 UNK        -0.4463 
     30 CA         24.9063  -25.4579  -44.3547 C.3       4 UNK         0.0283 
     31 CB         25.8304  -24.8631  -45.4379 C.3       4 UNK        -0.1875 
     32 C          25.4249  -26.8243  -43.8516 C.2       4 UNK         0.4949 
     33 O          26.5565  -26.8817  -43.3692 O.2       4 UNK        -0.5039 
     34 N          24.6088  -27.8848  -43.9236 N.am      5 UNK        -0.4663 
     35 CA         24.8767  -29.1894  -43.3118 C.3       5 UNK         0.0242 
     36 CB         24.1123  -30.2807  -44.0786 C.3       5 UNK        -0.1982 
     37 C          24.5056  -29.1771  -41.8195 C.2       5 UNK         0.5017 
     38 O          25.2545  -29.7204  -41.0064 O.2       5 UNK        -0.5012 
     39 N          23.3888  -28.5065  -41.4951 N.am      6 UNK        -0.4439 
     40 CA         22.9094  -28.1300  -40.1611 C.3       6 UNK         0.0297 
     41 CB         23.7437  -26.9476  -39.6214 C.3       6 UNK        -0.2006 
     42 C          22.8237  -29.3193  -39.1883 C.2       6 UNK         0.4892 
     43 O          21.8727  -30.0944  -39.2699 O.2       6 UNK        -0.5089 
     44 N          23.8175  -29.4570  -38.2994 N.am      7 UNK        -0.4243 
     45 CA         23.9321  -30.5359  -37.3132 C.3       7 UNK         0.0196 
     46 CB         25.1326  -30.2502  -36.3964 C.3       7 UNK        -0.2007 
     47 C          24.0447  -31.9460  -37.9241 C.2       7 UNK         0.5020 
     48 O          23.7346  -32.9194  -37.2371 O.2       7 UNK        -0.5147 
     49 N          24.4731  -32.0417  -39.1910 N.am      8 UNK        -0.4734 
     50 CA         24.5280  -33.2959  -39.9449 C.3       8 UNK         0.0238 
     51 CB         25.5204  -33.1415  -41.1086 C.3       8 UNK        -0.1912 
     52 C          23.1538  -33.7692  -40.4588 C.2       8 UNK         0.5038 
     53 O          23.0413  -34.9372  -40.8349 O.2       8 UNK        -0.5046 
     54 N          22.1470  -32.8833  -40.4893 N.am      9 UNK        -0.4200 
     55 CA         20.7760  -33.2034  -40.9168 C.3       9 UNK         0.0839 
     56 C          20.0312  -34.0920  -39.8853 C.2       9 UNK         0.5513 
     57 N          19.1716  -34.9891  -40.3487 N.am      9 UNK        -0.7519 
     58 O          20.1902  -33.9482  -38.6750 O.2       9 UNK        -0.4960 
     59 C59        19.9485  -31.9321  -41.2413 C.3       10 UNK        -0.0876 
     60 S60        20.7268  -30.9134  -42.5380 S.3       10 UNK        -0.2414 
     61 C61        20.0036  -31.6259  -44.0465 C.3       10 UNK         0.0169 
     62 H62        14.9645  -22.7158  -43.5940 H         1 UNK         0.0903 
     63 H63        16.6229  -22.1348  -43.7585 H         1 UNK         0.0903 
     64 H64        15.6739  -22.5164  -45.1975 H         1 UNK         0.0903 
     65 H65        14.9002  -24.8465  -42.9360 H         1 UNK         0.3096 
     66 H66        16.3388  -26.9499  -44.2396 H         1 UNK         0.1121 
     67 H67        14.0656  -27.3221  -43.4160 H         1 UNK         0.0849 
     68 H68        14.5304  -26.9235  -41.7891 H         1 UNK         0.0849 
     69 H69        14.9001  -30.9302  -43.9060 H         1 UNK         0.0865 
     70 H70        14.5212  -29.3992  -44.6469 H         1 UNK         0.0865 
     71 H71        17.4279  -31.2972  -43.1865 H         1 UNK         0.1346 
     72 H72        20.1634  -30.0061  -46.2199 H         1 UNK         0.1412 
     73 H73        16.1357  -28.5361  -46.2042 H         1 UNK         0.1426 
     74 H74        17.5540  -28.3267  -48.2106 H         1 UNK         0.0716 
     75 H75        19.2033  -28.8866  -48.2248 H         1 UNK         0.0716 
     76 H76        21.2912  -26.8121  -47.9490 H         1 UNK         0.0695 
     77 H77        20.9985  -27.9445  -46.6537 H         1 UNK         0.0695 
     78 H78        21.1979  -24.9174  -46.3334 H         1 UNK         0.0983 
     79 H79        19.9667  -25.2977  -44.5241 H         1 UNK         0.3095 
     80 H80        19.9555  -27.7754  -41.9442 H         1 UNK         0.0454 
     81 H81        19.6999  -25.6966  -40.6606 H         1 UNK         0.0851 
     82 H82        19.9773  -24.6986  -42.0848 H         1 UNK         0.0851 
     83 H83        21.2913  -25.6303  -41.3826 H         1 UNK         0.0851 
     84 H84        18.4625  -26.8177  -44.0661 H         1 UNK         0.2976 
     85 H85        22.8707  -24.9592  -44.1358 H         1 UNK         0.3116 
     86 H86        24.9579  -24.7938  -43.4906 H         1 UNK         0.0646 
     87 H87        25.8990  -25.5064  -46.3153 H         1 UNK         0.0847 
     88 H88        25.4825  -23.8833  -45.7646 H         1 UNK         0.0847 
     89 H89        26.8442  -24.7341  -45.0567 H         1 UNK         0.0847 
     90 H90        23.6773  -27.7503  -44.3000 H         1 UNK         0.3040 
     91 H91        25.9443  -29.4095  -43.3842 H         1 UNK         0.1015 
     92 H92        24.2295  -31.2561  -43.6071 H         1 UNK         0.0786 
     93 H93        24.4780  -30.3693  -45.1015 H         1 UNK         0.0786 
     94 H94        23.0445  -30.0705  -44.1288 H         1 UNK         0.0786 
     95 H95        22.8024  -28.2080  -42.2711 H         1 UNK         0.3172 
     96 H96        21.8857  -27.7781  -40.2901 H         1 UNK         0.0595 
     97 H97        24.8066  -27.1837  -39.5587 H         1 UNK         0.0839 
     98 H98        23.4082  -26.6474  -38.6276 H         1 UNK         0.0839 
     99 H99        23.6443  -26.0751  -40.2672 H         1 UNK         0.0839 
    100 H100       24.5780  -28.7939  -38.3348 H         1 UNK         0.2998 
    101 H101       23.0245  -30.5220  -36.7061 H         1 UNK         0.0822 
    102 H102       25.2298  -31.0193  -35.6286 H         1 UNK         0.0787 
    103 H103       25.0227  -29.2951  -35.8824 H         1 UNK         0.0787 
    104 H104       26.0693  -30.2274  -36.9550 H         1 UNK         0.0787 
    105 H105       24.7212  -31.1925  -39.6911 H         1 UNK         0.3055 
    106 H106       24.9061  -34.0798  -39.2844 H         1 UNK         0.1106 
    107 H107       26.5146  -32.8749  -40.7499 H         1 UNK         0.0828 
    108 H108       25.6171  -34.0731  -41.6678 H         1 UNK         0.0828 
    109 H109       25.2013  -32.3723  -41.8102 H         1 UNK         0.0828 
    110 H110       22.2878  -31.9487  -40.1229 H         1 UNK         0.2931 
    111 H111       20.8600  -33.7778  -41.8420 H         1 UNK         0.0412 
    112 H112       19.0281  -35.1127  -41.3391 H         1 UNK         0.3472 
    113 H113       18.6652  -35.5659  -39.6947 H         1 UNK         0.3472 
    114 H114       19.8276  -31.3163  -40.3488 H         1 UNK         0.0970 
    115 H115       18.9379  -32.1971  -41.5554 H         1 UNK         0.0970 
    116 H116       20.8064  -31.7679  -44.7716 H         1 UNK         0.0612 
    117 H117       19.6022  -32.6203  -43.8473 H         1 UNK         0.0612 
@<TRIPOS>BOND
     1    1    2 1    
     2    1   62 1    
     3    1   63 1    
     4    1   64 1    
     5    2    3 2    
     6    2    4 am   BACKBONE|DICT|INTERRES
     7    4    5 1    
     8    4   65 1    
     9    5    6 1    
    10    5   25 1    
    11    5   66 1    
    12    6    7 1    
    13    6   67 1    
    14    6   68 1    
    15    7    8 1    
    16    8    9 1    
    17    8   69 1    
    18    8   70 1    
    19    9   10 ar   
    20    9   14 ar   
    21   10   11 ar   
    22   10   71 1    
    23   11   12 ar   
    24   11   61 1    
    25   12   13 ar   
    26   12   72 1    
    27   13   14 ar   
    28   13   15 1    
    29   14   73 1    
    30   15   16 1    
    31   15   74 1    
    32   15   75 1    
    33   16   17 1    
    34   17   18 1    
    35   17   76 1    
    36   17   77 1    
    37   18   19 1    
    38   18   27 1    
    39   18   78 1    
    40   19   20 am   BACKBONE|DICT|INTERRES
    41   19   79 1    
    42   20   21 2    
    43   20   22 1    
    44   22   23 1    
    45   22   24 1    
    46   22   80 1    
    47   23   81 1    
    48   23   82 1    
    49   23   83 1    
    50   24   25 am   BACKBONE|DICT|INTERRES
    51   24   84 1    
    52   25   26 2    
    53   27   28 2    
    54   27   29 am   BACKBONE|DICT|INTERRES
    55   29   30 1    
    56   29   85 1    
    57   30   31 1    
    58   30   32 1    
    59   30   86 1    
    60   31   87 1    
    61   31   88 1    
    62   31   89 1    
    63   32   33 2    
    64   32   34 am   BACKBONE|DICT|INTERRES
    65   34   35 1    
    66   34   90 1    
    67   35   36 1    
    68   35   37 1    
    69   35   91 1    
    70   36   92 1    
    71   36   93 1    
    72   36   94 1    
    73   37   38 2    
    74   37   39 am   BACKBONE|DICT|INTERRES
    75   39   40 1    
    76   39   95 1    
    77   40   41 1    
    78   40   42 1    
    79   40   96 1    
    80   41   97 1    
    81   41   98 1    
    82   41   99 1    
    83   42   43 2    
    84   42   44 am   BACKBONE|DICT|INTERRES
    85   44   45 1    
    86   44  100 1    
    87   45   46 1    
    88   45   47 1    
    89   45  101 1    
    90   46  102 1    
    91   46  103 1    
    92   46  104 1    
    93   47   48 2    
    94   47   49 am   BACKBONE|DICT|INTERRES
    95   49   50 1    
    96   49  105 1    
    97   50   51 1    
    98   50   52 1    
    99   50  106 1    
   100   51  107 1    
   101   51  108 1    
   102   51  109 1    
   103   52   53 2    
   104   52   54 am   BACKBONE|DICT|INTERRES
   105   54   55 1    
   106   54  110 1    
   107   55   56 1    
   108   55   59 1    
   109   55  111 1    
   110   56   57 am   BACKBONE|DICT|INTERRES
   111   56   58 2    
   112   57  112 1    
   113   57  113 1    
   114   59   60 1    
   115   59  114 1    
   116   59  115 1    
   117   60   61 1    
   118   61  116 1    
   119   61  117 1    
@<TRIPOS>SUBSTRUCTURE
     1 UNK         1 GROUP             0       ****    0 ROOT    
