@<TRIPOS>MOLECULE
3R8
117   119    1
SMALL
USER_CHARGES


@<TRIPOS>ATOM
      1 CA         16.8036  -26.0222  -48.8514 C.3       0 UNK        -0.2013 
      2 C          17.7407  -26.2379  -47.6725 C.2       0 UNK         0.4866 
      3 O          17.2654  -26.4366  -46.5548 O.2       0 UNK        -0.5176 
      4 N          19.0573  -26.2074  -47.9305 N.am      1 UNK        -0.4884 
      5 CA         20.1683  -26.3625  -46.9753 C.3       1 UNK         0.0853 
      6 C6         20.1177  -27.6878  -46.1589 C.3       10 UNK        -0.0849 
      7 S7         20.0016  -29.2122  -47.1598 S.3       10 UNK        -0.2776 
      8 C8         18.3806  -29.8999  -46.6582 C.3       10 UNK         0.0316 
      9 C9         18.1747  -29.9359  -45.1452 C.ar      10 UNK        -0.0863 
     10 C10        19.1212  -30.5350  -44.3092 C.ar      10 UNK        -0.1009 
     11 C11        18.9751  -30.4939  -42.9196 C.ar      10 UNK        -0.0712 
     12 C12        17.8362  -29.8966  -42.3688 C.ar      10 UNK        -0.0894 
     13 C13        16.8867  -29.2806  -43.1912 C.ar      10 UNK        -0.0745 
     14 C14        17.0602  -29.3103  -44.5779 C.ar      10 UNK        -0.0972 
     15 C15        15.6846  -28.5586  -42.5916 C.3       10 UNK         0.0209 
     16 S16        16.1334  -27.3924  -41.2604 S.3       10 UNK        -0.2568 
     17 C17        17.1954  -26.1740  -42.1198 C.3       10 UNK        -0.0983 
     18 CA         18.7182  -26.4423  -41.9844 C.3       3 UNK         0.0876 
     19 N          19.5079  -25.4656  -42.7399 N.am      3 UNK        -0.4424 
     20 C          20.8417  -25.4826  -42.8741 C.2       2 UNK         0.4918 
     21 O          21.5830  -26.2986  -42.3211 O.2       2 UNK        -0.4875 
     22 CA         21.4243  -24.5030  -43.9051 C.3       2 UNK         0.0481 
     23 CB         22.8807  -24.1121  -43.5964 C.3       2 UNK        -0.1831 
     24 N          21.3640  -25.1910  -45.1927 N.am      2 UNK        -0.4498 
     25 C          20.2994  -25.1626  -46.0062 C.2       1 UNK         0.5027 
     26 O          19.4382  -24.2804  -45.9556 O.2       1 UNK        -0.4969 
     27 C          19.1910  -26.5487  -40.5179 C.2       3 UNK         0.5005 
     28 O          19.2338  -25.5377  -39.8133 O.2       3 UNK        -0.5279 
     29 N          19.5645  -27.7750  -40.1220 N.am      4 UNK        -0.4463 
     30 CA         20.0997  -28.1870  -38.8188 C.3       4 UNK         0.0283 
     31 CB         19.0884  -27.9043  -37.6881 C.3       4 UNK        -0.1875 
     32 C          21.5066  -27.6438  -38.4902 C.2       4 UNK         0.4949 
     33 O          21.9734  -27.8589  -37.3711 O.2       4 UNK        -0.5039 
     34 N          22.1697  -26.9785  -39.4464 N.am      5 UNK        -0.4663 
     35 CA         23.4944  -26.3725  -39.2784 C.3       5 UNK         0.0242 
     36 CB         23.3666  -24.8568  -39.5087 C.3       5 UNK        -0.1982 
     37 C          24.5517  -26.9749  -40.2198 C.2       5 UNK         0.5017 
     38 O          25.7287  -26.6391  -40.0795 O.2       5 UNK        -0.5012 
     39 N          24.1397  -27.8351  -41.1579 N.am      6 UNK        -0.4439 
     40 CA         24.9845  -28.4644  -42.1694 C.3       6 UNK         0.0297 
     41 CB         25.2513  -27.4636  -43.3141 C.3       6 UNK        -0.2006 
     42 C          24.2966  -29.7366  -42.6851 C.2       6 UNK         0.4892 
     43 O          23.2039  -30.0745  -42.2227 O.2       6 UNK        -0.5089 
     44 N          24.9444  -30.3955  -43.6562 N.am      7 UNK        -0.4243 
     45 CA         24.4731  -31.5728  -44.3933 C.3       7 UNK         0.0196 
     46 CB         23.2377  -31.2101  -45.2528 C.3       7 UNK        -0.2007 
     47 C          24.2720  -32.8011  -43.4827 C.2       7 UNK         0.5020 
     48 O          25.0519  -33.0031  -42.5490 O.2       7 UNK        -0.5147 
     49 N          23.2455  -33.6118  -43.7756 N.am      8 UNK        -0.4734 
     50 CA         22.9220  -34.8745  -43.0978 C.3       8 UNK         0.0238 
     51 CB         21.7704  -35.5602  -43.8521 C.3       8 UNK        -0.1912 
     52 C          22.5768  -34.7435  -41.6023 C.2       8 UNK         0.5038 
     53 O          22.6210  -35.7469  -40.8890 O.2       8 UNK        -0.5046 
     54 N          22.2463  -33.5260  -41.1576 N.am      9 UNK        -0.4200 
     55 CA         21.9998  -33.1822  -39.7516 C.3       9 UNK         0.0839 
     56 C          23.2948  -33.1056  -38.8901 C.2       9 UNK         0.5513 
     57 N          24.4884  -33.0760  -39.4741 N.am      9 UNK        -0.7519 
     58 O          23.2114  -33.0771  -37.6652 O.2       9 UNK        -0.4960 
     59 C59        21.1762  -31.8762  -39.6141 C.3       10 UNK        -0.0876 
     60 S60        19.6043  -31.8910  -40.5493 S.3       10 UNK        -0.2414 
     61 C61        20.1186  -30.9765  -42.0378 C.3       10 UNK         0.0169 
     62 H62        17.3463  -25.8658  -49.7834 H         1 UNK         0.0903 
     63 H63        16.1561  -26.8893  -48.9780 H         1 UNK         0.0903 
     64 H64        16.1748  -25.1499  -48.6746 H         1 UNK         0.0903 
     65 H65        19.3510  -26.0211  -48.8793 H         1 UNK         0.3096 
     66 H66        21.0777  -26.3723  -47.5783 H         1 UNK         0.1121 
     67 H67        21.0170  -27.8045  -45.5523 H         1 UNK         0.0849 
     68 H68        19.2989  -27.6415  -45.4414 H         1 UNK         0.0849 
     69 H69        17.5965  -29.3125  -47.1381 H         1 UNK         0.0865 
     70 H70        18.2883  -30.9125  -47.0527 H         1 UNK         0.0865 
     71 H71        20.0021  -30.9833  -44.7465 H         1 UNK         0.1346 
     72 H72        17.7101  -29.8611  -41.2955 H         1 UNK         0.1412 
     73 H73        16.3387  -28.8204  -45.2183 H         1 UNK         0.1426 
     74 H74        14.9969  -29.3027  -42.1880 H         1 UNK         0.0716 
     75 H75        15.1336  -28.0139  -43.3601 H         1 UNK         0.0716 
     76 H76        16.9548  -25.1863  -41.7226 H         1 UNK         0.0695 
     77 H77        16.9149  -26.1498  -43.1746 H         1 UNK         0.0695 
     78 H78        18.9210  -27.3961  -42.4727 H         1 UNK         0.0983 
     79 H79        18.9837  -24.7724  -43.2545 H         1 UNK         0.3095 
     80 H80        20.8229  -23.5914  -43.9192 H         1 UNK         0.0454 
     81 H81        23.5340  -24.9799  -43.5094 H         1 UNK         0.0851 
     82 H82        22.9418  -23.5624  -42.6572 H         1 UNK         0.0851 
     83 H83        23.2883  -23.4658  -44.3736 H         1 UNK         0.0851 
     84 H84        22.0365  -25.9355  -45.3113 H         1 UNK         0.2976 
     85 H85        19.5002  -28.5187  -40.8019 H         1 UNK         0.3116 
     86 H86        20.2116  -29.2688  -38.8806 H         1 UNK         0.0646 
     87 H87        18.9751  -26.8362  -37.5017 H         1 UNK         0.0847 
     88 H88        19.4095  -28.3620  -36.7517 H         1 UNK         0.0847 
     89 H89        18.1049  -28.3107  -37.9240 H         1 UNK         0.0847 
     90 H90        21.7233  -26.8248  -40.3451 H         1 UNK         0.3040 
     91 H91        23.8646  -26.5291  -38.2630 H         1 UNK         0.1015 
     92 H92        22.6695  -24.4076  -38.8011 H         1 UNK         0.0786 
     93 H93        23.0111  -24.6336  -40.5142 H         1 UNK         0.0786 
     94 H94        24.3266  -24.3548  -39.3807 H         1 UNK         0.0786 
     95 H95        23.1677  -28.1148  -41.1952 H         1 UNK         0.3172 
     96 H96        25.9302  -28.7603  -41.7107 H         1 UNK         0.0595 
     97 H97        24.3333  -27.2233  -43.8516 H         1 UNK         0.0839 
     98 H98        25.9601  -27.8624  -44.0401 H         1 UNK         0.0839 
     99 H99        25.6744  -26.5304  -42.9422 H         1 UNK         0.0839 
    100 H100       25.8590  -30.0602  -43.9236 H         1 UNK         0.2998 
    101 H101       25.2796  -31.8421  -45.0769 H         1 UNK         0.0822 
    102 H102       23.4287  -30.3237  -45.8581 H         1 UNK         0.0787 
    103 H103       22.9784  -32.0105  -45.9466 H         1 UNK         0.0787 
    104 H104       22.3621  -31.0004  -44.6385 H         1 UNK         0.0787 
    105 H105       22.6590  -33.3625  -44.5591 H         1 UNK         0.3055 
    106 H106       23.8044  -35.5153  -43.1600 H         1 UNK         0.1106 
    107 H107       21.5221  -36.5209  -43.3984 H         1 UNK         0.0828 
    108 H108       20.8642  -34.9529  -43.8428 H         1 UNK         0.0828 
    109 H109       22.0349  -35.7565  -44.8913 H         1 UNK         0.0828 
    110 H110       22.2729  -32.7546  -41.8071 H         1 UNK         0.2931 
    111 H111       21.3982  -33.9868  -39.3240 H         1 UNK         0.0412 
    112 H112       24.5759  -33.0896  -40.4837 H         1 UNK         0.3472 
    113 H113       25.3156  -33.0309  -38.9005 H         1 UNK         0.3472 
    114 H114       20.9254  -31.7065  -38.5652 H         1 UNK         0.0970 
    115 H115       21.7784  -31.0169  -39.9160 H         1 UNK         0.0970 
    116 H116       20.8041  -31.6008  -42.6116 H         1 UNK         0.0612 
    117 H117       20.6793  -30.0930  -41.7347 H         1 UNK         0.0612 
@<TRIPOS>BOND
     1    1    2 1    
     2    1   62 1    
     3    1   63 1    
     4    1   64 1    
     5    2    3 2    
     6    2    4 am   BACKBONE|DICT|INTERRES
     7    4    5 1    
     8    4   65 1    
     9    5    6 1    
    10    5   25 1    
    11    5   66 1    
    12    6    7 1    
    13    6   67 1    
    14    6   68 1    
    15    7    8 1    
    16    8    9 1    
    17    8   69 1    
    18    8   70 1    
    19    9   10 ar   
    20    9   14 ar   
    21   10   11 ar   
    22   10   71 1    
    23   11   12 ar   
    24   11   61 1    
    25   12   13 ar   
    26   12   72 1    
    27   13   14 ar   
    28   13   15 1    
    29   14   73 1    
    30   15   16 1    
    31   15   74 1    
    32   15   75 1    
    33   16   17 1    
    34   17   18 1    
    35   17   76 1    
    36   17   77 1    
    37   18   19 1    
    38   18   27 1    
    39   18   78 1    
    40   19   20 am   BACKBONE|DICT|INTERRES
    41   19   79 1    
    42   20   21 2    
    43   20   22 1    
    44   22   23 1    
    45   22   24 1    
    46   22   80 1    
    47   23   81 1    
    48   23   82 1    
    49   23   83 1    
    50   24   25 am   BACKBONE|DICT|INTERRES
    51   24   84 1    
    52   25   26 2    
    53   27   28 2    
    54   27   29 am   BACKBONE|DICT|INTERRES
    55   29   30 1    
    56   29   85 1    
    57   30   31 1    
    58   30   32 1    
    59   30   86 1    
    60   31   87 1    
    61   31   88 1    
    62   31   89 1    
    63   32   33 2    
    64   32   34 am   BACKBONE|DICT|INTERRES
    65   34   35 1    
    66   34   90 1    
    67   35   36 1    
    68   35   37 1    
    69   35   91 1    
    70   36   92 1    
    71   36   93 1    
    72   36   94 1    
    73   37   38 2    
    74   37   39 am   BACKBONE|DICT|INTERRES
    75   39   40 1    
    76   39   95 1    
    77   40   41 1    
    78   40   42 1    
    79   40   96 1    
    80   41   97 1    
    81   41   98 1    
    82   41   99 1    
    83   42   43 2    
    84   42   44 am   BACKBONE|DICT|INTERRES
    85   44   45 1    
    86   44  100 1    
    87   45   46 1    
    88   45   47 1    
    89   45  101 1    
    90   46  102 1    
    91   46  103 1    
    92   46  104 1    
    93   47   48 2    
    94   47   49 am   BACKBONE|DICT|INTERRES
    95   49   50 1    
    96   49  105 1    
    97   50   51 1    
    98   50   52 1    
    99   50  106 1    
   100   51  107 1    
   101   51  108 1    
   102   51  109 1    
   103   52   53 2    
   104   52   54 am   BACKBONE|DICT|INTERRES
   105   54   55 1    
   106   54  110 1    
   107   55   56 1    
   108   55   59 1    
   109   55  111 1    
   110   56   57 am   BACKBONE|DICT|INTERRES
   111   56   58 2    
   112   57  112 1    
   113   57  113 1    
   114   59   60 1    
   115   59  114 1    
   116   59  115 1    
   117   60   61 1    
   118   61  116 1    
   119   61  117 1    
@<TRIPOS>SUBSTRUCTURE
     1 UNK         1 GROUP             0       ****    0 ROOT    
