@<TRIPOS>MOLECULE
3R8
117   119    1
SMALL
USER_CHARGES


@<TRIPOS>ATOM
      1 CA         18.4969  -22.5644  -48.7941 C.3       0 UNK        -0.2013 
      2 C          19.2795  -23.4082  -47.7990 C.2       0 UNK         0.4866 
      3 O          20.3709  -23.0143  -47.3859 O.2       0 UNK        -0.5176 
      4 N          18.7361  -24.5702  -47.4177 N.am      1 UNK        -0.4884 
      5 CA         19.3048  -25.4716  -46.4111 C.3       1 UNK         0.0853 
      6 C6         18.7263  -26.9067  -46.5399 C.3       10 UNK        -0.0849 
      7 S7         16.9064  -26.9865  -46.3929 S.3       10 UNK        -0.2776 
      8 C8         16.5799  -28.7144  -46.8586 C.3       10 UNK         0.0316 
      9 C9         16.9898  -29.7035  -45.7747 C.ar      10 UNK        -0.0863 
     10 C10        17.9428  -30.6904  -46.0451 C.ar      10 UNK        -0.1009 
     11 C11        18.2569  -31.6557  -45.0841 C.ar      10 UNK        -0.0712 
     12 C12        17.6182  -31.6218  -43.8400 C.ar      10 UNK        -0.0894 
     13 C13        16.6800  -30.6269  -43.5479 C.ar      10 UNK        -0.0745 
     14 C14        16.3687  -29.6726  -44.5213 C.ar      10 UNK        -0.0972 
     15 C15        15.9692  -30.6101  -42.1996 C.3       10 UNK         0.0209 
     16 S16        17.1099  -30.3558  -40.8008 S.3       10 UNK        -0.2568 
     17 C17        17.7227  -28.6639  -41.1054 C.3       10 UNK        -0.0983 
     18 CA         19.1163  -28.6576  -41.7910 C.3       3 UNK         0.0876 
     19 N          19.4219  -27.3601  -42.3998 N.am      3 UNK        -0.4424 
     20 C          19.7684  -26.2260  -41.7707 C.2       2 UNK         0.4918 
     21 O          19.9186  -26.1397  -40.5510 O.2       2 UNK        -0.4875 
     22 CA         19.9864  -24.9756  -42.6473 C.3       2 UNK         0.0481 
     23 CB         21.2745  -24.2252  -42.2665 C.3       2 UNK        -0.1831 
     24 N          20.0270  -25.3060  -44.0775 N.am      2 UNK        -0.4498 
     25 C          19.1247  -24.9079  -44.9835 C.2       1 UNK         0.5027 
     26 O          18.1711  -24.1677  -44.7257 O.2       1 UNK        -0.4969 
     27 C          20.2876  -29.1607  -40.9164 C.2       3 UNK         0.5005 
     28 O          21.3620  -29.4325  -41.4541 O.2       3 UNK        -0.5279 
     29 N          20.0930  -29.2573  -39.5941 N.am      4 UNK        -0.4463 
     30 CA         21.1062  -29.6799  -38.6222 C.3       4 UNK         0.0283 
     31 CB         20.4864  -29.7137  -37.2173 C.3       4 UNK        -0.1875 
     32 C          22.3802  -28.8142  -38.6279 C.2       4 UNK         0.4949 
     33 O          23.4686  -29.3436  -38.4047 O.2       4 UNK        -0.5039 
     34 N          22.2362  -27.5154  -38.9244 N.am      5 UNK        -0.4663 
     35 CA         23.3575  -26.5831  -39.0548 C.3       5 UNK         0.0242 
     36 CB         22.8603  -25.1511  -38.8064 C.3       5 UNK        -0.1982 
     37 C          24.0904  -26.6960  -40.4046 C.2       5 UNK         0.5017 
     38 O          25.2173  -26.2105  -40.5063 O.2       5 UNK        -0.5012 
     39 N          23.4839  -27.3531  -41.4055 N.am      6 UNK        -0.4439 
     40 CA         24.0889  -27.6290  -42.7113 C.3       6 UNK         0.0297 
     41 CB         23.0070  -27.5882  -43.8072 C.3       6 UNK        -0.2006 
     42 C          24.8470  -28.9667  -42.6708 C.2       6 UNK         0.4892 
     43 O          24.5257  -29.8831  -43.4281 O.2       6 UNK        -0.5089 
     44 N          25.8320  -29.0465  -41.7637 N.am      7 UNK        -0.4243 
     45 CA         26.7136  -30.1910  -41.5039 C.3       7 UNK         0.0196 
     46 CB         27.6863  -30.3999  -42.6848 C.3       7 UNK        -0.2007 
     47 C          25.9489  -31.4743  -41.1193 C.2       7 UNK         0.5020 
     48 O          26.2731  -32.5529  -41.6193 O.2       7 UNK        -0.5147 
     49 N          24.9557  -31.3291  -40.2275 N.am      8 UNK        -0.4734 
     50 CA         24.0952  -32.3899  -39.6888 C.3       8 UNK         0.0238 
     51 CB         24.9108  -33.3614  -38.8070 C.3       8 UNK        -0.1912 
     52 C          23.2673  -33.1056  -40.7739 C.2       8 UNK         0.5038 
     53 O          23.2661  -34.3375  -40.8267 O.2       8 UNK        -0.5046 
     54 N          22.5783  -32.3243  -41.6200 N.am      9 UNK        -0.4200 
     55 CA         21.6678  -32.8387  -42.6576 C.3       9 UNK         0.0839 
     56 C          20.4504  -33.6093  -42.0711 C.2       9 UNK         0.5513 
     57 N          19.8547  -33.1366  -40.9819 N.am      9 UNK        -0.7519 
     58 O          20.0582  -34.6495  -42.5915 O.2       9 UNK        -0.4960 
     59 C59        21.2128  -31.7118  -43.6254 C.3       10 UNK        -0.0876 
     60 S60        20.9842  -32.2516  -45.3531 S.3       10 UNK        -0.2414 
     61 C61        19.2377  -32.7730  -45.4129 C.3       10 UNK         0.0169 
     62 H62        18.2588  -21.5948  -48.3576 H         1 UNK         0.0903 
     63 H63        19.0897  -22.3975  -49.6931 H         1 UNK         0.0903 
     64 H64        17.5627  -23.0426  -49.0881 H         1 UNK         0.0903 
     65 H65        17.8184  -24.8302  -47.7520 H         1 UNK         0.3096 
     66 H66        20.3792  -25.5321  -46.6019 H         1 UNK         0.1121 
     67 H67        19.0078  -27.3191  -47.5102 H         1 UNK         0.0849 
     68 H68        19.1698  -27.5757  -45.8002 H         1 UNK         0.0849 
     69 H69        15.5114  -28.8281  -47.0469 H         1 UNK         0.0865 
     70 H70        17.0778  -28.9349  -47.8042 H         1 UNK         0.0865 
     71 H71        18.4216  -30.7298  -47.0142 H         1 UNK         0.1346 
     72 H72        17.8441  -32.3743  -43.0967 H         1 UNK         0.1412 
     73 H73        15.6269  -28.9129  -44.3143 H         1 UNK         0.1426 
     74 H74        15.4557  -31.5626  -42.0618 H         1 UNK         0.0716 
     75 H75        15.1956  -29.8410  -42.1729 H         1 UNK         0.0716 
     76 H76        16.9990  -28.1512  -41.7413 H         1 UNK         0.0695 
     77 H77        17.7295  -28.1021  -40.1700 H         1 UNK         0.0695 
     78 H78        19.0656  -29.3486  -42.6321 H         1 UNK         0.0983 
     79 H79        19.3175  -27.3221  -43.4015 H         1 UNK         0.3095 
     80 H80        19.1470  -24.3100  -42.4381 H         1 UNK         0.0454 
     81 H81        22.1459  -24.8794  -42.2540 H         1 UNK         0.0851 
     82 H82        21.4782  -23.4083  -42.9589 H         1 UNK         0.0851 
     83 H83        21.1809  -23.7803  -41.2763 H         1 UNK         0.0851 
     84 H84        20.7940  -25.8896  -44.3792 H         1 UNK         0.2976 
     85 H85        19.1819  -29.0176  -39.2292 H         1 UNK         0.3116 
     86 H86        21.3977  -30.6969  -38.8866 H         1 UNK         0.0646 
     87 H87        21.2141  -30.0521  -36.4780 H         1 UNK         0.0847 
     88 H88        19.6398  -30.3990  -37.1717 H         1 UNK         0.0847 
     89 H89        20.1395  -28.7280  -36.9045 H         1 UNK         0.0847 
     90 H90        21.3134  -27.1576  -39.1453 H         1 UNK         0.3040 
     91 H91        24.0940  -26.8136  -38.2812 H         1 UNK         0.1015 
     92 H92        22.4813  -25.0375  -37.7906 H         1 UNK         0.0786 
     93 H93        22.0596  -24.8781  -39.4901 H         1 UNK         0.0786 
     94 H94        23.6647  -24.4252  -38.9339 H         1 UNK         0.0786 
     95 H95        22.6102  -27.8335  -41.2161 H         1 UNK         0.3172 
     96 H96        24.8192  -26.8535  -42.9521 H         1 UNK         0.0595 
     97 H97        22.5561  -26.6010  -43.8733 H         1 UNK         0.0839 
     98 H98        22.2160  -28.3171  -43.6324 H         1 UNK         0.0839 
     99 H99        23.4370  -27.8075  -44.7854 H         1 UNK         0.0839 
    100 H100       25.9914  -28.2272  -41.1893 H         1 UNK         0.2998 
    101 H101       27.3117  -29.9253  -40.6308 H         1 UNK         0.0822 
    102 H102       28.2367  -29.4870  -42.9123 H         1 UNK         0.0787 
    103 H103       28.4224  -31.1711  -42.4544 H         1 UNK         0.0787 
    104 H104       27.1625  -30.7103  -43.5897 H         1 UNK         0.0787 
    105 H105       24.7576  -30.4005  -39.8721 H         1 UNK         0.3055 
    106 H106       23.3730  -31.9056  -39.0331 H         1 UNK         0.1106 
    107 H107       24.2572  -34.0815  -38.3130 H         1 UNK         0.0828 
    108 H108       25.6366  -33.9302  -39.3889 H         1 UNK         0.0828 
    109 H109       25.4512  -32.8280  -38.0251 H         1 UNK         0.0828 
    110 H110       22.6247  -31.3175  -41.5259 H         1 UNK         0.2931 
    111 H111       22.2541  -33.5570  -43.2344 H         1 UNK         0.0412 
    112 H112       19.0745  -33.6404  -40.5907 H         1 UNK         0.3472 
    113 H113       20.1774  -32.2904  -40.5437 H         1 UNK         0.3472 
    114 H114       21.9774  -30.9344  -43.6674 H         1 UNK         0.0970 
    115 H115       20.3191  -31.2061  -43.2646 H         1 UNK         0.0970 
    116 H116       19.0279  -33.1434  -46.4173 H         1 UNK         0.0612 
    117 H117       19.0847  -33.6245  -44.7513 H         1 UNK         0.0612 
@<TRIPOS>BOND
     1    1    2 1    
     2    1   62 1    
     3    1   63 1    
     4    1   64 1    
     5    2    3 2    
     6    2    4 am   BACKBONE|DICT|INTERRES
     7    4    5 1    
     8    4   65 1    
     9    5    6 1    
    10    5   25 1    
    11    5   66 1    
    12    6    7 1    
    13    6   67 1    
    14    6   68 1    
    15    7    8 1    
    16    8    9 1    
    17    8   69 1    
    18    8   70 1    
    19    9   10 ar   
    20    9   14 ar   
    21   10   11 ar   
    22   10   71 1    
    23   11   12 ar   
    24   11   61 1    
    25   12   13 ar   
    26   12   72 1    
    27   13   14 ar   
    28   13   15 1    
    29   14   73 1    
    30   15   16 1    
    31   15   74 1    
    32   15   75 1    
    33   16   17 1    
    34   17   18 1    
    35   17   76 1    
    36   17   77 1    
    37   18   19 1    
    38   18   27 1    
    39   18   78 1    
    40   19   20 am   BACKBONE|DICT|INTERRES
    41   19   79 1    
    42   20   21 2    
    43   20   22 1    
    44   22   23 1    
    45   22   24 1    
    46   22   80 1    
    47   23   81 1    
    48   23   82 1    
    49   23   83 1    
    50   24   25 am   BACKBONE|DICT|INTERRES
    51   24   84 1    
    52   25   26 2    
    53   27   28 2    
    54   27   29 am   BACKBONE|DICT|INTERRES
    55   29   30 1    
    56   29   85 1    
    57   30   31 1    
    58   30   32 1    
    59   30   86 1    
    60   31   87 1    
    61   31   88 1    
    62   31   89 1    
    63   32   33 2    
    64   32   34 am   BACKBONE|DICT|INTERRES
    65   34   35 1    
    66   34   90 1    
    67   35   36 1    
    68   35   37 1    
    69   35   91 1    
    70   36   92 1    
    71   36   93 1    
    72   36   94 1    
    73   37   38 2    
    74   37   39 am   BACKBONE|DICT|INTERRES
    75   39   40 1    
    76   39   95 1    
    77   40   41 1    
    78   40   42 1    
    79   40   96 1    
    80   41   97 1    
    81   41   98 1    
    82   41   99 1    
    83   42   43 2    
    84   42   44 am   BACKBONE|DICT|INTERRES
    85   44   45 1    
    86   44  100 1    
    87   45   46 1    
    88   45   47 1    
    89   45  101 1    
    90   46  102 1    
    91   46  103 1    
    92   46  104 1    
    93   47   48 2    
    94   47   49 am   BACKBONE|DICT|INTERRES
    95   49   50 1    
    96   49  105 1    
    97   50   51 1    
    98   50   52 1    
    99   50  106 1    
   100   51  107 1    
   101   51  108 1    
   102   51  109 1    
   103   52   53 2    
   104   52   54 am   BACKBONE|DICT|INTERRES
   105   54   55 1    
   106   54  110 1    
   107   55   56 1    
   108   55   59 1    
   109   55  111 1    
   110   56   57 am   BACKBONE|DICT|INTERRES
   111   56   58 2    
   112   57  112 1    
   113   57  113 1    
   114   59   60 1    
   115   59  114 1    
   116   59  115 1    
   117   60   61 1    
   118   61  116 1    
   119   61  117 1    
@<TRIPOS>SUBSTRUCTURE
     1 UNK         1 GROUP             0       ****    0 ROOT    
