@<TRIPOS>MOLECULE
3R8
117   119    1
SMALL
USER_CHARGES


@<TRIPOS>ATOM
      1 CA         23.1165  -27.2103  -47.4372 C.3       0 UNK        -0.2013 
      2 C          22.1234  -27.9620  -46.5639 C.2       0 UNK         0.4866 
      3 O          22.3098  -29.1510  -46.3116 O.2       0 UNK        -0.5176 
      4 N          21.0698  -27.2785  -46.1021 N.am      1 UNK        -0.4884 
      5 CA         20.0489  -27.8275  -45.2059 C.3       1 UNK         0.0853 
      6 C6         18.7821  -26.9354  -45.1830 C.3       10 UNK        -0.0849 
      7 S7         17.7183  -27.2917  -46.6205 S.3       10 UNK        -0.2776 
      8 C8         16.1720  -27.8734  -45.8370 C.3       10 UNK         0.0316 
      9 C9         16.3799  -28.9449  -44.7687 C.ar      10 UNK        -0.0863 
     10 C10        17.1698  -30.0705  -45.0224 C.ar      10 UNK        -0.1009 
     11 C11        17.3850  -31.0360  -44.0311 C.ar      10 UNK        -0.0712 
     12 C12        16.7388  -30.8946  -42.7967 C.ar      10 UNK        -0.0894 
     13 C13        15.9221  -29.7889  -42.5373 C.ar      10 UNK        -0.0745 
     14 C14        15.7611  -28.8108  -43.5223 C.ar      10 UNK        -0.0972 
     15 C15        15.1587  -29.6818  -41.2215 C.3       10 UNK         0.0209 
     16 S16        16.2232  -29.3035  -39.7926 S.3       10 UNK        -0.2568 
     17 C17        16.6980  -27.5643  -40.0915 C.3       10 UNK        -0.0983 
     18 CA         18.2269  -27.3573  -39.9602 C.3       3 UNK         0.0876 
     19 N          18.9584  -28.2419  -40.8641 N.am      3 UNK        -0.4424 
     20 C          20.2526  -28.5610  -40.7639 C.2       2 UNK         0.4918 
     21 O          21.0355  -28.1084  -39.9296 O.2       2 UNK        -0.4875 
     22 CA         20.7522  -29.5451  -41.8238 C.3       2 UNK         0.0481 
     23 CB         20.2654  -30.9559  -41.4646 C.3       2 UNK        -0.1831 
     24 N          20.3344  -29.1801  -43.1812 N.am      2 UNK        -0.4498 
     25 C          20.6185  -28.0167  -43.7885 C.2       1 UNK         0.5027 
     26 O          21.2645  -27.1034  -43.2602 O.2       1 UNK        -0.4969 
     27 C          18.6087  -25.8749  -40.1491 C.2       3 UNK         0.5005 
     28 O          18.3994  -25.0824  -39.2291 O.2       3 UNK        -0.5279 
     29 N          19.1592  -25.5237  -41.3218 N.am      4 UNK        -0.4463 
     30 CA         19.6707  -24.1885  -41.6212 C.3       4 UNK         0.0283 
     31 CB         19.6712  -23.9405  -43.1381 C.3       4 UNK        -0.1875 
     32 C          21.0723  -23.9866  -41.0312 C.2       4 UNK         0.4949 
     33 O          21.2814  -23.0012  -40.3226 O.2       4 UNK        -0.5039 
     34 N          22.0020  -24.9095  -41.3255 N.am      5 UNK        -0.4663 
     35 CA         23.3966  -24.8079  -40.8790 C.3       5 UNK         0.0242 
     36 CB         24.1310  -23.7011  -41.6667 C.3       5 UNK        -0.1982 
     37 C          24.2032  -26.1115  -40.9700 C.2       5 UNK         0.5017 
     38 O          25.1679  -26.2475  -40.2165 O.2       5 UNK        -0.5012 
     39 N          23.8675  -27.0179  -41.9017 N.am      6 UNK        -0.4439 
     40 CA         24.7448  -28.1371  -42.2756 C.3       6 UNK         0.0297 
     41 CB         24.3187  -28.6927  -43.6432 C.3       6 UNK        -0.2006 
     42 C          24.8549  -29.2737  -41.2433 C.2       6 UNK         0.4892 
     43 O          25.7767  -30.0820  -41.3621 O.2       6 UNK        -0.5089 
     44 N          23.9154  -29.3485  -40.2880 N.am      7 UNK        -0.4243 
     45 CA         23.7555  -30.3502  -39.2203 C.3       7 UNK         0.0196 
     46 CB         24.9464  -30.3196  -38.2431 C.3       7 UNK        -0.2007 
     47 C          23.4734  -31.7897  -39.6992 C.2       7 UNK         0.5020 
     48 O          22.5533  -32.4227  -39.1834 O.2       7 UNK        -0.5147 
     49 N          24.2557  -32.2829  -40.6648 N.am      8 UNK        -0.4734 
     50 CA         24.1628  -33.6299  -41.2398 C.3       8 UNK         0.0238 
     51 CB         25.5880  -34.1849  -41.4066 C.3       8 UNK        -0.1912 
     52 C          23.4151  -33.6643  -42.5860 C.2       8 UNK         0.5038 
     53 O          23.1819  -34.7536  -43.1107 O.2       8 UNK        -0.5046 
     54 N          23.0669  -32.4888  -43.1269 N.am      9 UNK        -0.4200 
     55 CA         22.4422  -32.2849  -44.4472 C.3       9 UNK         0.0839 
     56 C          23.3984  -32.5383  -45.6546 C.2       9 UNK         0.5513 
     57 N          24.7127  -32.5418  -45.4605 N.am      9 UNK        -0.7519 
     58 O          22.9543  -32.7267  -46.7843 O.2       9 UNK        -0.4960 
     59 C59        21.0498  -32.9855  -44.5960 C.3       10 UNK        -0.0876 
     60 S60        19.7885  -31.8323  -45.2425 S.3       10 UNK        -0.2414 
     61 C61        18.2871  -32.2455  -44.2834 C.3       10 UNK         0.0169 
     62 H62        24.1092  -27.2432  -46.9891 H         1 UNK         0.0903 
     63 H63        23.1723  -27.6721  -48.4227 H         1 UNK         0.0903 
     64 H64        22.8372  -26.1649  -47.5670 H         1 UNK         0.0903 
     65 H65        20.9733  -26.2999  -46.3311 H         1 UNK         0.3096 
     66 H66        19.7779  -28.8158  -45.5835 H         1 UNK         0.1121 
     67 H67        18.2052  -27.0699  -44.2664 H         1 UNK         0.0849 
     68 H68        19.0469  -25.8784  -45.2073 H         1 UNK         0.0849 
     69 H69        15.6586  -27.0074  -45.4161 H         1 UNK         0.0865 
     70 H70        15.5138  -28.2714  -46.6103 H         1 UNK         0.0865 
     71 H71        17.6317  -30.1825  -45.9937 H         1 UNK         0.1346 
     72 H72        16.8596  -31.6523  -42.0342 H         1 UNK         0.1412 
     73 H73        15.1288  -27.9553  -43.3262 H         1 UNK         0.1426 
     74 H74        14.6519  -30.6292  -41.0324 H         1 UNK         0.0716 
     75 H75        14.3708  -28.9296  -41.2877 H         1 UNK         0.0716 
     76 H76        16.1650  -26.9447  -39.3677 H         1 UNK         0.0695 
     77 H77        16.3506  -27.2493  -41.0769 H         1 UNK         0.0695 
     78 H78        18.5149  -27.6218  -38.9399 H         1 UNK         0.0983 
     79 H79        18.4031  -28.6973  -41.5738 H         1 UNK         0.3095 
     80 H80        21.8387  -29.5464  -41.8130 H         1 UNK         0.0454 
     81 H81        20.5483  -31.2187  -40.4452 H         1 UNK         0.0851 
     82 H82        20.6943  -31.7093  -42.1157 H         1 UNK         0.0851 
     83 H83        19.1821  -31.0416  -41.5180 H         1 UNK         0.0851 
     84 H84        19.8127  -29.8791  -43.6947 H         1 UNK         0.2976 
     85 H85        19.3408  -26.2475  -42.0004 H         1 UNK         0.3116 
     86 H86        19.0046  -23.4493  -41.1699 H         1 UNK         0.0646 
     87 H87        20.3499  -24.6112  -43.6645 H         1 UNK         0.0847 
     88 H88        18.6736  -24.0618  -43.5601 H         1 UNK         0.0847 
     89 H89        19.9922  -22.9220  -43.3608 H         1 UNK         0.0847 
     90 H90        21.7422  -25.7059  -41.8972 H         1 UNK         0.3040 
     91 H91        23.3912  -24.5320  -39.8216 H         1 UNK         0.1015 
     92 H92        23.6980  -22.7174  -41.4860 H         1 UNK         0.0786 
     93 H93        24.0999  -23.8877  -42.7408 H         1 UNK         0.0786 
     94 H94        25.1810  -23.6402  -41.3763 H         1 UNK         0.0786 
     95 H95        23.0475  -26.8740  -42.4818 H         1 UNK         0.3172 
     96 H96        25.7530  -27.7341  -42.3951 H         1 UNK         0.0595 
     97 H97        23.3224  -29.1296  -43.6163 H         1 UNK         0.0839 
     98 H98        25.0027  -29.4717  -43.9831 H         1 UNK         0.0839 
     99 H99        24.3222  -27.9128  -44.4041 H         1 UNK         0.0839 
    100 H100       23.2011  -28.6298  -40.2934 H         1 UNK         0.2998 
    101 H101       22.8718  -30.0346  -38.6627 H         1 UNK         0.0822 
    102 H102       24.7775  -30.9941  -37.4026 H         1 UNK         0.0787 
    103 H103       25.0944  -29.3207  -37.8325 H         1 UNK         0.0787 
    104 H104       25.8773  -30.6257  -38.7212 H         1 UNK         0.0787 
    105 H105       24.9957  -31.6731  -41.0117 H         1 UNK         0.3055 
    106 H106       23.6191  -34.2877  -40.5578 H         1 UNK         0.1106 
    107 H107       26.1107  -34.2247  -40.4508 H         1 UNK         0.0828 
    108 H108       25.5714  -35.2001  -41.8059 H         1 UNK         0.0828 
    109 H109       26.1827  -33.5754  -42.0881 H         1 UNK         0.0828 
    110 H110       23.3163  -31.6533  -42.6214 H         1 UNK         0.2931 
    111 H111       22.2789  -31.2074  -44.4706 H         1 UNK         0.0412 
    112 H112       25.0993  -32.3893  -44.5438 H         1 UNK         0.3472 
    113 H113       25.3240  -32.7024  -46.2457 H         1 UNK         0.3472 
    114 H114       20.7103  -33.3839  -43.6407 H         1 UNK         0.0970 
    115 H115       21.1028  -33.8569  -45.2513 H         1 UNK         0.0970 
    116 H116       18.5734  -32.6943  -43.3320 H         1 UNK         0.0612 
    117 H117       17.7215  -33.0044  -44.8250 H         1 UNK         0.0612 
@<TRIPOS>BOND
     1    1    2 1    
     2    1   62 1    
     3    1   63 1    
     4    1   64 1    
     5    2    3 2    
     6    2    4 am   BACKBONE|DICT|INTERRES
     7    4    5 1    
     8    4   65 1    
     9    5    6 1    
    10    5   25 1    
    11    5   66 1    
    12    6    7 1    
    13    6   67 1    
    14    6   68 1    
    15    7    8 1    
    16    8    9 1    
    17    8   69 1    
    18    8   70 1    
    19    9   10 ar   
    20    9   14 ar   
    21   10   11 ar   
    22   10   71 1    
    23   11   12 ar   
    24   11   61 1    
    25   12   13 ar   
    26   12   72 1    
    27   13   14 ar   
    28   13   15 1    
    29   14   73 1    
    30   15   16 1    
    31   15   74 1    
    32   15   75 1    
    33   16   17 1    
    34   17   18 1    
    35   17   76 1    
    36   17   77 1    
    37   18   19 1    
    38   18   27 1    
    39   18   78 1    
    40   19   20 am   BACKBONE|DICT|INTERRES
    41   19   79 1    
    42   20   21 2    
    43   20   22 1    
    44   22   23 1    
    45   22   24 1    
    46   22   80 1    
    47   23   81 1    
    48   23   82 1    
    49   23   83 1    
    50   24   25 am   BACKBONE|DICT|INTERRES
    51   24   84 1    
    52   25   26 2    
    53   27   28 2    
    54   27   29 am   BACKBONE|DICT|INTERRES
    55   29   30 1    
    56   29   85 1    
    57   30   31 1    
    58   30   32 1    
    59   30   86 1    
    60   31   87 1    
    61   31   88 1    
    62   31   89 1    
    63   32   33 2    
    64   32   34 am   BACKBONE|DICT|INTERRES
    65   34   35 1    
    66   34   90 1    
    67   35   36 1    
    68   35   37 1    
    69   35   91 1    
    70   36   92 1    
    71   36   93 1    
    72   36   94 1    
    73   37   38 2    
    74   37   39 am   BACKBONE|DICT|INTERRES
    75   39   40 1    
    76   39   95 1    
    77   40   41 1    
    78   40   42 1    
    79   40   96 1    
    80   41   97 1    
    81   41   98 1    
    82   41   99 1    
    83   42   43 2    
    84   42   44 am   BACKBONE|DICT|INTERRES
    85   44   45 1    
    86   44  100 1    
    87   45   46 1    
    88   45   47 1    
    89   45  101 1    
    90   46  102 1    
    91   46  103 1    
    92   46  104 1    
    93   47   48 2    
    94   47   49 am   BACKBONE|DICT|INTERRES
    95   49   50 1    
    96   49  105 1    
    97   50   51 1    
    98   50   52 1    
    99   50  106 1    
   100   51  107 1    
   101   51  108 1    
   102   51  109 1    
   103   52   53 2    
   104   52   54 am   BACKBONE|DICT|INTERRES
   105   54   55 1    
   106   54  110 1    
   107   55   56 1    
   108   55   59 1    
   109   55  111 1    
   110   56   57 am   BACKBONE|DICT|INTERRES
   111   56   58 2    
   112   57  112 1    
   113   57  113 1    
   114   59   60 1    
   115   59  114 1    
   116   59  115 1    
   117   60   61 1    
   118   61  116 1    
   119   61  117 1    
@<TRIPOS>SUBSTRUCTURE
     1 UNK         1 GROUP             0       ****    0 ROOT    
