@<TRIPOS>MOLECULE
3R8
117   119    1
SMALL
USER_CHARGES


@<TRIPOS>ATOM
      1 CA         21.0620  -26.2203  -49.2890 C.3       0 UNK        -0.2013 
      2 C          20.7685  -27.2662  -48.2239 C.2       0 UNK         0.4866 
      3 O          21.5235  -28.2286  -48.0904 O.2       0 UNK        -0.5176 
      4 N          19.6736  -27.0861  -47.4733 N.am      1 UNK        -0.4884 
      5 CA         19.2365  -27.9722  -46.3871 C.3       1 UNK         0.0853 
      6 C6         17.8143  -27.6072  -45.8943 C.3       10 UNK        -0.0849 
      7 S7         16.5419  -28.0453  -47.1301 S.3       10 UNK        -0.2776 
      8 C8         15.0948  -28.4722  -46.0952 C.3       10 UNK         0.0316 
      9 C9         15.4235  -29.4643  -44.9851 C.ar      10 UNK        -0.0863 
     10 C10        16.0374  -30.6841  -45.2841 C.ar      10 UNK        -0.1009 
     11 C11        16.4239  -31.5528  -44.2611 C.ar      10 UNK        -0.0712 
     12 C12        16.1478  -31.2193  -42.9317 C.ar      10 UNK        -0.0894 
     13 C13        15.5316  -30.0045  -42.6188 C.ar      10 UNK        -0.0745 
     14 C14        15.1660  -29.1339  -43.6504 C.ar      10 UNK        -0.0972 
     15 C15        15.2822  -29.6226  -41.1651 C.3       10 UNK         0.0209 
     16 S16        16.8297  -29.3737  -40.2301 S.3       10 UNK        -0.2568 
     17 C17        17.5565  -27.9208  -41.0603 C.3       10 UNK        -0.0983 
     18 CA         19.0995  -27.8901  -40.9174 C.3       3 UNK         0.0876 
     19 N          19.7331  -27.2403  -42.0659 N.am      3 UNK        -0.4424 
     20 C          21.0522  -27.1935  -42.3022 C.2       2 UNK         0.4918 
     21 O          21.9059  -27.6846  -41.5595 O.2       2 UNK        -0.4875 
     22 CA         21.4774  -26.4833  -43.6051 C.3       2 UNK         0.0481 
     23 CB         22.9413  -26.7723  -43.9819 C.3       2 UNK        -0.1831 
     24 N          20.5915  -26.7637  -44.7443 N.am      2 UNK        -0.4498 
     25 C          20.2267  -27.9714  -45.2073 C.2       1 UNK         0.5027 
     26 O          20.6193  -29.0417  -44.7415 O.2       1 UNK        -0.4969 
     27 C          19.5449  -27.2246  -39.6001 C.2       3 UNK         0.5005 
     28 O          19.6536  -25.9965  -39.5486 O.2       3 UNK        -0.5279 
     29 N          19.8430  -28.0442  -38.5828 N.am      4 UNK        -0.4463 
     30 CA         20.4035  -27.7002  -37.2650 C.3       4 UNK         0.0283 
     31 CB         19.5063  -26.7111  -36.4949 C.3       4 UNK        -0.1875 
     32 C          21.8690  -27.2194  -37.2961 C.2       4 UNK         0.4949 
     33 O          22.6029  -27.5011  -36.3487 O.2       4 UNK        -0.5039 
     34 N          22.2894  -26.5444  -38.3757 N.am      5 UNK        -0.4663 
     35 CA         23.6835  -26.1791  -38.6512 C.3       5 UNK         0.0242 
     36 CB         23.7325  -25.1598  -39.8009 C.3       5 UNK        -0.1982 
     37 C          24.5622  -27.4039  -38.9662 C.2       5 UNK         0.5017 
     38 O          25.7513  -27.3882  -38.6477 O.2       5 UNK        -0.5012 
     39 N          23.9502  -28.4425  -39.5561 N.am      6 UNK        -0.4439 
     40 CA         24.5012  -29.7768  -39.8163 C.3       6 UNK         0.0297 
     41 CB         24.8983  -30.4831  -38.5023 C.3       6 UNK        -0.2006 
     42 C          25.6155  -29.8109  -40.8779 C.2       6 UNK         0.4892 
     43 O          26.4206  -30.7436  -40.8820 O.2       6 UNK        -0.5089 
     44 N          25.6218  -28.8282  -41.7911 N.am      7 UNK        -0.4243 
     45 CA         26.5000  -28.8150  -42.9683 C.3       7 UNK         0.0196 
     46 CB         26.6569  -27.3765  -43.4870 C.3       7 UNK        -0.2007 
     47 C          26.0036  -29.7550  -44.0854 C.2       7 UNK         0.5020 
     48 O          26.7862  -30.1050  -44.9690 O.2       7 UNK        -0.5147 
     49 N          24.7280  -30.1554  -44.0202 N.am      8 UNK        -0.4734 
     50 CA         24.1013  -31.1495  -44.8839 C.3       8 UNK         0.0238 
     51 CB         23.4239  -30.4779  -46.0930 C.3       8 UNK        -0.1912 
     52 C          23.1690  -32.0026  -44.0161 C.2       8 UNK         0.5038 
     53 O          23.6262  -33.0204  -43.4943 O.2       8 UNK        -0.5046 
     54 N          21.9085  -31.5816  -43.8415 N.am      9 UNK        -0.4200 
     55 CA         20.9490  -32.2486  -42.9477 C.3       9 UNK         0.0839 
     56 C          21.2773  -31.9601  -41.4595 C.2       9 UNK         0.5513 
     57 N          21.5545  -32.9860  -40.6674 N.am      9 UNK        -0.7519 
     58 O          21.2383  -30.8186  -41.0107 O.2       9 UNK        -0.4960 
     59 C59        19.4860  -31.8601  -43.2691 C.3       10 UNK        -0.0876 
     60 S60        18.9491  -32.4563  -44.9088 S.3       10 UNK        -0.2414 
     61 C61        17.1912  -32.8223  -44.5950 C.3       10 UNK         0.0169 
     62 H62        22.0336  -25.7621  -49.1062 H         1 UNK         0.0903 
     63 H63        21.0844  -26.6849  -50.2744 H         1 UNK         0.0903 
     64 H64        20.3118  -25.4299  -49.3040 H         1 UNK         0.0903 
     65 H65        19.0743  -26.2940  -47.6579 H         1 UNK         0.3096 
     66 H66        19.2177  -28.9944  -46.7736 H         1 UNK         0.1121 
     67 H67        17.7341  -26.5419  -45.6708 H         1 UNK         0.0849 
     68 H68        17.6044  -28.1224  -44.9566 H         1 UNK         0.0849 
     69 H69        14.6832  -27.5506  -45.6805 H         1 UNK         0.0865 
     70 H70        14.3164  -28.8958  -46.7311 H         1 UNK         0.0865 
     71 H71        16.2631  -30.9338  -46.3121 H         1 UNK         0.1346 
     72 H72        16.4451  -31.8856  -42.1337 H         1 UNK         0.1412 
     73 H73        14.7027  -28.1863  -43.4109 H         1 UNK         0.1426 
     74 H74        14.7048  -30.4136  -40.6847 H         1 UNK         0.0716 
     75 H75        14.6768  -28.7173  -41.0965 H         1 UNK         0.0716 
     76 H76        17.2892  -27.9738  -42.1159 H         1 UNK         0.0695 
     77 H77        17.0902  -27.0090  -40.6815 H         1 UNK         0.0695 
     78 H78        19.4700  -28.9169  -40.9262 H         1 UNK         0.0983 
     79 H79        19.1171  -26.7720  -42.7116 H         1 UNK         0.3095 
     80 H80        21.3938  -25.4138  -43.4071 H         1 UNK         0.0454 
     81 H81        23.6116  -26.4431  -43.1881 H         1 UNK         0.0851 
     82 H82        23.1117  -27.8361  -44.1412 H         1 UNK         0.0851 
     83 H83        23.2311  -26.2460  -44.8911 H         1 UNK         0.0851 
     84 H84        20.2176  -25.9520  -45.2161 H         1 UNK         0.2976 
     85 H85        19.7412  -29.0372  -38.7485 H         1 UNK         0.3116 
     86 H86        20.4038  -28.6363  -36.7040 H         1 UNK         0.0646 
     87 H87        19.8634  -26.5820  -35.4724 H         1 UNK         0.0847 
     88 H88        18.4786  -27.0690  -36.4362 H         1 UNK         0.0847 
     89 H89        19.4931  -25.7230  -36.9554 H         1 UNK         0.0847 
     90 H90        21.5965  -26.3103  -39.0792 H         1 UNK         0.3040 
     91 H91        24.0923  -25.7058  -37.7556 H         1 UNK         0.1015 
     92 H92        23.1690  -24.2594  -39.5556 H         1 UNK         0.0786 
     93 H93        23.3246  -25.5678  -40.7253 H         1 UNK         0.0786 
     94 H94        24.7592  -24.8530  -40.0057 H         1 UNK         0.0786 
     95 H95        22.9975  -28.2975  -39.8774 H         1 UNK         0.3172 
     96 H96        23.6812  -30.3492  -40.2474 H         1 UNK         0.0595 
     97 H97        24.0843  -30.4590  -37.7776 H         1 UNK         0.0839 
     98 H98        25.7724  -30.0219  -38.0418 H         1 UNK         0.0839 
     99 H99        25.1409  -31.5317  -38.6789 H         1 UNK         0.0839 
    100 H100       24.9356  -28.0917  -41.7093 H         1 UNK         0.2998 
    101 H101       27.4886  -29.1664  -42.6641 H         1 UNK         0.0822 
    102 H102       27.4162  -27.3318  -44.2689 H         1 UNK         0.0787 
    103 H103       25.7345  -26.9932  -43.9187 H         1 UNK         0.0787 
    104 H104       26.9702  -26.6969  -42.6941 H         1 UNK         0.0787 
    105 H105       24.1734  -29.8453  -43.2348 H         1 UNK         0.3055 
    106 H106       24.8637  -31.8318  -45.2681 H         1 UNK         0.1106 
    107 H107       24.1690  -30.1190  -46.8029 H         1 UNK         0.0828 
    108 H108       22.7793  -31.1759  -46.6287 H         1 UNK         0.0828 
    109 H109       22.8199  -29.6205  -45.8061 H         1 UNK         0.0828 
    110 H110       21.5909  -30.7153  -44.2666 H         1 UNK         0.2931 
    111 H111       21.0363  -33.3252  -43.1114 H         1 UNK         0.0412 
    112 H112       21.7503  -32.8148  -39.6940 H         1 UNK         0.3472 
    113 H113       21.5938  -33.9262  -41.0296 H         1 UNK         0.3472 
    114 H114       19.3432  -30.7791  -43.2162 H         1 UNK         0.0970 
    115 H115       18.8230  -32.2880  -42.5155 H         1 UNK         0.0970 
    116 H116       16.7617  -33.2889  -45.4826 H         1 UNK         0.0612 
    117 H117       17.1054  -33.5538  -43.7899 H         1 UNK         0.0612 
@<TRIPOS>BOND
     1    1    2 1    
     2    1   62 1    
     3    1   63 1    
     4    1   64 1    
     5    2    3 2    
     6    2    4 am   BACKBONE|DICT|INTERRES
     7    4    5 1    
     8    4   65 1    
     9    5    6 1    
    10    5   25 1    
    11    5   66 1    
    12    6    7 1    
    13    6   67 1    
    14    6   68 1    
    15    7    8 1    
    16    8    9 1    
    17    8   69 1    
    18    8   70 1    
    19    9   10 ar   
    20    9   14 ar   
    21   10   11 ar   
    22   10   71 1    
    23   11   12 ar   
    24   11   61 1    
    25   12   13 ar   
    26   12   72 1    
    27   13   14 ar   
    28   13   15 1    
    29   14   73 1    
    30   15   16 1    
    31   15   74 1    
    32   15   75 1    
    33   16   17 1    
    34   17   18 1    
    35   17   76 1    
    36   17   77 1    
    37   18   19 1    
    38   18   27 1    
    39   18   78 1    
    40   19   20 am   BACKBONE|DICT|INTERRES
    41   19   79 1    
    42   20   21 2    
    43   20   22 1    
    44   22   23 1    
    45   22   24 1    
    46   22   80 1    
    47   23   81 1    
    48   23   82 1    
    49   23   83 1    
    50   24   25 am   BACKBONE|DICT|INTERRES
    51   24   84 1    
    52   25   26 2    
    53   27   28 2    
    54   27   29 am   BACKBONE|DICT|INTERRES
    55   29   30 1    
    56   29   85 1    
    57   30   31 1    
    58   30   32 1    
    59   30   86 1    
    60   31   87 1    
    61   31   88 1    
    62   31   89 1    
    63   32   33 2    
    64   32   34 am   BACKBONE|DICT|INTERRES
    65   34   35 1    
    66   34   90 1    
    67   35   36 1    
    68   35   37 1    
    69   35   91 1    
    70   36   92 1    
    71   36   93 1    
    72   36   94 1    
    73   37   38 2    
    74   37   39 am   BACKBONE|DICT|INTERRES
    75   39   40 1    
    76   39   95 1    
    77   40   41 1    
    78   40   42 1    
    79   40   96 1    
    80   41   97 1    
    81   41   98 1    
    82   41   99 1    
    83   42   43 2    
    84   42   44 am   BACKBONE|DICT|INTERRES
    85   44   45 1    
    86   44  100 1    
    87   45   46 1    
    88   45   47 1    
    89   45  101 1    
    90   46  102 1    
    91   46  103 1    
    92   46  104 1    
    93   47   48 2    
    94   47   49 am   BACKBONE|DICT|INTERRES
    95   49   50 1    
    96   49  105 1    
    97   50   51 1    
    98   50   52 1    
    99   50  106 1    
   100   51  107 1    
   101   51  108 1    
   102   51  109 1    
   103   52   53 2    
   104   52   54 am   BACKBONE|DICT|INTERRES
   105   54   55 1    
   106   54  110 1    
   107   55   56 1    
   108   55   59 1    
   109   55  111 1    
   110   56   57 am   BACKBONE|DICT|INTERRES
   111   56   58 2    
   112   57  112 1    
   113   57  113 1    
   114   59   60 1    
   115   59  114 1    
   116   59  115 1    
   117   60   61 1    
   118   61  116 1    
   119   61  117 1    
@<TRIPOS>SUBSTRUCTURE
     1 UNK         1 GROUP             0       ****    0 ROOT    
