@<TRIPOS>MOLECULE
3R8
117   119    1
SMALL
USER_CHARGES


@<TRIPOS>ATOM
      1 CA         17.4778  -21.4362  -41.4230 C.3       0 UNK        -0.2013 
      2 C          17.5908  -22.2535  -42.7013 C.2       0 UNK         0.4866 
      3 O          17.3808  -21.7187  -43.7905 O.2       0 UNK        -0.5176 
      4 N          17.9118  -23.5472  -42.5773 N.am      1 UNK        -0.4884 
      5 CA         18.1114  -24.4721  -43.6969 C.3       1 UNK         0.0853 
      6 C6         18.1515  -25.9423  -43.2208 C.3       10 UNK        -0.0849 
      7 S7         16.5164  -26.5420  -42.6768 S.3       10 UNK        -0.2776 
      8 C8         16.9483  -28.1328  -41.8770 C.3       10 UNK         0.0316 
      9 C9         17.5533  -29.2144  -42.7801 C.ar      10 UNK        -0.0863 
     10 C10        18.1049  -30.3487  -42.1774 C.ar      10 UNK        -0.1009 
     11 C11        18.6848  -31.3601  -42.9480 C.ar      10 UNK        -0.0712 
     12 C12        18.7458  -31.2173  -44.3367 C.ar      10 UNK        -0.0894 
     13 C13        18.2198  -30.0839  -44.9634 C.ar      10 UNK        -0.0745 
     14 C14        17.5802  -29.1161  -44.1774 C.ar      10 UNK        -0.0972 
     15 C15        18.3786  -29.9415  -46.4802 C.3       10 UNK         0.0209 
     16 S16        18.1418  -28.2430  -47.1182 S.3       10 UNK        -0.2568 
     17 C17        19.3907  -28.1237  -48.4472 C.3       10 UNK        -0.0983 
     18 CA         20.6141  -27.2367  -48.0881 C.3       3 UNK         0.0876 
     19 N          20.2184  -25.9634  -47.4727 N.am      3 UNK        -0.4424 
     20 C          21.0041  -24.8851  -47.3429 C.2       2 UNK         0.4918 
     21 O          22.1731  -24.8417  -47.7262 O.2       2 UNK        -0.4875 
     22 CA         20.3830  -23.6324  -46.7003 C.3       2 UNK         0.0481 
     23 CB         19.8835  -22.6731  -47.7929 C.3       2 UNK        -0.1831 
     24 N          19.2723  -23.9469  -45.7957 N.am      2 UNK        -0.4498 
     25 C          19.3987  -24.1227  -44.4728 C.2       1 UNK         0.5027 
     26 O          20.4674  -24.0317  -43.8641 O.2       1 UNK        -0.4969 
     27 C          21.6687  -27.9997  -47.2599 C.2       3 UNK         0.5005 
     28 O          22.5944  -28.5711  -47.8390 O.2       3 UNK        -0.5279 
     29 N          21.5304  -27.9672  -45.9308 N.am      4 UNK        -0.4463 
     30 CA         22.4525  -28.5183  -44.9436 C.3       4 UNK         0.0283 
     31 CB         22.4054  -30.0591  -44.9423 C.3       4 UNK        -0.1875 
     32 C          22.0444  -27.9725  -43.5730 C.2       4 UNK         0.4949 
     33 O          20.8884  -27.5866  -43.3930 O.2       4 UNK        -0.5039 
     34 N          22.9862  -27.9721  -42.6249 N.am      5 UNK        -0.4663 
     35 CA         22.7027  -27.7250  -41.2120 C.3       5 UNK         0.0242 
     36 CB         23.9761  -27.2123  -40.5192 C.3       5 UNK        -0.1982 
     37 C          22.2354  -29.0362  -40.5683 C.2       5 UNK         0.5017 
     38 O          22.8559  -30.0711  -40.8155 O.2       5 UNK        -0.5012 
     39 N          21.1999  -28.9747  -39.7201 N.am      6 UNK        -0.4439 
     40 CA         20.5995  -30.1401  -39.0549 C.3       6 UNK         0.0297 
     41 CB         19.3773  -29.6916  -38.2384 C.3       6 UNK        -0.2006 
     42 C          21.5742  -30.9458  -38.1740 C.2       6 UNK         0.4892 
     43 O          21.4116  -32.1592  -38.0488 O.2       6 UNK        -0.5089 
     44 N          22.5850  -30.2676  -37.6125 N.am      7 UNK        -0.4243 
     45 CA         23.6777  -30.8778  -36.8524 C.3       7 UNK         0.0196 
     46 CB         24.4274  -29.7804  -36.0799 C.3       7 UNK        -0.2007 
     47 C          24.6583  -31.6809  -37.7278 C.2       7 UNK         0.5020 
     48 O          25.2714  -32.6232  -37.2263 O.2       7 UNK        -0.5147 
     49 N          24.7951  -31.3102  -39.0095 N.am      8 UNK        -0.4734 
     50 CA         25.6565  -31.9961  -39.9780 C.3       8 UNK         0.0238 
     51 CB         26.0845  -31.0077  -41.0762 C.3       8 UNK        -0.1912 
     52 C          24.9797  -33.2322  -40.5938 C.2       8 UNK         0.5038 
     53 O          25.6836  -34.1057  -41.1023 O.2       8 UNK        -0.5046 
     54 N          23.6425  -33.2925  -40.5323 N.am      9 UNK        -0.4200 
     55 CA         22.8228  -34.4233  -40.9952 C.3       9 UNK         0.0839 
     56 C          22.9659  -35.7202  -40.1444 C.2       9 UNK         0.5513 
     57 N          23.5521  -35.6799  -38.9533 N.am      9 UNK        -0.7519 
     58 O          22.5374  -36.7862  -40.5790 O.2       9 UNK        -0.4960 
     59 C59        21.3284  -34.0341  -41.1347 C.3       10 UNK        -0.0876 
     60 S60        21.0501  -32.6043  -42.2303 S.3       10 UNK        -0.2414 
     61 C61        19.2347  -32.6114  -42.2819 C.3       10 UNK         0.0169 
     62 H62        16.4752  -21.0191  -41.3318 H         1 UNK         0.0903 
     63 H63        17.6770  -22.0365  -40.5355 H         1 UNK         0.0903 
     64 H64        18.1898  -20.6115  -41.4413 H         1 UNK         0.0903 
     65 H65        18.0811  -23.9327  -41.6594 H         1 UNK         0.3096 
     66 H66        17.2632  -24.3579  -44.3760 H         1 UNK         0.1121 
     67 H67        18.4977  -26.5862  -44.0294 H         1 UNK         0.0849 
     68 H68        18.8714  -26.0672  -42.4095 H         1 UNK         0.0849 
     69 H69        17.6399  -27.9245  -41.0592 H         1 UNK         0.0865 
     70 H70        16.0450  -28.5369  -41.4182 H         1 UNK         0.0865 
     71 H71        18.0758  -30.4489  -41.1012 H         1 UNK         0.1346 
     72 H72        19.2205  -31.9883  -44.9284 H         1 UNK         0.1412 
     73 H73        17.1230  -28.2652  -44.6560 H         1 UNK         0.1426 
     74 H74        19.3780  -30.2834  -46.7536 H         1 UNK         0.0716 
     75 H75        17.6731  -30.6070  -46.9790 H         1 UNK         0.0716 
     76 H76        19.7008  -29.1192  -48.7713 H         1 UNK         0.0695 
     77 H77        18.8860  -27.6890  -49.3112 H         1 UNK         0.0695 
     78 H78        21.1075  -26.9863  -49.0303 H         1 UNK         0.0983 
     79 H79        19.2696  -25.9238  -47.1320 H         1 UNK         0.3095 
     80 H80        21.1732  -23.1202  -46.1471 H         1 UNK         0.0454 
     81 H81        19.0946  -23.1207  -48.3987 H         1 UNK         0.0851 
     82 H82        19.4936  -21.7507  -47.3620 H         1 UNK         0.0851 
     83 H83        20.6938  -22.3950  -48.4684 H         1 UNK         0.0851 
     84 H84        18.3526  -24.0011  -46.2108 H         1 UNK         0.2976 
     85 H85        20.7413  -27.4828  -45.5191 H         1 UNK         0.3116 
     86 H86        23.4632  -28.1761  -45.1749 H         1 UNK         0.0646 
     87 H87        23.0631  -30.4727  -44.1763 H         1 UNK         0.0847 
     88 H88        22.7220  -30.4766  -45.8976 H         1 UNK         0.0847 
     89 H89        21.4010  -30.4252  -44.7323 H         1 UNK         0.0847 
     90 H90        23.8962  -28.3537  -42.8395 H         1 UNK         0.3040 
     91 H91        21.9204  -26.9679  -41.1182 H         1 UNK         0.1015 
     92 H92        24.3283  -26.2868  -40.9750 H         1 UNK         0.0786 
     93 H93        24.7877  -27.9399  -40.5693 H         1 UNK         0.0786 
     94 H94        23.7904  -27.0029  -39.4649 H         1 UNK         0.0786 
     95 H95        20.7576  -28.0818  -39.5553 H         1 UNK         0.3172 
     96 H96        20.2518  -30.8132  -39.8408 H         1 UNK         0.0595 
     97 H97        18.8931  -30.5453  -37.7619 H         1 UNK         0.0839 
     98 H98        18.6300  -29.2101  -38.8691 H         1 UNK         0.0839 
     99 H99        19.6532  -28.9919  -37.4485 H         1 UNK         0.0839 
    100 H100       22.6329  -29.2708  -37.7639 H         1 UNK         0.2998 
    101 H101       23.2427  -31.5702  -36.1281 H         1 UNK         0.0822 
    102 H102       23.7632  -29.2507  -35.3967 H         1 UNK         0.0787 
    103 H103       25.2328  -30.2069  -35.4800 H         1 UNK         0.0787 
    104 H104       24.8753  -29.0468  -36.7517 H         1 UNK         0.0787 
    105 H105       24.1954  -30.5828  -39.3841 H         1 UNK         0.3055 
    106 H106       26.5583  -32.3409  -39.4664 H         1 UNK         0.1106 
    107 H107       26.5692  -30.1278  -40.6535 H         1 UNK         0.0828 
    108 H108       26.7969  -31.4728  -41.7588 H         1 UNK         0.0828 
    109 H109       25.2381  -30.6717  -41.6754 H         1 UNK         0.0828 
    110 H110       23.1411  -32.5106  -40.1348 H         1 UNK         0.2931 
    111 H111       23.1825  -34.6811  -41.9933 H         1 UNK         0.0412 
    112 H112       23.6396  -36.5284  -38.4162 H         1 UNK         0.3472 
    113 H113       23.9052  -34.8100  -38.5856 H         1 UNK         0.3472 
    114 H114       20.9026  -33.8078  -40.1554 H         1 UNK         0.0970 
    115 H115       20.7550  -34.8750  -41.5302 H         1 UNK         0.0970 
    116 H116       18.8929  -33.4954  -42.8222 H         1 UNK         0.0612 
    117 H117       18.8468  -32.6999  -41.2657 H         1 UNK         0.0612 
@<TRIPOS>BOND
     1    1    2 1    
     2    1   62 1    
     3    1   63 1    
     4    1   64 1    
     5    2    3 2    
     6    2    4 am   BACKBONE|DICT|INTERRES
     7    4    5 1    
     8    4   65 1    
     9    5    6 1    
    10    5   25 1    
    11    5   66 1    
    12    6    7 1    
    13    6   67 1    
    14    6   68 1    
    15    7    8 1    
    16    8    9 1    
    17    8   69 1    
    18    8   70 1    
    19    9   10 ar   
    20    9   14 ar   
    21   10   11 ar   
    22   10   71 1    
    23   11   12 ar   
    24   11   61 1    
    25   12   13 ar   
    26   12   72 1    
    27   13   14 ar   
    28   13   15 1    
    29   14   73 1    
    30   15   16 1    
    31   15   74 1    
    32   15   75 1    
    33   16   17 1    
    34   17   18 1    
    35   17   76 1    
    36   17   77 1    
    37   18   19 1    
    38   18   27 1    
    39   18   78 1    
    40   19   20 am   BACKBONE|DICT|INTERRES
    41   19   79 1    
    42   20   21 2    
    43   20   22 1    
    44   22   23 1    
    45   22   24 1    
    46   22   80 1    
    47   23   81 1    
    48   23   82 1    
    49   23   83 1    
    50   24   25 am   BACKBONE|DICT|INTERRES
    51   24   84 1    
    52   25   26 2    
    53   27   28 2    
    54   27   29 am   BACKBONE|DICT|INTERRES
    55   29   30 1    
    56   29   85 1    
    57   30   31 1    
    58   30   32 1    
    59   30   86 1    
    60   31   87 1    
    61   31   88 1    
    62   31   89 1    
    63   32   33 2    
    64   32   34 am   BACKBONE|DICT|INTERRES
    65   34   35 1    
    66   34   90 1    
    67   35   36 1    
    68   35   37 1    
    69   35   91 1    
    70   36   92 1    
    71   36   93 1    
    72   36   94 1    
    73   37   38 2    
    74   37   39 am   BACKBONE|DICT|INTERRES
    75   39   40 1    
    76   39   95 1    
    77   40   41 1    
    78   40   42 1    
    79   40   96 1    
    80   41   97 1    
    81   41   98 1    
    82   41   99 1    
    83   42   43 2    
    84   42   44 am   BACKBONE|DICT|INTERRES
    85   44   45 1    
    86   44  100 1    
    87   45   46 1    
    88   45   47 1    
    89   45  101 1    
    90   46  102 1    
    91   46  103 1    
    92   46  104 1    
    93   47   48 2    
    94   47   49 am   BACKBONE|DICT|INTERRES
    95   49   50 1    
    96   49  105 1    
    97   50   51 1    
    98   50   52 1    
    99   50  106 1    
   100   51  107 1    
   101   51  108 1    
   102   51  109 1    
   103   52   53 2    
   104   52   54 am   BACKBONE|DICT|INTERRES
   105   54   55 1    
   106   54  110 1    
   107   55   56 1    
   108   55   59 1    
   109   55  111 1    
   110   56   57 am   BACKBONE|DICT|INTERRES
   111   56   58 2    
   112   57  112 1    
   113   57  113 1    
   114   59   60 1    
   115   59  114 1    
   116   59  115 1    
   117   60   61 1    
   118   61  116 1    
   119   61  117 1    
@<TRIPOS>SUBSTRUCTURE
     1 UNK         1 GROUP             0       ****    0 ROOT    
