@<TRIPOS>MOLECULE
3R8
117   119    1
SMALL
USER_CHARGES


@<TRIPOS>ATOM
      1 CA         15.3474  -23.0001  -41.5752 C.3       0 UNK        -0.2013 
      2 C          16.2600  -23.4102  -42.7214 C.2       0 UNK         0.4866 
      3 O          17.1608  -22.6541  -43.0848 O.2       0 UNK        -0.5176 
      4 N          16.0223  -24.5948  -43.2973 N.am      1 UNK        -0.4884 
      5 CA         16.8243  -25.2049  -44.3605 C.3       1 UNK         0.0853 
      6 C6         15.9932  -26.2115  -45.2076 C.3       10 UNK        -0.0849 
      7 S7         15.0090  -27.4139  -44.2336 S.3       10 UNK        -0.2776 
      8 C8         15.1520  -28.9332  -45.2268 C.3       10 UNK         0.0316 
      9 C9         16.4939  -29.6284  -45.0387 C.ar      10 UNK        -0.0863 
     10 C10        16.7128  -30.4429  -43.9226 C.ar      10 UNK        -0.1009 
     11 C11        17.9198  -31.1330  -43.7751 C.ar      10 UNK        -0.0712 
     12 C12        18.9095  -31.0004  -44.7525 C.ar      10 UNK        -0.0894 
     13 C13        18.7176  -30.1694  -45.8643 C.ar      10 UNK        -0.0745 
     14 C14        17.5000  -29.4948  -46.0007 C.ar      10 UNK        -0.0972 
     15 C15        19.7766  -30.0006  -46.9565 C.3       10 UNK         0.0209 
     16 S16        21.4786  -30.4886  -46.4922 S.3       10 UNK        -0.2568 
     17 C17        22.3118  -29.0507  -45.7168 C.3       10 UNK        -0.0983 
     18 CA         21.5456  -27.7052  -45.5384 C.3       3 UNK         0.0876 
     19 N          20.3863  -27.8082  -44.6390 N.am      3 UNK        -0.4424 
     20 C          20.4020  -27.9985  -43.3099 C.2       2 UNK         0.4918 
     21 O          21.4277  -28.2394  -42.6717 O.2       2 UNK        -0.4875 
     22 CA         19.0633  -27.8068  -42.5606 C.3       2 UNK         0.0481 
     23 CB         19.2655  -27.1734  -41.1693 C.3       2 UNK        -0.1831 
     24 N          18.0401  -27.0495  -43.2951 N.am      2 UNK        -0.4498 
     25 C          18.1198  -25.7980  -43.7694 C.2       1 UNK         0.5027 
     26 O          19.1532  -25.1270  -43.7547 O.2       1 UNK        -0.4969 
     27 C          22.5054  -26.5596  -45.1109 C.2       3 UNK         0.5005 
     28 O          23.7016  -26.6281  -45.4001 O.2       3 UNK        -0.5279 
     29 N          21.9934  -25.5585  -44.3722 N.am      4 UNK        -0.4463 
     30 CA         22.6933  -24.4940  -43.6359 C.3       4 UNK         0.0283 
     31 CB         23.4748  -23.5659  -44.5855 C.3       4 UNK        -0.1875 
     32 C          23.5920  -24.9876  -42.4803 C.2       4 UNK         0.4949 
     33 O          23.6229  -24.3469  -41.4299 O.2       4 UNK        -0.5039 
     34 N          24.3133  -26.0952  -42.6892 N.am      5 UNK        -0.4663 
     35 CA         25.2913  -26.6741  -41.7675 C.3       5 UNK         0.0242 
     36 CB         26.1614  -27.6796  -42.5401 C.3       5 UNK        -0.1982 
     37 C          24.6868  -27.3525  -40.5275 C.2       5 UNK         0.5017 
     38 O          25.3816  -27.4483  -39.5154 O.2       5 UNK        -0.5012 
     39 N          23.4483  -27.8599  -40.6288 N.am      6 UNK        -0.4439 
     40 CA         22.6786  -28.6131  -39.6231 C.3       6 UNK         0.0297 
     41 CB         22.4285  -27.7823  -38.3505 C.3       6 UNK        -0.2006 
     42 C          23.2299  -30.0103  -39.2862 C.2       6 UNK         0.4892 
     43 O          22.4423  -30.9461  -39.1489 O.2       6 UNK        -0.5089 
     44 N          24.5589  -30.1520  -39.2078 N.am      7 UNK        -0.4243 
     45 CA         25.2812  -31.4091  -38.9799 C.3       7 UNK         0.0196 
     46 CB         26.7748  -31.0951  -38.7962 C.3       7 UNK        -0.2007 
     47 C          25.0848  -32.4609  -40.0900 C.2       7 UNK         0.5020 
     48 O          25.3386  -33.6418  -39.8534 O.2       7 UNK        -0.5147 
     49 N          24.6368  -32.0213  -41.2739 N.am      8 UNK        -0.4734 
     50 CA         24.2752  -32.8735  -42.4073 C.3       8 UNK         0.0238 
     51 CB         24.1334  -31.9944  -43.6605 C.3       8 UNK        -0.1912 
     52 C          22.9828  -33.6810  -42.1826 C.2       8 UNK         0.5038 
     53 O          22.8207  -34.7253  -42.8156 O.2       8 UNK        -0.5046 
     54 N          22.0834  -33.1855  -41.3213 N.am      9 UNK        -0.4200 
     55 CA         20.7986  -33.8248  -41.0066 C.3       9 UNK         0.0839 
     56 C          20.9719  -35.0550  -40.0777 C.2       9 UNK         0.5513 
     57 N          20.1540  -36.0836  -40.2546 N.am      9 UNK        -0.7519 
     58 O          21.8053  -35.0696  -39.1744 O.2       9 UNK        -0.4960 
     59 C59        19.7799  -32.8199  -40.4085 C.3       10 UNK        -0.0876 
     60 S60        19.4799  -31.3914  -41.5017 S.3       10 UNK        -0.2414 
     61 C61        18.1607  -32.0401  -42.5761 C.3       10 UNK         0.0169 
     62 H62        14.5890  -23.7546  -41.3667 H         1 UNK         0.0903 
     63 H63        15.9310  -22.8466  -40.6679 H         1 UNK         0.0903 
     64 H64        14.8392  -22.0665  -41.8156 H         1 UNK         0.0903 
     65 H65        15.2676  -25.1735  -42.9538 H         1 UNK         0.3096 
     66 H66        17.1430  -24.4100  -45.0395 H         1 UNK         0.1121 
     67 H67        15.2877  -25.6522  -45.8242 H         1 UNK         0.0849 
     68 H68        16.6368  -26.7330  -45.9172 H         1 UNK         0.0849 
     69 H69        14.9765  -28.7018  -46.2787 H         1 UNK         0.0865 
     70 H70        14.3520  -29.6156  -44.9353 H         1 UNK         0.0865 
     71 H71        15.9366  -30.5492  -43.1767 H         1 UNK         0.1346 
     72 H72        19.8327  -31.5480  -44.6280 H         1 UNK         0.1412 
     73 H73        17.3287  -28.8763  -46.8715 H         1 UNK         0.1426 
     74 H74        19.7731  -28.9827  -47.3448 H         1 UNK         0.0716 
     75 H75        19.4776  -30.6336  -47.7928 H         1 UNK         0.0716 
     76 H76        23.1961  -28.8922  -46.3364 H         1 UNK         0.0695 
     77 H77        22.6978  -29.3795  -44.7519 H         1 UNK         0.0695 
     78 H78        21.1672  -27.3975  -46.5131 H         1 UNK         0.0983 
     79 H79        19.4871  -27.6367  -45.0622 H         1 UNK         0.3095 
     80 H80        18.6413  -28.7978  -42.4127 H         1 UNK         0.0454 
     81 H81        18.3131  -26.9298  -40.6987 H         1 UNK         0.0851 
     82 H82        19.8575  -26.2588  -41.2221 H         1 UNK         0.0851 
     83 H83        19.7766  -27.8614  -40.4998 H         1 UNK         0.0851 
     84 H84        17.1484  -27.5198  -43.4025 H         1 UNK         0.2976 
     85 H85        20.9928  -25.5849  -44.1889 H         1 UNK         0.3116 
     86 H86        21.9022  -23.8985  -43.1770 H         1 UNK         0.0646 
     87 H87        23.8939  -22.7190  -44.0407 H         1 UNK         0.0847 
     88 H88        22.8293  -23.1619  -45.3652 H         1 UNK         0.0847 
     89 H89        24.3058  -24.0792  -45.0697 H         1 UNK         0.0847 
     90 H90        24.2385  -26.5176  -43.6116 H         1 UNK         0.3040 
     91 H91        25.9342  -25.8664  -41.4102 H         1 UNK         0.1015 
     92 H92        26.6814  -27.1986  -43.3689 H         1 UNK         0.0786 
     93 H93        25.5666  -28.4980  -42.9484 H         1 UNK         0.0786 
     94 H94        26.9229  -28.1191  -41.8939 H         1 UNK         0.0786 
     95 H95        22.9709  -27.7684  -41.5224 H         1 UNK         0.3172 
     96 H96        21.7112  -28.7967  -40.0856 H         1 UNK         0.0595 
     97 H97        23.3509  -27.5738  -37.8081 H         1 UNK         0.0839 
     98 H98        21.7648  -28.3126  -37.6663 H         1 UNK         0.0839 
     99 H99        21.9551  -26.8295  -38.5879 H         1 UNK         0.0839 
    100 H100       25.1152  -29.3061  -39.2999 H         1 UNK         0.2998 
    101 H101       24.9016  -31.8449  -38.0534 H         1 UNK         0.0822 
    102 H102       27.2015  -30.6335  -39.6878 H         1 UNK         0.0787 
    103 H103       26.9379  -30.4183  -37.9571 H         1 UNK         0.0787 
    104 H104       27.3443  -32.0033  -38.5936 H         1 UNK         0.0787 
    105 H105       24.4674  -31.0316  -41.3745 H         1 UNK         0.3055 
    106 H106       25.0849  -33.5881  -42.5716 H         1 UNK         0.1106 
    107 H107       23.9045  -32.5989  -44.5394 H         1 UNK         0.0828 
    108 H108       23.3262  -31.2700  -43.5480 H         1 UNK         0.0828 
    109 H109       25.0521  -31.4481  -43.8745 H         1 UNK         0.0828 
    110 H110       22.3041  -32.3515  -40.7912 H         1 UNK         0.2931 
    111 H111       20.3811  -34.1843  -41.9496 H         1 UNK         0.0412 
    112 H112       19.4610  -36.0803  -40.9872 H         1 UNK         0.3472 
    113 H113       20.2389  -36.8868  -39.6507 H         1 UNK         0.3472 
    114 H114       18.8270  -33.3103  -40.2008 H         1 UNK         0.0970 
    115 H115       20.1394  -32.4415  -39.4496 H         1 UNK         0.0970 
    116 H116       18.4369  -33.0323  -42.9351 H         1 UNK         0.0612 
    117 H117       17.2493  -32.1618  -41.9890 H         1 UNK         0.0612 
@<TRIPOS>BOND
     1    1    2 1    
     2    1   62 1    
     3    1   63 1    
     4    1   64 1    
     5    2    3 2    
     6    2    4 am   BACKBONE|DICT|INTERRES
     7    4    5 1    
     8    4   65 1    
     9    5    6 1    
    10    5   25 1    
    11    5   66 1    
    12    6    7 1    
    13    6   67 1    
    14    6   68 1    
    15    7    8 1    
    16    8    9 1    
    17    8   69 1    
    18    8   70 1    
    19    9   10 ar   
    20    9   14 ar   
    21   10   11 ar   
    22   10   71 1    
    23   11   12 ar   
    24   11   61 1    
    25   12   13 ar   
    26   12   72 1    
    27   13   14 ar   
    28   13   15 1    
    29   14   73 1    
    30   15   16 1    
    31   15   74 1    
    32   15   75 1    
    33   16   17 1    
    34   17   18 1    
    35   17   76 1    
    36   17   77 1    
    37   18   19 1    
    38   18   27 1    
    39   18   78 1    
    40   19   20 am   BACKBONE|DICT|INTERRES
    41   19   79 1    
    42   20   21 2    
    43   20   22 1    
    44   22   23 1    
    45   22   24 1    
    46   22   80 1    
    47   23   81 1    
    48   23   82 1    
    49   23   83 1    
    50   24   25 am   BACKBONE|DICT|INTERRES
    51   24   84 1    
    52   25   26 2    
    53   27   28 2    
    54   27   29 am   BACKBONE|DICT|INTERRES
    55   29   30 1    
    56   29   85 1    
    57   30   31 1    
    58   30   32 1    
    59   30   86 1    
    60   31   87 1    
    61   31   88 1    
    62   31   89 1    
    63   32   33 2    
    64   32   34 am   BACKBONE|DICT|INTERRES
    65   34   35 1    
    66   34   90 1    
    67   35   36 1    
    68   35   37 1    
    69   35   91 1    
    70   36   92 1    
    71   36   93 1    
    72   36   94 1    
    73   37   38 2    
    74   37   39 am   BACKBONE|DICT|INTERRES
    75   39   40 1    
    76   39   95 1    
    77   40   41 1    
    78   40   42 1    
    79   40   96 1    
    80   41   97 1    
    81   41   98 1    
    82   41   99 1    
    83   42   43 2    
    84   42   44 am   BACKBONE|DICT|INTERRES
    85   44   45 1    
    86   44  100 1    
    87   45   46 1    
    88   45   47 1    
    89   45  101 1    
    90   46  102 1    
    91   46  103 1    
    92   46  104 1    
    93   47   48 2    
    94   47   49 am   BACKBONE|DICT|INTERRES
    95   49   50 1    
    96   49  105 1    
    97   50   51 1    
    98   50   52 1    
    99   50  106 1    
   100   51  107 1    
   101   51  108 1    
   102   51  109 1    
   103   52   53 2    
   104   52   54 am   BACKBONE|DICT|INTERRES
   105   54   55 1    
   106   54  110 1    
   107   55   56 1    
   108   55   59 1    
   109   55  111 1    
   110   56   57 am   BACKBONE|DICT|INTERRES
   111   56   58 2    
   112   57  112 1    
   113   57  113 1    
   114   59   60 1    
   115   59  114 1    
   116   59  115 1    
   117   60   61 1    
   118   61  116 1    
   119   61  117 1    
@<TRIPOS>SUBSTRUCTURE
     1 UNK         1 GROUP             0       ****    0 ROOT    
