@<TRIPOS>MOLECULE
3R8
117   119    1
SMALL
USER_CHARGES


@<TRIPOS>ATOM
      1 CA         16.1667  -23.5084  -47.1800 C.3       0 UNK        -0.2013 
      2 C          17.3581  -24.4527  -47.1261 C.2       0 UNK         0.4866 
      3 O          18.3346  -24.2482  -47.8475 O.2       0 UNK        -0.5176 
      4 N          17.2858  -25.4862  -46.2767 N.am      1 UNK        -0.4884 
      5 CA         18.3320  -26.5057  -46.1074 C.3       1 UNK         0.0853 
      6 C6         17.8048  -27.7554  -45.3618 C.3       10 UNK        -0.0849 
      7 S7         16.4526  -28.5945  -46.2526 S.3       10 UNK        -0.2776 
      8 C8         15.4575  -29.2472  -44.8701 C.3       10 UNK         0.0316 
      9 C9         16.2792  -30.1148  -43.9237 C.ar      10 UNK        -0.0863 
     10 C10        16.8391  -31.3146  -44.3741 C.ar      10 UNK        -0.1009 
     11 C11        17.6102  -32.1044  -43.5166 C.ar      10 UNK        -0.0712 
     12 C12        17.8067  -31.6949  -42.1944 C.ar      10 UNK        -0.0894 
     13 C13        17.2373  -30.5071  -41.7260 C.ar      10 UNK        -0.0745 
     14 C14        16.4774  -29.7190  -42.5963 C.ar      10 UNK        -0.0972 
     15 C15        17.4174  -30.1007  -40.2697 C.3       10 UNK         0.0209 
     16 S16        19.0789  -29.4372  -39.9353 S.3       10 UNK        -0.2568 
     17 C17        18.9369  -27.7297  -40.5614 C.3       10 UNK        -0.0983 
     18 CA         20.2775  -27.1668  -41.0984 C.3       3 UNK         0.0876 
     19 N          20.0400  -26.0448  -42.0193 N.am      3 UNK        -0.4424 
     20 C          20.9658  -25.3108  -42.6556 C.2       2 UNK         0.4918 
     21 O          22.1776  -25.4115  -42.4597 O.2       2 UNK        -0.4875 
     22 CA         20.4296  -24.3057  -43.6937 C.3       2 UNK         0.0481 
     23 CB         21.5535  -23.6358  -44.5125 C.3       2 UNK        -0.1831 
     24 N          19.4216  -24.9112  -44.5754 N.am      2 UNK        -0.4498 
     25 C          19.5867  -25.9722  -45.3850 C.2       1 UNK         0.5027 
     26 O          20.6604  -26.5510  -45.5535 O.2       1 UNK        -0.4969 
     27 C          21.2622  -26.8445  -39.9509 C.2       3 UNK         0.5005 
     28 O          22.0655  -27.7015  -39.5840 O.2       3 UNK        -0.5279 
     29 N          21.2303  -25.6015  -39.4470 N.am      4 UNK        -0.4463 
     30 CA         22.1413  -25.0905  -38.4165 C.3       4 UNK         0.0283 
     31 CB         21.6984  -23.6768  -38.0063 C.3       4 UNK        -0.1875 
     32 C          23.6282  -25.0868  -38.8267 C.2       4 UNK         0.4949 
     33 O          24.4871  -25.1813  -37.9495 O.2       4 UNK        -0.5039 
     34 N          23.9048  -24.9813  -40.1333 N.am      5 UNK        -0.4663 
     35 CA         25.2484  -25.0479  -40.7095 C.3       5 UNK         0.0242 
     36 CB         25.4151  -23.9111  -41.7321 C.3       5 UNK        -0.1982 
     37 C          25.5046  -26.4085  -41.3751 C.2       5 UNK         0.5017 
     38 O          26.5982  -26.9544  -41.2269 O.2       5 UNK        -0.5012 
     39 N          24.5062  -26.9216  -42.1079 N.am      6 UNK        -0.4439 
     40 CA         24.5893  -28.1527  -42.8968 C.3       6 UNK         0.0297 
     41 CB         23.4211  -28.1894  -43.8963 C.3       6 UNK        -0.2006 
     42 C          24.6148  -29.4438  -42.0601 C.2       6 UNK         0.4892 
     43 O          25.1783  -30.4342  -42.5281 O.2       6 UNK        -0.5089 
     44 N          24.0074  -29.4158  -40.8634 N.am      7 UNK        -0.4243 
     45 CA         23.7749  -30.5507  -39.9624 C.3       7 UNK         0.0196 
     46 CB         25.1089  -31.1381  -39.4455 C.3       7 UNK        -0.2007 
     47 C          22.8244  -31.5954  -40.5857 C.2       7 UNK         0.5020 
     48 O          21.9866  -31.2422  -41.4185 O.2       7 UNK        -0.5147 
     49 N          22.9346  -32.8567  -40.1476 N.am      8 UNK        -0.4734 
     50 CA         22.1456  -33.9807  -40.6579 C.3       8 UNK         0.0238 
     51 CB         22.3278  -35.1908  -39.7271 C.3       8 UNK        -0.1912 
     52 C          22.5409  -34.3425  -42.1001 C.2       8 UNK         0.5038 
     53 O          23.7287  -34.3148  -42.4321 O.2       8 UNK        -0.5046 
     54 N          21.5409  -34.6992  -42.9137 N.am      9 UNK        -0.4200 
     55 CA         21.7000  -35.0334  -44.3397 C.3       9 UNK         0.0839 
     56 C          22.2754  -36.4534  -44.6156 C.2       9 UNK         0.5513 
     57 N          22.4264  -37.3194  -43.6205 N.am      9 UNK        -0.7519 
     58 O          22.5958  -36.7734  -45.7575 O.2       9 UNK        -0.4960 
     59 C59        20.3891  -34.7979  -45.1379 C.3       10 UNK        -0.0876 
     60 S60        19.7481  -33.0971  -44.9552 S.3       10 UNK        -0.2414 
     61 C61        18.2219  -33.4037  -44.0151 C.3       10 UNK         0.0169 
     62 H62        15.3753  -23.8092  -46.4937 H         1 UNK         0.0903 
     63 H63        16.4770  -22.4973  -46.9177 H         1 UNK         0.0903 
     64 H64        15.7511  -23.4867  -48.1871 H         1 UNK         0.0903 
     65 H65        16.4453  -25.6266  -45.7336 H         1 UNK         0.3096 
     66 H66        18.6578  -26.8181  -47.1025 H         1 UNK         0.1121 
     67 H67        17.4653  -27.4813  -44.3611 H         1 UNK         0.0849 
     68 H68        18.6016  -28.4895  -45.2205 H         1 UNK         0.0849 
     69 H69        15.0003  -28.4124  -44.3366 H         1 UNK         0.0865 
     70 H70        14.6341  -29.8382  -45.2736 H         1 UNK         0.0865 
     71 H71        16.6889  -31.6251  -45.3994 H         1 UNK         0.1346 
     72 H72        18.4014  -32.3010  -41.5245 H         1 UNK         0.1412 
     73 H73        16.0360  -28.7993  -42.2371 H         1 UNK         0.1426 
     74 H74        17.2581  -30.9735  -39.6347 H         1 UNK         0.0716 
     75 H75        16.6647  -29.3692  -39.9708 H         1 UNK         0.0716 
     76 H76        18.5231  -27.0931  -39.7769 H         1 UNK         0.0695 
     77 H77        18.1980  -27.7347  -41.3634 H         1 UNK         0.0695 
     78 H78        20.7493  -27.9461  -41.7008 H         1 UNK         0.0983 
     79 H79        19.0734  -25.8643  -42.2452 H         1 UNK         0.3095 
     80 H80        19.9202  -23.5225  -43.1308 H         1 UNK         0.0454 
     81 H81        22.2343  -23.0852  -43.8621 H         1 UNK         0.0851 
     82 H82        21.1498  -22.9259  -45.2341 H         1 UNK         0.0851 
     83 H83        22.1507  -24.3665  -45.0589 H         1 UNK         0.0851 
     84 H84        18.4960  -24.5078  -44.5313 H         1 UNK         0.2976 
     85 H85        20.5475  -24.9548  -39.8147 H         1 UNK         0.3116 
     86 H86        22.0482  -25.7431  -37.5458 H         1 UNK         0.0646 
     87 H87        22.3405  -23.2805  -37.2183 H         1 UNK         0.0847 
     88 H88        21.7448  -22.9797  -38.8439 H         1 UNK         0.0847 
     89 H89        20.6789  -23.6743  -37.6205 H         1 UNK         0.0847 
     90 H90        23.1337  -24.9439  -40.7914 H         1 UNK         0.3040 
     91 H91        26.0037  -24.9139  -39.9316 H         1 UNK         0.1015 
     92 H92        26.4079  -23.9346  -42.1836 H         1 UNK         0.0786 
     93 H93        25.2973  -22.9357  -41.2598 H         1 UNK         0.0786 
     94 H94        24.6861  -23.9806  -42.5409 H         1 UNK         0.0786 
     95 H95        23.6476  -26.3822  -42.2030 H         1 UNK         0.3172 
     96 H96        25.5185  -28.1168  -43.4695 H         1 UNK         0.0595 
     97 H97        22.4566  -28.2322  -43.3900 H         1 UNK         0.0839 
     98 H98        23.4865  -29.0665  -44.5414 H         1 UNK         0.0839 
     99 H99        23.4183  -27.3112  -44.5426 H         1 UNK         0.0839 
    100 H100       23.5213  -28.5669  -40.5897 H         1 UNK         0.2998 
    101 H101       23.2427  -30.1388  -39.1039 H         1 UNK         0.0822 
    102 H102       24.9485  -31.8059  -38.5987 H         1 UNK         0.0787 
    103 H103       25.6326  -31.7028  -40.2179 H         1 UNK         0.0787 
    104 H104       25.7779  -30.3490  -39.1016 H         1 UNK         0.0787 
    105 H105       23.6670  -33.0765  -39.4887 H         1 UNK         0.3055 
    106 H106       21.0939  -33.6847  -40.6439 H         1 UNK         0.1106 
    107 H107       22.0227  -34.9575  -38.7067 H         1 UNK         0.0828 
    108 H108       21.7212  -36.0346  -40.0586 H         1 UNK         0.0828 
    109 H109       23.3653  -35.5269  -39.6995 H         1 UNK         0.0828 
    110 H110       20.5974  -34.7187  -42.5590 H         1 UNK         0.2931 
    111 H111       22.4400  -34.3405  -44.7460 H         1 UNK         0.0412 
    112 H112       22.1741  -37.0665  -42.6790 H         1 UNK         0.3472 
    113 H113       22.8039  -38.2340  -43.8144 H         1 UNK         0.3472 
    114 H114       20.5602  -34.9669  -46.2029 H         1 UNK         0.0970 
    115 H115       19.6251  -35.5191  -44.8419 H         1 UNK         0.0970 
    116 H116       17.5075  -33.9316  -44.6488 H         1 UNK         0.0612 
    117 H117       18.4373  -34.0638  -43.1737 H         1 UNK         0.0612 
@<TRIPOS>BOND
     1    1    2 1    
     2    1   62 1    
     3    1   63 1    
     4    1   64 1    
     5    2    3 2    
     6    2    4 am   BACKBONE|DICT|INTERRES
     7    4    5 1    
     8    4   65 1    
     9    5    6 1    
    10    5   25 1    
    11    5   66 1    
    12    6    7 1    
    13    6   67 1    
    14    6   68 1    
    15    7    8 1    
    16    8    9 1    
    17    8   69 1    
    18    8   70 1    
    19    9   10 ar   
    20    9   14 ar   
    21   10   11 ar   
    22   10   71 1    
    23   11   12 ar   
    24   11   61 1    
    25   12   13 ar   
    26   12   72 1    
    27   13   14 ar   
    28   13   15 1    
    29   14   73 1    
    30   15   16 1    
    31   15   74 1    
    32   15   75 1    
    33   16   17 1    
    34   17   18 1    
    35   17   76 1    
    36   17   77 1    
    37   18   19 1    
    38   18   27 1    
    39   18   78 1    
    40   19   20 am   BACKBONE|DICT|INTERRES
    41   19   79 1    
    42   20   21 2    
    43   20   22 1    
    44   22   23 1    
    45   22   24 1    
    46   22   80 1    
    47   23   81 1    
    48   23   82 1    
    49   23   83 1    
    50   24   25 am   BACKBONE|DICT|INTERRES
    51   24   84 1    
    52   25   26 2    
    53   27   28 2    
    54   27   29 am   BACKBONE|DICT|INTERRES
    55   29   30 1    
    56   29   85 1    
    57   30   31 1    
    58   30   32 1    
    59   30   86 1    
    60   31   87 1    
    61   31   88 1    
    62   31   89 1    
    63   32   33 2    
    64   32   34 am   BACKBONE|DICT|INTERRES
    65   34   35 1    
    66   34   90 1    
    67   35   36 1    
    68   35   37 1    
    69   35   91 1    
    70   36   92 1    
    71   36   93 1    
    72   36   94 1    
    73   37   38 2    
    74   37   39 am   BACKBONE|DICT|INTERRES
    75   39   40 1    
    76   39   95 1    
    77   40   41 1    
    78   40   42 1    
    79   40   96 1    
    80   41   97 1    
    81   41   98 1    
    82   41   99 1    
    83   42   43 2    
    84   42   44 am   BACKBONE|DICT|INTERRES
    85   44   45 1    
    86   44  100 1    
    87   45   46 1    
    88   45   47 1    
    89   45  101 1    
    90   46  102 1    
    91   46  103 1    
    92   46  104 1    
    93   47   48 2    
    94   47   49 am   BACKBONE|DICT|INTERRES
    95   49   50 1    
    96   49  105 1    
    97   50   51 1    
    98   50   52 1    
    99   50  106 1    
   100   51  107 1    
   101   51  108 1    
   102   51  109 1    
   103   52   53 2    
   104   52   54 am   BACKBONE|DICT|INTERRES
   105   54   55 1    
   106   54  110 1    
   107   55   56 1    
   108   55   59 1    
   109   55  111 1    
   110   56   57 am   BACKBONE|DICT|INTERRES
   111   56   58 2    
   112   57  112 1    
   113   57  113 1    
   114   59   60 1    
   115   59  114 1    
   116   59  115 1    
   117   60   61 1    
   118   61  116 1    
   119   61  117 1    
@<TRIPOS>SUBSTRUCTURE
     1 UNK         1 GROUP             0       ****    0 ROOT    
