@<TRIPOS>MOLECULE
3R8
117   119    1
SMALL
USER_CHARGES


@<TRIPOS>ATOM
      1 CA         13.9135  -22.9722  -44.1552 C.3       0 UNK        -0.2013 
      2 C          15.0119  -23.9628  -44.5090 C.2       0 UNK         0.4866 
      3 O          15.2797  -24.1884  -45.6902 O.2       0 UNK        -0.5176 
      4 N          15.6617  -24.5534  -43.4982 N.am      1 UNK        -0.4884 
      5 CA         16.7356  -25.5454  -43.6372 C.3       1 UNK         0.0853 
      6 C6         16.8463  -26.4546  -42.3873 C.3       10 UNK        -0.0849 
      7 S7         15.3177  -27.3843  -42.0123 S.3       10 UNK        -0.2776 
      8 C8         15.1387  -28.5008  -43.4508 C.3       10 UNK         0.0316 
      9 C9         16.4203  -29.2432  -43.8172 C.ar      10 UNK        -0.0863 
     10 C10        17.1350  -29.9522  -42.8459 C.ar      10 UNK        -0.1009 
     11 C11        18.3299  -30.5980  -43.1728 C.ar      10 UNK        -0.0712 
     12 C12        18.7941  -30.5610  -44.4910 C.ar      10 UNK        -0.0894 
     13 C13        18.0748  -29.8808  -45.4793 C.ar      10 UNK        -0.0745 
     14 C14        16.8913  -29.2203  -45.1348 C.ar      10 UNK        -0.0972 
     15 C15        18.5683  -29.8729  -46.9216 C.3       10 UNK         0.0209 
     16 S16        19.2411  -28.2565  -47.4279 S.3       10 UNK        -0.2568 
     17 C17        20.6964  -28.1205  -46.3370 C.3       10 UNK        -0.0983 
     18 CA         21.3169  -26.7000  -46.2893 C.3       3 UNK         0.0876 
     19 N          20.2991  -25.6687  -46.0701 N.am      3 UNK        -0.4424 
     20 C          20.4948  -24.3444  -46.0228 C.2       2 UNK         0.4918 
     21 O          21.5837  -23.8049  -46.2201 O.2       2 UNK        -0.4875 
     22 CA         19.2701  -23.4664  -45.6930 C.3       2 UNK         0.0481 
     23 CB         18.8169  -22.6890  -46.9392 C.3       2 UNK        -0.1831 
     24 N          18.1184  -24.1949  -45.1453 N.am      2 UNK        -0.4498 
     25 C          18.0818  -24.8740  -43.9902 C.2       1 UNK         0.5027 
     26 O          19.0529  -24.9844  -43.2382 O.2       1 UNK        -0.4969 
     27 C          22.4230  -26.6860  -45.2141 C.2       3 UNK         0.5005 
     28 O          23.5755  -26.9900  -45.5284 O.2       3 UNK        -0.5279 
     29 N          22.0371  -26.3835  -43.9624 N.am      4 UNK        -0.4463 
     30 CA         22.8144  -26.4373  -42.7161 C.3       4 UNK         0.0283 
     31 CB         24.0184  -25.4757  -42.7443 C.3       4 UNK        -0.1875 
     32 C          23.2387  -27.8620  -42.3148 C.2       4 UNK         0.4949 
     33 O          22.9426  -28.2830  -41.1967 O.2       4 UNK        -0.5039 
     34 N          23.9193  -28.5713  -43.2282 N.am      5 UNK        -0.4663 
     35 CA         24.3522  -29.9753  -43.1562 C.3       5 UNK         0.0242 
     36 CB         23.1407  -30.8985  -43.3802 C.3       5 UNK        -0.1982 
     37 C          25.1284  -30.3223  -41.8699 C.2       5 UNK         0.5017 
     38 O          24.8950  -31.3755  -41.2693 O.2       5 UNK        -0.5012 
     39 N          25.9859  -29.3827  -41.4387 N.am      6 UNK        -0.4439 
     40 CA         26.7885  -29.3868  -40.2060 C.3       6 UNK         0.0297 
     41 CB         27.8863  -30.4685  -40.2933 C.3       6 UNK        -0.2006 
     42 C          25.9643  -29.5100  -38.9040 C.2       6 UNK         0.4892 
     43 O          26.5255  -29.8851  -37.8738 O.2       6 UNK        -0.5089 
     44 N          24.6499  -29.2379  -38.9795 N.am      7 UNK        -0.4243 
     45 CA         23.6150  -29.5115  -37.9729 C.3       7 UNK         0.0196 
     46 CB         23.8449  -28.6801  -36.6929 C.3       7 UNK        -0.2007 
     47 C          23.4173  -31.0151  -37.6734 C.2       7 UNK         0.5020 
     48 O          22.7489  -31.3505  -36.6945 O.2       7 UNK        -0.5147 
     49 N          23.9835  -31.8948  -38.5112 N.am      8 UNK        -0.4734 
     50 CA         23.9163  -33.3495  -38.3775 C.3       8 UNK         0.0238 
     51 CB         25.2809  -33.9515  -38.7520 C.3       8 UNK        -0.1912 
     52 C          22.8092  -33.9436  -39.2569 C.2       8 UNK         0.5038 
     53 O          22.1571  -34.8979  -38.8324 O.2       8 UNK        -0.5046 
     54 N          22.6117  -33.3693  -40.4535 N.am      9 UNK        -0.4200 
     55 CA         21.6172  -33.8032  -41.4508 C.3       9 UNK         0.0839 
     56 C          21.9142  -35.1924  -42.0977 C.2       9 UNK         0.5513 
     57 N          23.1542  -35.6679  -42.0801 N.am      9 UNK        -0.7519 
     58 O          21.0253  -35.8421  -42.6419 O.2       9 UNK        -0.4960 
     59 C59        20.1555  -33.6403  -40.9341 C.3       10 UNK        -0.0876 
     60 S60        18.9976  -33.1176  -42.2440 S.3       10 UNK        -0.2414 
     61 C61        19.1339  -31.3110  -42.0974 C.3       10 UNK         0.0169 
     62 H62        12.9651  -23.2964  -44.5827 H         1 UNK         0.0903 
     63 H63        13.7839  -22.8745  -43.0775 H         1 UNK         0.0903 
     64 H64        14.1513  -21.9886  -44.5593 H         1 UNK         0.0903 
     65 H65        15.4089  -24.3231  -42.5473 H         1 UNK         0.3096 
     66 H66        16.4972  -26.1897  -44.4859 H         1 UNK         0.1121 
     67 H67        17.6658  -27.1670  -42.4992 H         1 UNK         0.0849 
     68 H68        17.0958  -25.8577  -41.5080 H         1 UNK         0.0849 
     69 H69        14.3607  -29.2329  -43.2307 H         1 UNK         0.0865 
     70 H70        14.7731  -27.9184  -44.2979 H         1 UNK         0.0865 
     71 H71        16.7720  -29.9769  -41.8273 H         1 UNK         0.1346 
     72 H72        19.7157  -31.0670  -44.7451 H         1 UNK         0.1412 
     73 H73        16.3407  -28.6876  -45.8985 H         1 UNK         0.1426 
     74 H74        17.7406  -30.1310  -47.5838 H         1 UNK         0.0716 
     75 H75        19.3294  -30.6397  -47.0748 H         1 UNK         0.0716 
     76 H76        21.4391  -28.8493  -46.6679 H         1 UNK         0.0695 
     77 H77        20.3950  -28.4267  -45.3339 H         1 UNK         0.0695 
     78 H78        21.7887  -26.4912  -47.2517 H         1 UNK         0.0983 
     79 H79        19.3578  -26.0100  -45.9472 H         1 UNK         0.3095 
     80 H80        19.5886  -22.7448  -44.9382 H         1 UNK         0.0454 
     81 H81        19.6363  -22.1006  -47.3546 H         1 UNK         0.0851 
     82 H82        18.0105  -21.9944  -46.7032 H         1 UNK         0.0851 
     83 H83        18.4648  -23.3580  -47.7253 H         1 UNK         0.0851 
     84 H84        17.2484  -24.1380  -45.6685 H         1 UNK         0.2976 
     85 H85        21.0613  -26.1426  -43.8345 H         1 UNK         0.3116 
     86 H86        22.1368  -26.0828  -41.9374 H         1 UNK         0.0646 
     87 H87        24.7588  -25.7593  -43.4925 H         1 UNK         0.0847 
     88 H88        23.7021  -24.4550  -42.9596 H         1 UNK         0.0847 
     89 H89        24.5249  -25.4604  -41.7785 H         1 UNK         0.0847 
     90 H90        24.0802  -28.1036  -44.1190 H         1 UNK         0.3040 
     91 H91        25.0475  -30.1320  -43.9824 H         1 UNK         0.1015 
     92 H92        23.4544  -31.9393  -43.4690 H         1 UNK         0.0786 
     93 H93        22.6066  -30.6424  -44.2953 H         1 UNK         0.0786 
     94 H94        22.4385  -30.8291  -42.5504 H         1 UNK         0.0786 
     95 H95        26.0620  -28.5462  -42.0014 H         1 UNK         0.3172 
     96 H96        27.2811  -28.4146  -40.1597 H         1 UNK         0.0595 
     97 H97        27.4646  -31.4742  -40.2737 H         1 UNK         0.0839 
     98 H98        28.5823  -30.3927  -39.4570 H         1 UNK         0.0839 
     99 H99        28.4719  -30.3682  -41.2070 H         1 UNK         0.0839 
    100 H100       24.2813  -28.9287  -39.8750 H         1 UNK         0.2998 
    101 H101       22.6778  -29.1745  -38.4184 H         1 UNK         0.0822 
    102 H102       22.9907  -28.7560  -36.0191 H         1 UNK         0.0787 
    103 H103       23.9791  -27.6236  -36.9249 H         1 UNK         0.0787 
    104 H104       24.7219  -29.0177  -36.1402 H         1 UNK         0.0787 
    105 H105       24.4814  -31.5392  -39.3215 H         1 UNK         0.3055 
    106 H106       23.6992  -33.6191  -37.3412 H         1 UNK         0.1106 
    107 H107       26.0684  -33.5796  -38.0962 H         1 UNK         0.0828 
    108 H108       25.2678  -35.0383  -38.6584 H         1 UNK         0.0828 
    109 H109       25.5637  -33.7139  -39.7784 H         1 UNK         0.0828 
    110 H110       23.2303  -32.6183  -40.7361 H         1 UNK         0.2931 
    111 H111       21.7488  -33.1005  -42.2712 H         1 UNK         0.0412 
    112 H112       23.8989  -35.1427  -41.6510 H         1 UNK         0.3472 
    113 H113       23.3455  -36.5622  -42.5043 H         1 UNK         0.3472 
    114 H114       19.7940  -34.5672  -40.4851 H         1 UNK         0.0970 
    115 H115       20.1104  -32.8992  -40.1345 H         1 UNK         0.0970 
    116 H116       18.8016  -31.0056  -41.1040 H         1 UNK         0.0612 
    117 H117       20.1797  -31.0160  -42.1760 H         1 UNK         0.0612 
@<TRIPOS>BOND
     1    1    2 1    
     2    1   62 1    
     3    1   63 1    
     4    1   64 1    
     5    2    3 2    
     6    2    4 am   BACKBONE|DICT|INTERRES
     7    4    5 1    
     8    4   65 1    
     9    5    6 1    
    10    5   25 1    
    11    5   66 1    
    12    6    7 1    
    13    6   67 1    
    14    6   68 1    
    15    7    8 1    
    16    8    9 1    
    17    8   69 1    
    18    8   70 1    
    19    9   10 ar   
    20    9   14 ar   
    21   10   11 ar   
    22   10   71 1    
    23   11   12 ar   
    24   11   61 1    
    25   12   13 ar   
    26   12   72 1    
    27   13   14 ar   
    28   13   15 1    
    29   14   73 1    
    30   15   16 1    
    31   15   74 1    
    32   15   75 1    
    33   16   17 1    
    34   17   18 1    
    35   17   76 1    
    36   17   77 1    
    37   18   19 1    
    38   18   27 1    
    39   18   78 1    
    40   19   20 am   BACKBONE|DICT|INTERRES
    41   19   79 1    
    42   20   21 2    
    43   20   22 1    
    44   22   23 1    
    45   22   24 1    
    46   22   80 1    
    47   23   81 1    
    48   23   82 1    
    49   23   83 1    
    50   24   25 am   BACKBONE|DICT|INTERRES
    51   24   84 1    
    52   25   26 2    
    53   27   28 2    
    54   27   29 am   BACKBONE|DICT|INTERRES
    55   29   30 1    
    56   29   85 1    
    57   30   31 1    
    58   30   32 1    
    59   30   86 1    
    60   31   87 1    
    61   31   88 1    
    62   31   89 1    
    63   32   33 2    
    64   32   34 am   BACKBONE|DICT|INTERRES
    65   34   35 1    
    66   34   90 1    
    67   35   36 1    
    68   35   37 1    
    69   35   91 1    
    70   36   92 1    
    71   36   93 1    
    72   36   94 1    
    73   37   38 2    
    74   37   39 am   BACKBONE|DICT|INTERRES
    75   39   40 1    
    76   39   95 1    
    77   40   41 1    
    78   40   42 1    
    79   40   96 1    
    80   41   97 1    
    81   41   98 1    
    82   41   99 1    
    83   42   43 2    
    84   42   44 am   BACKBONE|DICT|INTERRES
    85   44   45 1    
    86   44  100 1    
    87   45   46 1    
    88   45   47 1    
    89   45  101 1    
    90   46  102 1    
    91   46  103 1    
    92   46  104 1    
    93   47   48 2    
    94   47   49 am   BACKBONE|DICT|INTERRES
    95   49   50 1    
    96   49  105 1    
    97   50   51 1    
    98   50   52 1    
    99   50  106 1    
   100   51  107 1    
   101   51  108 1    
   102   51  109 1    
   103   52   53 2    
   104   52   54 am   BACKBONE|DICT|INTERRES
   105   54   55 1    
   106   54  110 1    
   107   55   56 1    
   108   55   59 1    
   109   55  111 1    
   110   56   57 am   BACKBONE|DICT|INTERRES
   111   56   58 2    
   112   57  112 1    
   113   57  113 1    
   114   59   60 1    
   115   59  114 1    
   116   59  115 1    
   117   60   61 1    
   118   61  116 1    
   119   61  117 1    
@<TRIPOS>SUBSTRUCTURE
     1 UNK         1 GROUP             0       ****    0 ROOT    
