@<TRIPOS>MOLECULE
3R8
117   119    1
SMALL
USER_CHARGES


@<TRIPOS>ATOM
      1 CA         16.3261  -25.2801  -46.0789 C.3       0 UNK        -0.2013 
      2 C          15.1603  -25.2945  -45.0956 C.2       0 UNK         0.4866 
      3 O          14.4786  -24.2810  -44.9563 O.2       0 UNK        -0.5176 
      4 N          14.8903  -26.3965  -44.3845 N.am      1 UNK        -0.4884 
      5 CA         15.6046  -27.6786  -44.4023 C.3       1 UNK         0.0853 
      6 C6         14.7606  -28.8069  -45.0518 C.3       10 UNK        -0.0849 
      7 S7         14.6982  -28.6050  -46.8650 S.3       10 UNK        -0.2776 
      8 C8         15.8671  -29.8797  -47.4502 C.3       10 UNK         0.0316 
      9 C9         17.2061  -29.8507  -46.7202 C.ar      10 UNK        -0.0863 
     10 C10        17.5532  -30.8988  -45.8636 C.ar      10 UNK        -0.1009 
     11 C11        18.7771  -30.8952  -45.1901 C.ar      10 UNK        -0.0712 
     12 C12        19.6607  -29.8262  -45.3720 C.ar      10 UNK        -0.0894 
     13 C13        19.3328  -28.7779  -46.2387 C.ar      10 UNK        -0.0745 
     14 C14        18.1055  -28.7969  -46.9116 C.ar      10 UNK        -0.0972 
     15 C15        20.3187  -27.6465  -46.4916 C.3       10 UNK         0.0209 
     16 S16        20.0810  -26.2625  -45.3357 S.3       10 UNK        -0.2568 
     17 C17        21.3100  -26.6348  -44.0405 C.3       10 UNK        -0.0983 
     18 CA         20.8412  -26.1493  -42.6477 C.3       3 UNK         0.0876 
     19 N          19.6149  -26.8283  -42.2224 N.am      3 UNK        -0.4424 
     20 C          18.8520  -26.4751  -41.1790 C.2       2 UNK         0.4918 
     21 O          19.1484  -25.5914  -40.3741 O.2       2 UNK        -0.4875 
     22 CA         17.4859  -27.1726  -41.0952 C.3       2 UNK         0.0481 
     23 CB         16.5674  -26.6008  -39.9987 C.3       2 UNK        -0.1831 
     24 N          16.8382  -27.0701  -42.4008 N.am      2 UNK        -0.4498 
     25 C          16.0528  -27.9940  -42.9652 C.2       1 UNK         0.5027 
     26 O          15.6828  -29.0226  -42.3981 O.2       1 UNK        -0.4969 
     27 C          21.9817  -26.2569  -41.6190 C.2       3 UNK         0.5005 
     28 O          22.6261  -25.2487  -41.3262 O.2       3 UNK        -0.5279 
     29 N          22.2208  -27.4768  -41.1151 N.am      4 UNK        -0.4463 
     30 CA         23.2895  -27.8649  -40.1853 C.3       4 UNK         0.0283 
     31 CB         23.1475  -27.1466  -38.8280 C.3       4 UNK        -0.1875 
     32 C          24.7103  -27.7472  -40.7743 C.2       4 UNK         0.4949 
     33 O          25.6836  -27.7939  -40.0200 O.2       4 UNK        -0.5039 
     34 N          24.8203  -27.6459  -42.1069 N.am      5 UNK        -0.4663 
     35 CA         26.0757  -27.6300  -42.8596 C.3       5 UNK         0.0242 
     36 CB         25.7801  -27.2437  -44.3189 C.3       5 UNK        -0.1982 
     37 C          26.7450  -29.0081  -42.7661 C.2       5 UNK         0.5017 
     38 O          26.2254  -29.9647  -43.3401 O.2       5 UNK        -0.5012 
     39 N          27.8157  -29.1063  -41.9648 N.am      6 UNK        -0.4439 
     40 CA         28.4450  -30.3582  -41.5150 C.3       6 UNK         0.0297 
     41 CB         29.1523  -31.0765  -42.6845 C.3       6 UNK        -0.2006 
     42 C          27.4553  -31.2709  -40.7546 C.2       6 UNK         0.4892 
     43 O          27.5053  -32.4930  -40.8990 O.2       6 UNK        -0.5089 
     44 N          26.5588  -30.6378  -39.9809 N.am      7 UNK        -0.4243 
     45 CA         25.4525  -31.2109  -39.2068 C.3       7 UNK         0.0196 
     46 CB         25.9565  -32.2363  -38.1688 C.3       7 UNK        -0.2007 
     47 C          24.2824  -31.7576  -40.0505 C.2       7 UNK         0.5020 
     48 O          23.3836  -32.3706  -39.4722 O.2       7 UNK        -0.5147 
     49 N          24.2606  -31.5092  -41.3713 N.am      8 UNK        -0.4734 
     50 CA         23.1756  -31.9111  -42.2758 C.3       8 UNK         0.0238 
     51 CB         23.5742  -31.6276  -43.7337 C.3       8 UNK        -0.1912 
     52 C          21.8588  -31.2014  -41.9225 C.2       8 UNK         0.5038 
     53 O          21.7051  -30.0159  -42.2273 O.2       8 UNK        -0.5046 
     54 N          20.9518  -31.9341  -41.2650 N.am      9 UNK        -0.4200 
     55 CA         19.6989  -31.4223  -40.6867 C.3       9 UNK         0.0839 
     56 C          19.9250  -30.4252  -39.5078 C.2       9 UNK         0.5513 
     57 N          21.0559  -30.4837  -38.8130 N.am      9 UNK        -0.7519 
     58 O          19.0617  -29.6120  -39.1936 O.2       9 UNK        -0.4960 
     59 C59        18.6916  -30.9155  -41.7617 C.3       10 UNK        -0.0876 
     60 S60        18.1090  -32.2608  -42.8480 S.3       10 UNK        -0.2414 
     61 C61        19.1633  -32.0836  -44.3223 C.3       10 UNK         0.0169 
     62 H62        16.2430  -26.0886  -46.8035 H         1 UNK         0.0903 
     63 H63        16.3462  -24.3429  -46.6346 H         1 UNK         0.0903 
     64 H64        17.2739  -25.3722  -45.5517 H         1 UNK         0.0903 
     65 H65        14.1253  -26.3568  -43.7245 H         1 UNK         0.3096 
     66 H66        16.5376  -27.5994  -44.9601 H         1 UNK         0.1121 
     67 H67        13.7428  -28.8027  -44.6582 H         1 UNK         0.0849 
     68 H68        15.1625  -29.7948  -44.8211 H         1 UNK         0.0849 
     69 H69        15.3951  -30.8582  -47.3480 H         1 UNK         0.0865 
     70 H70        16.0376  -29.7387  -48.5185 H         1 UNK         0.0865 
     71 H71        16.8740  -31.7287  -45.7224 H         1 UNK         0.1346 
     72 H72        20.6146  -29.8251  -44.8619 H         1 UNK         0.1412 
     73 H73        17.8483  -27.9914  -47.5861 H         1 UNK         0.1426 
     74 H74        20.1906  -27.2711  -47.5081 H         1 UNK         0.0716 
     75 H75        21.3453  -28.0123  -46.4379 H         1 UNK         0.0716 
     76 H76        22.2445  -26.1479  -44.3270 H         1 UNK         0.0695 
     77 H77        21.5133  -27.7071  -44.0221 H         1 UNK         0.0695 
     78 H78        20.6019  -25.0863  -42.7294 H         1 UNK         0.0983 
     79 H79        19.2806  -27.5519  -42.8409 H         1 UNK         0.3095 
     80 H80        17.6783  -28.2202  -40.8700 H         1 UNK         0.0454 
     81 H81        16.3445  -25.5469  -40.1683 H         1 UNK         0.0851 
     82 H82        17.0353  -26.6851  -39.0171 H         1 UNK         0.0851 
     83 H83        15.6220  -27.1411  -39.9527 H         1 UNK         0.0851 
     84 H84        17.0620  -26.2385  -42.9308 H         1 UNK         0.2976 
     85 H85        21.6876  -28.2612  -41.4852 H         1 UNK         0.3116 
     86 H86        23.1388  -28.9283  -40.0020 H         1 UNK         0.0646 
     87 H87        23.3685  -26.0820  -38.9064 H         1 UNK         0.0847 
     88 H88        23.8332  -27.5650  -38.0903 H         1 UNK         0.0847 
     89 H89        22.1390  -27.2522  -38.4282 H         1 UNK         0.0847 
     90 H90        23.9700  -27.6680  -42.6489 H         1 UNK         0.3040 
     91 H91        26.7348  -26.8735  -42.4278 H         1 UNK         0.1015 
     92 H92        25.0976  -27.9482  -44.7966 H         1 UNK         0.0786 
     93 H93        26.6969  -27.2270  -44.9098 H         1 UNK         0.0786 
     94 H94        25.3350  -26.2505  -44.3836 H         1 UNK         0.0786 
     95 H95        28.1473  -28.2652  -41.5109 H         1 UNK         0.3172 
     96 H96        29.2110  -30.0741  -40.7920 H         1 UNK         0.0595 
     97 H97        29.7299  -31.9294  -42.3260 H         1 UNK         0.0839 
     98 H98        29.8453  -30.4109  -43.1989 H         1 UNK         0.0839 
     99 H99        28.4414  -31.4545  -43.4198 H         1 UNK         0.0839 
    100 H100       26.5903  -29.6224  -39.9693 H         1 UNK         0.2998 
    101 H101       25.0334  -30.3730  -38.6475 H         1 UNK         0.0822 
    102 H102       25.1602  -32.5174  -37.4784 H         1 UNK         0.0787 
    103 H103       26.3100  -33.1534  -38.6406 H         1 UNK         0.0787 
    104 H104       26.7714  -31.8291  -37.5705 H         1 UNK         0.0787 
    105 H105       25.0286  -30.9998  -41.7925 H         1 UNK         0.3055 
    106 H106       23.0358  -32.9895  -42.1729 H         1 UNK         0.1106 
    107 H107       22.8050  -31.9768  -44.4234 H         1 UNK         0.0828 
    108 H108       23.7116  -30.5612  -43.9172 H         1 UNK         0.0828 
    109 H109       24.5021  -32.1346  -43.9988 H         1 UNK         0.0828 
    110 H110       21.1858  -32.8844  -41.0162 H         1 UNK         0.2931 
    111 H111       19.2358  -32.2850  -40.2062 H         1 UNK         0.0412 
    112 H112       21.7610  -31.1775  -39.0326 H         1 UNK         0.3472 
    113 H113       21.1859  -29.8564  -38.0361 H         1 UNK         0.3472 
    114 H114       17.7988  -30.5135  -41.2813 H         1 UNK         0.0970 
    115 H115       19.1059  -30.0995  -42.3538 H         1 UNK         0.0970 
    116 H116       19.0691  -32.9920  -44.9187 H         1 UNK         0.0612 
    117 H117       20.2099  -32.0300  -44.0291 H         1 UNK         0.0612 
@<TRIPOS>BOND
     1    1    2 1    
     2    1   62 1    
     3    1   63 1    
     4    1   64 1    
     5    2    3 2    
     6    2    4 am   BACKBONE|DICT|INTERRES
     7    4    5 1    
     8    4   65 1    
     9    5    6 1    
    10    5   25 1    
    11    5   66 1    
    12    6    7 1    
    13    6   67 1    
    14    6   68 1    
    15    7    8 1    
    16    8    9 1    
    17    8   69 1    
    18    8   70 1    
    19    9   10 ar   
    20    9   14 ar   
    21   10   11 ar   
    22   10   71 1    
    23   11   12 ar   
    24   11   61 1    
    25   12   13 ar   
    26   12   72 1    
    27   13   14 ar   
    28   13   15 1    
    29   14   73 1    
    30   15   16 1    
    31   15   74 1    
    32   15   75 1    
    33   16   17 1    
    34   17   18 1    
    35   17   76 1    
    36   17   77 1    
    37   18   19 1    
    38   18   27 1    
    39   18   78 1    
    40   19   20 am   BACKBONE|DICT|INTERRES
    41   19   79 1    
    42   20   21 2    
    43   20   22 1    
    44   22   23 1    
    45   22   24 1    
    46   22   80 1    
    47   23   81 1    
    48   23   82 1    
    49   23   83 1    
    50   24   25 am   BACKBONE|DICT|INTERRES
    51   24   84 1    
    52   25   26 2    
    53   27   28 2    
    54   27   29 am   BACKBONE|DICT|INTERRES
    55   29   30 1    
    56   29   85 1    
    57   30   31 1    
    58   30   32 1    
    59   30   86 1    
    60   31   87 1    
    61   31   88 1    
    62   31   89 1    
    63   32   33 2    
    64   32   34 am   BACKBONE|DICT|INTERRES
    65   34   35 1    
    66   34   90 1    
    67   35   36 1    
    68   35   37 1    
    69   35   91 1    
    70   36   92 1    
    71   36   93 1    
    72   36   94 1    
    73   37   38 2    
    74   37   39 am   BACKBONE|DICT|INTERRES
    75   39   40 1    
    76   39   95 1    
    77   40   41 1    
    78   40   42 1    
    79   40   96 1    
    80   41   97 1    
    81   41   98 1    
    82   41   99 1    
    83   42   43 2    
    84   42   44 am   BACKBONE|DICT|INTERRES
    85   44   45 1    
    86   44  100 1    
    87   45   46 1    
    88   45   47 1    
    89   45  101 1    
    90   46  102 1    
    91   46  103 1    
    92   46  104 1    
    93   47   48 2    
    94   47   49 am   BACKBONE|DICT|INTERRES
    95   49   50 1    
    96   49  105 1    
    97   50   51 1    
    98   50   52 1    
    99   50  106 1    
   100   51  107 1    
   101   51  108 1    
   102   51  109 1    
   103   52   53 2    
   104   52   54 am   BACKBONE|DICT|INTERRES
   105   54   55 1    
   106   54  110 1    
   107   55   56 1    
   108   55   59 1    
   109   55  111 1    
   110   56   57 am   BACKBONE|DICT|INTERRES
   111   56   58 2    
   112   57  112 1    
   113   57  113 1    
   114   59   60 1    
   115   59  114 1    
   116   59  115 1    
   117   60   61 1    
   118   61  116 1    
   119   61  117 1    
@<TRIPOS>SUBSTRUCTURE
     1 UNK         1 GROUP             0       ****    0 ROOT    
