@<TRIPOS>MOLECULE
3R8
117   119    1
SMALL
USER_CHARGES


@<TRIPOS>ATOM
      1 CA         16.6372  -21.7511  -46.5586 C.3       0 UNK        -0.2013 
      2 C          17.4604  -22.9899  -46.8779 C.2       0 UNK         0.4866 
      3 O          18.4745  -22.8895  -47.5685 O.2       0 UNK        -0.5176 
      4 N          17.0358  -24.1582  -46.3764 N.am      1 UNK        -0.4884 
      5 CA         17.7022  -25.4530  -46.5888 C.3       1 UNK         0.0853 
      6 C6         16.6928  -26.6267  -46.4651 C.3       10 UNK        -0.0849 
      7 S7         17.0587  -27.9676  -47.6473 S.3       10 UNK        -0.2776 
      8 C8         16.3693  -29.4239  -46.7962 C.3       10 UNK         0.0316 
      9 C9         17.1181  -29.7724  -45.5157 C.ar      10 UNK        -0.0863 
     10 C10        18.4827  -30.0737  -45.5536 C.ar      10 UNK        -0.1009 
     11 C11        19.1680  -30.4146  -44.3849 C.ar      10 UNK        -0.0712 
     12 C12        18.4725  -30.4783  -43.1741 C.ar      10 UNK        -0.0894 
     13 C13        17.1100  -30.1654  -43.1172 C.ar      10 UNK        -0.0745 
     14 C14        16.4400  -29.8145  -44.2936 C.ar      10 UNK        -0.0972 
     15 C15        16.3420  -30.2215  -41.7992 C.3       10 UNK         0.0209 
     16 S16        17.1906  -29.3957  -40.4097 S.3       10 UNK        -0.2568 
     17 C17        17.4312  -27.6994  -41.0413 C.3       10 UNK        -0.0983 
     18 CA         18.9266  -27.3956  -41.3104 C.3       3 UNK         0.0876 
     19 N          19.0942  -26.3142  -42.2856 N.am      3 UNK        -0.4424 
     20 C          20.2718  -25.9292  -42.7980 C.2       2 UNK         0.4918 
     21 O          21.3414  -26.4838  -42.5386 O.2       2 UNK        -0.4875 
     22 CA         20.2413  -24.7084  -43.7361 C.3       2 UNK         0.0481 
     23 CB         21.5909  -24.4620  -44.4453 C.3       2 UNK        -0.1831 
     24 N          19.1351  -24.7564  -44.7010 N.am      2 UNK        -0.4498 
     25 C          18.9465  -25.6504  -45.6870 C.2       1 UNK         0.5027 
     26 O          19.7098  -26.5904  -45.9096 O.2       1 UNK        -0.4969 
     27 C          19.6997  -27.0984  -40.0060 C.2       3 UNK         0.5005 
     28 O          19.7891  -25.9366  -39.5994 O.2       3 UNK        -0.5279 
     29 N          20.2810  -28.1468  -39.4059 N.am      4 UNK        -0.4463 
     30 CA         21.1791  -28.1582  -38.2403 C.3       4 UNK         0.0283 
     31 CB         20.5204  -27.5358  -36.9935 C.3       4 UNK        -0.1875 
     32 C          22.5691  -27.5472  -38.5042 C.2       4 UNK         0.4949 
     33 O          23.5544  -28.0794  -37.9938 O.2       4 UNK        -0.5039 
     34 N          22.6405  -26.4736  -39.3040 N.am      5 UNK        -0.4663 
     35 CA         23.8829  -25.8631  -39.7854 C.3       5 UNK         0.0242 
     36 CB         23.5772  -24.5143  -40.4564 C.3       5 UNK        -0.1982 
     37 C          24.6428  -26.8035  -40.7346 C.2       5 UNK         0.5017 
     38 O          25.8350  -27.0394  -40.5328 O.2       5 UNK        -0.5012 
     39 N          23.9251  -27.3778  -41.7100 N.am      6 UNK        -0.4439 
     40 CA         24.3817  -28.4947  -42.5346 C.3       6 UNK         0.0297 
     41 CB         23.6208  -28.4878  -43.8717 C.3       6 UNK        -0.2006 
     42 C          24.1998  -29.8062  -41.7514 C.2       6 UNK         0.4892 
     43 O          23.2492  -30.5531  -41.9910 O.2       6 UNK        -0.5089 
     44 N          25.1135  -30.0441  -40.8007 N.am      7 UNK        -0.4243 
     45 CA         25.1056  -31.1696  -39.8583 C.3       7 UNK         0.0196 
     46 CB         26.2549  -30.9866  -38.8545 C.3       7 UNK        -0.2007 
     47 C          25.1732  -32.5645  -40.5081 C.2       7 UNK         0.5020 
     48 O          24.8034  -33.5451  -39.8620 O.2       7 UNK        -0.5147 
     49 N          25.6053  -32.6346  -41.7757 N.am      8 UNK        -0.4734 
     50 CA         25.6363  -33.8438  -42.6057 C.3       8 UNK         0.0238 
     51 CB         26.2766  -33.5048  -43.9617 C.3       8 UNK        -0.1912 
     52 C          24.2602  -34.5072  -42.8135 C.2       8 UNK         0.5038 
     53 O          24.2156  -35.7133  -43.0604 O.2       8 UNK        -0.5046 
     54 N          23.1743  -33.7302  -42.6913 N.am      9 UNK        -0.4200 
     55 CA         21.7916  -34.2348  -42.6816 C.3       9 UNK         0.0839 
     56 C          21.3831  -34.9543  -41.3612 C.2       9 UNK         0.5513 
     57 N          22.1761  -34.9198  -40.2957 N.am      9 UNK        -0.7519 
     58 O          20.3201  -35.5671  -41.3058 O.2       9 UNK        -0.4960 
     59 C59        20.7676  -33.1294  -43.0450 C.3       10 UNK        -0.0876 
     60 S60        21.0454  -32.4342  -44.7094 S.3       10 UNK        -0.2414 
     61 C61        20.6650  -30.6786  -44.4303 C.3       10 UNK         0.0169 
     62 H62        17.2477  -21.0211  -46.0278 H         1 UNK         0.0903 
     63 H63        16.2804  -21.2910  -47.4797 H         1 UNK         0.0903 
     64 H64        15.7712  -21.9837  -45.9391 H         1 UNK         0.0903 
     65 H65        16.1929  -24.1809  -45.8184 H         1 UNK         0.3096 
     66 H66        18.0827  -25.4422  -47.6133 H         1 UNK         0.1121 
     67 H67        15.6805  -26.2887  -46.6930 H         1 UNK         0.0849 
     68 H68        16.6514  -27.0120  -45.4444 H         1 UNK         0.0849 
     69 H69        15.3105  -29.2499  -46.5978 H         1 UNK         0.0865 
     70 H70        16.4157  -30.2792  -47.4716 H         1 UNK         0.0865 
     71 H71        19.0148  -30.0289  -46.4941 H         1 UNK         0.1346 
     72 H72        18.9959  -30.7525  -42.2693 H         1 UNK         0.1412 
     73 H73        15.3840  -29.5829  -44.2592 H         1 UNK         0.1426 
     74 H74        16.1776  -31.2671  -41.5362 H         1 UNK         0.0716 
     75 H75        15.3532  -29.7734  -41.9096 H         1 UNK         0.0716 
     76 H76        17.0013  -26.9878  -40.3335 H         1 UNK         0.0695 
     77 H77        16.8515  -27.5887  -41.9591 H         1 UNK         0.0695 
     78 H78        19.3838  -28.2713  -41.7744 H         1 UNK         0.0983 
     79 H79        18.2685  -25.7862  -42.5223 H         1 UNK         0.3095 
     80 H80        20.0488  -23.8444  -43.0985 H         1 UNK         0.0454 
     81 H81        21.8968  -25.3186  -45.0466 H         1 UNK         0.0851 
     82 H82        22.3853  -24.2788  -43.7213 H         1 UNK         0.0851 
     83 H83        21.5433  -23.5918  -45.0996 H         1 UNK         0.0851 
     84 H84        18.4479  -24.0204  -44.6179 H         1 UNK         0.2976 
     85 H85        20.1397  -29.0542  -39.8287 H         1 UNK         0.3116 
     86 H86        21.3466  -29.2141  -38.0210 H         1 UNK         0.0646 
     87 H87        20.3642  -26.4624  -37.1025 H         1 UNK         0.0847 
     88 H88        21.1482  -27.6797  -36.1132 H         1 UNK         0.0847 
     89 H89        19.5554  -27.9964  -36.7821 H         1 UNK         0.0847 
     90 H90        21.7649  -26.0859  -39.6421 H         1 UNK         0.3040 
     91 H91        24.5246  -25.6772  -38.9212 H         1 UNK         0.1015 
     92 H92        22.9021  -24.6247  -41.3047 H         1 UNK         0.0786 
     93 H93        24.4911  -24.0460  -40.8246 H         1 UNK         0.0786 
     94 H94        23.1178  -23.8191  -39.7535 H         1 UNK         0.0786 
     95 H95        22.9510  -27.1046  -41.8278 H         1 UNK         0.3172 
     96 H96        25.4440  -28.3764  -42.7587 H         1 UNK         0.0595 
     97 H97        23.8947  -29.3471  -44.4852 H         1 UNK         0.0839 
     98 H98        23.8444  -27.5899  -44.4477 H         1 UNK         0.0839 
     99 H99        22.5425  -28.5211  -43.7232 H         1 UNK         0.0839 
    100 H100       25.8225  -29.3368  -40.6510 H         1 UNK         0.2998 
    101 H101       24.1627  -31.1216  -39.3093 H         1 UNK         0.0822 
    102 H102       26.2613  -31.7891  -38.1153 H         1 UNK         0.0787 
    103 H103       27.2270  -30.9900  -39.3493 H         1 UNK         0.0787 
    104 H104       26.1569  -30.0475  -38.3087 H         1 UNK         0.0787 
    105 H105       25.8859  -31.7729  -42.2205 H         1 UNK         0.3055 
    106 H106       26.2687  -34.5747  -42.0968 H         1 UNK         0.1106 
    107 H107       26.3414  -34.3908  -44.5952 H         1 UNK         0.0828 
    108 H108       25.6972  -32.7577  -44.5059 H         1 UNK         0.0828 
    109 H109       27.2903  -33.1230  -43.8396 H         1 UNK         0.0828 
    110 H110       23.2936  -32.7445  -42.4907 H         1 UNK         0.2931 
    111 H111       21.7218  -34.9975  -43.4598 H         1 UNK         0.0412 
    112 H112       21.8879  -35.3985  -39.4572 H         1 UNK         0.3472 
    113 H113       23.0640  -34.4296  -40.3109 H         1 UNK         0.3472 
    114 H114       20.8098  -32.3346  -42.2985 H         1 UNK         0.0970 
    115 H115       19.7477  -33.5183  -43.0210 H         1 UNK         0.0970 
    116 H116       21.1194  -30.0908  -45.2294 H         1 UNK         0.0612 
    117 H117       21.1296  -30.3414  -43.5047 H         1 UNK         0.0612 
@<TRIPOS>BOND
     1    1    2 1    
     2    1   62 1    
     3    1   63 1    
     4    1   64 1    
     5    2    3 2    
     6    2    4 am   BACKBONE|DICT|INTERRES
     7    4    5 1    
     8    4   65 1    
     9    5    6 1    
    10    5   25 1    
    11    5   66 1    
    12    6    7 1    
    13    6   67 1    
    14    6   68 1    
    15    7    8 1    
    16    8    9 1    
    17    8   69 1    
    18    8   70 1    
    19    9   10 ar   
    20    9   14 ar   
    21   10   11 ar   
    22   10   71 1    
    23   11   12 ar   
    24   11   61 1    
    25   12   13 ar   
    26   12   72 1    
    27   13   14 ar   
    28   13   15 1    
    29   14   73 1    
    30   15   16 1    
    31   15   74 1    
    32   15   75 1    
    33   16   17 1    
    34   17   18 1    
    35   17   76 1    
    36   17   77 1    
    37   18   19 1    
    38   18   27 1    
    39   18   78 1    
    40   19   20 am   BACKBONE|DICT|INTERRES
    41   19   79 1    
    42   20   21 2    
    43   20   22 1    
    44   22   23 1    
    45   22   24 1    
    46   22   80 1    
    47   23   81 1    
    48   23   82 1    
    49   23   83 1    
    50   24   25 am   BACKBONE|DICT|INTERRES
    51   24   84 1    
    52   25   26 2    
    53   27   28 2    
    54   27   29 am   BACKBONE|DICT|INTERRES
    55   29   30 1    
    56   29   85 1    
    57   30   31 1    
    58   30   32 1    
    59   30   86 1    
    60   31   87 1    
    61   31   88 1    
    62   31   89 1    
    63   32   33 2    
    64   32   34 am   BACKBONE|DICT|INTERRES
    65   34   35 1    
    66   34   90 1    
    67   35   36 1    
    68   35   37 1    
    69   35   91 1    
    70   36   92 1    
    71   36   93 1    
    72   36   94 1    
    73   37   38 2    
    74   37   39 am   BACKBONE|DICT|INTERRES
    75   39   40 1    
    76   39   95 1    
    77   40   41 1    
    78   40   42 1    
    79   40   96 1    
    80   41   97 1    
    81   41   98 1    
    82   41   99 1    
    83   42   43 2    
    84   42   44 am   BACKBONE|DICT|INTERRES
    85   44   45 1    
    86   44  100 1    
    87   45   46 1    
    88   45   47 1    
    89   45  101 1    
    90   46  102 1    
    91   46  103 1    
    92   46  104 1    
    93   47   48 2    
    94   47   49 am   BACKBONE|DICT|INTERRES
    95   49   50 1    
    96   49  105 1    
    97   50   51 1    
    98   50   52 1    
    99   50  106 1    
   100   51  107 1    
   101   51  108 1    
   102   51  109 1    
   103   52   53 2    
   104   52   54 am   BACKBONE|DICT|INTERRES
   105   54   55 1    
   106   54  110 1    
   107   55   56 1    
   108   55   59 1    
   109   55  111 1    
   110   56   57 am   BACKBONE|DICT|INTERRES
   111   56   58 2    
   112   57  112 1    
   113   57  113 1    
   114   59   60 1    
   115   59  114 1    
   116   59  115 1    
   117   60   61 1    
   118   61  116 1    
   119   61  117 1    
@<TRIPOS>SUBSTRUCTURE
     1 UNK         1 GROUP             0       ****    0 ROOT    
