@<TRIPOS>MOLECULE
3R8
117   119    1
SMALL
USER_CHARGES


@<TRIPOS>ATOM
      1 CA         15.1310  -24.5073  -41.5593 C.3       0 UNK        -0.2013 
      2 C          15.7952  -24.3736  -42.9218 C.2       0 UNK         0.4866 
      3 O          15.7079  -23.3144  -43.5442 O.2       0 UNK        -0.5176 
      4 N          16.4496  -25.4419  -43.3935 N.am      1 UNK        -0.4884 
      5 CA         17.1941  -25.4757  -44.6557 C.3       1 UNK         0.0853 
      6 C6         17.5369  -26.9261  -45.0682 C.3       10 UNK        -0.0849 
      7 S7         16.1284  -27.8144  -45.8332 S.3       10 UNK        -0.2776 
      8 C8         16.0905  -29.4571  -45.0054 C.3       10 UNK         0.0316 
      9 C9         17.4314  -30.1853  -44.8586 C.ar      10 UNK        -0.0863 
     10 C10        17.5584  -31.1871  -43.8899 C.ar      10 UNK        -0.1009 
     11 C11        18.8036  -31.7640  -43.6119 C.ar      10 UNK        -0.0712 
     12 C12        19.9392  -31.3122  -44.2918 C.ar      10 UNK        -0.0894 
     13 C13        19.8181  -30.3269  -45.2752 C.ar      10 UNK        -0.0745 
     14 C14        18.5570  -29.8336  -45.6085 C.ar      10 UNK        -0.0972 
     15 C15        21.0396  -29.6438  -45.8609 C.3       10 UNK         0.0209 
     16 S16        21.2154  -28.0620  -44.9833 S.3       10 UNK        -0.2568 
     17 C17        22.5583  -27.1846  -45.8475 C.3       10 UNK        -0.0983 
     18 CA         22.6848  -25.7139  -45.3611 C.3       3 UNK         0.0876 
     19 N          21.4718  -24.9520  -45.6839 N.am      3 UNK        -0.4424 
     20 C          21.3502  -23.6189  -45.6397 C.2       2 UNK         0.4918 
     21 O          22.2924  -22.8569  -45.4164 O.2       2 UNK        -0.4875 
     22 CA         19.9425  -23.0274  -45.8546 C.3       2 UNK         0.0481 
     23 CB         19.8512  -22.3669  -47.2401 C.3       2 UNK        -0.1831 
     24 N          18.8245  -23.9707  -45.7012 N.am      2 UNK        -0.4498 
     25 C          18.4786  -24.6173  -44.5765 C.2       1 UNK         0.5027 
     26 O          19.1479  -24.5938  -43.5389 O.2       1 UNK        -0.4969 
     27 C          23.0616  -25.6566  -43.8569 C.2       3 UNK         0.5005 
     28 O          24.1639  -26.0801  -43.5045 O.2       3 UNK        -0.5279 
     29 N          22.1294  -25.2014  -42.9984 N.am      4 UNK        -0.4463 
     30 CA         22.1868  -25.2172  -41.5309 C.3       4 UNK         0.0283 
     31 CB         23.3147  -24.3066  -41.0001 C.3       4 UNK        -0.1875 
     32 C          22.2526  -26.6556  -40.9823 C.2       4 UNK         0.4949 
     33 O          23.0582  -26.9500  -40.0990 O.2       4 UNK        -0.5039 
     34 N          21.4237  -27.5328  -41.5693 N.am      5 UNK        -0.4663 
     35 CA         21.2843  -28.9774  -41.3283 C.3       5 UNK         0.0242 
     36 CB         20.9258  -29.2613  -39.8554 C.3       5 UNK        -0.1982 
     37 C          22.4784  -29.8358  -41.7902 C.2       5 UNK         0.5017 
     38 O          22.3980  -31.0606  -41.6830 O.2       5 UNK        -0.5012 
     39 N          23.5632  -29.2056  -42.2725 N.am      6 UNK        -0.4439 
     40 CA         24.8050  -29.7967  -42.7993 C.3       6 UNK         0.0297 
     41 CB         24.5245  -30.4871  -44.1501 C.3       6 UNK        -0.2006 
     42 C          25.5486  -30.7424  -41.8294 C.2       6 UNK         0.4892 
     43 O          26.3854  -31.5270  -42.2782 O.2       6 UNK        -0.5089 
     44 N          25.2004  -30.6868  -40.5337 N.am      7 UNK        -0.4243 
     45 CA         25.5314  -31.6523  -39.4752 C.3       7 UNK         0.0196 
     46 CB         27.0470  -31.6628  -39.1826 C.3       7 UNK        -0.2007 
     47 C          24.9679  -33.0714  -39.7285 C.2       7 UNK         0.5020 
     48 O          25.4035  -34.0195  -39.0742 O.2       7 UNK        -0.5147 
     49 N          24.0049  -33.2003  -40.6525 N.am      8 UNK        -0.4734 
     50 CA         23.3559  -34.4572  -41.0287 C.3       8 UNK         0.0238 
     51 CB         23.0362  -34.4231  -42.5326 C.3       8 UNK        -0.1912 
     52 C          22.0781  -34.7085  -40.2154 C.2       8 UNK         0.5038 
     53 O          21.7320  -35.8687  -39.9891 O.2       8 UNK        -0.5046 
     54 N          21.4113  -33.6302  -39.7879 N.am      9 UNK        -0.4200 
     55 CA         20.1908  -33.6547  -38.9678 C.3       9 UNK         0.0839 
     56 C          20.2053  -32.6220  -37.8042 C.2       9 UNK         0.5513 
     57 N          21.3434  -32.0260  -37.4661 N.am      9 UNK        -0.7519 
     58 O          19.1785  -32.3754  -37.1767 O.2       9 UNK        -0.4960 
     59 C59        18.9015  -33.6192  -39.8341 C.3       10 UNK        -0.0876 
     60 S60        18.7453  -32.1271  -40.8766 S.3       10 UNK        -0.2414 
     61 C61        18.9231  -32.8366  -42.5404 C.3       10 UNK         0.0169 
     62 H62        14.0606  -24.3202  -41.6436 H         1 UNK         0.0903 
     63 H63        15.2686  -25.5012  -41.1334 H         1 UNK         0.0903 
     64 H64        15.5510  -23.7798  -40.8652 H         1 UNK         0.0903 
     65 H65        16.5006  -26.2800  -42.8329 H         1 UNK         0.3096 
     66 H66        16.5551  -25.0368  -45.4259 H         1 UNK         0.1121 
     67 H67        17.9244  -27.4836  -44.2132 H         1 UNK         0.0849 
     68 H68        18.3352  -26.9265  -45.8127 H         1 UNK         0.0849 
     69 H69        15.6546  -29.3154  -44.0151 H         1 UNK         0.0865 
     70 H70        15.4025  -30.1033  -45.5518 H         1 UNK         0.0865 
     71 H71        16.6940  -31.4923  -43.3156 H         1 UNK         0.1346 
     72 H72        20.9161  -31.6907  -44.0230 H         1 UNK         0.1412 
     73 H73        18.4882  -29.0814  -46.3792 H         1 UNK         0.1426 
     74 H74        20.9085  -29.4718  -46.9302 H         1 UNK         0.0716 
     75 H75        21.9336  -30.2543  -45.7337 H         1 UNK         0.0716 
     76 H76        22.3644  -27.2102  -46.9209 H         1 UNK         0.0695 
     77 H77        23.4957  -27.7211  -45.6963 H         1 UNK         0.0695 
     78 H78        23.5136  -25.2530  -45.9029 H         1 UNK         0.0983 
     79 H79        20.6489  -25.5036  -45.8812 H         1 UNK         0.3095 
     80 H80        19.8107  -22.2486  -45.1007 H         1 UNK         0.0454 
     81 H81        20.6451  -21.6311  -47.3771 H         1 UNK         0.0851 
     82 H82        18.9044  -21.8421  -47.3698 H         1 UNK         0.0851 
     83 H83        19.9445  -23.0985  -48.0438 H         1 UNK         0.0851 
     84 H84        18.2305  -24.0756  -46.5121 H         1 UNK         0.2976 
     85 H85        21.2389  -24.9059  -43.3860 H         1 UNK         0.3116 
     86 H86        21.2392  -24.8014  -41.1848 H         1 UNK         0.0646 
     87 H87        24.3035  -24.6916  -41.2506 H         1 UNK         0.0847 
     88 H88        23.2344  -23.2982  -41.4058 H         1 UNK         0.0847 
     89 H89        23.2674  -24.2236  -39.9137 H         1 UNK         0.0847 
     90 H90        20.8465  -27.1777  -42.3202 H         1 UNK         0.3040 
     91 H91        20.4408  -29.3035  -41.9401 H         1 UNK         0.1015 
     92 H92        20.7093  -30.3175  -39.7054 H         1 UNK         0.0786 
     93 H93        20.0396  -28.7063  -39.5483 H         1 UNK         0.0786 
     94 H94        21.7378  -29.0058  -39.1748 H         1 UNK         0.0786 
     95 H95        23.5328  -28.1939  -42.2875 H         1 UNK         0.3172 
     96 H96        25.4815  -28.9613  -42.9853 H         1 UNK         0.0595 
     97 H97        23.8602  -31.3444  -44.0359 H         1 UNK         0.0839 
     98 H98        25.4446  -30.8471  -44.6120 H         1 UNK         0.0839 
     99 H99        24.0672  -29.7979  -44.8564 H         1 UNK         0.0839 
    100 H100       24.5145  -29.9882  -40.2820 H         1 UNK         0.2998 
    101 H101       25.0286  -31.2917  -38.5767 H         1 UNK         0.0822 
    102 H102       27.2691  -32.2497  -38.2905 H         1 UNK         0.0787 
    103 H103       27.4247  -30.6555  -39.0075 H         1 UNK         0.0787 
    104 H104       27.6170  -32.0975  -40.0041 H         1 UNK         0.0787 
    105 H105       23.6624  -32.3649  -41.1213 H         1 UNK         0.3055 
    106 H106       24.0364  -35.2916  -40.8430 H         1 UNK         0.1106 
    107 H107       23.9432  -34.3057  -43.1259 H         1 UNK         0.0828 
    108 H108       22.5566  -35.3493  -42.8521 H         1 UNK         0.0828 
    109 H109       22.3646  -33.6022  -42.7861 H         1 UNK         0.0828 
    110 H110       21.7363  -32.7141  -40.0660 H         1 UNK         0.2931 
    111 H111       20.1714  -34.6080  -38.4366 H         1 UNK         0.0412 
    112 H112       21.3417  -31.3680  -36.7025 H         1 UNK         0.3472 
    113 H113       22.2079  -32.2692  -37.9194 H         1 UNK         0.3472 
    114 H114       18.8689  -34.5081  -40.4657 H         1 UNK         0.0970 
    115 H115       18.0151  -33.6880  -39.2012 H         1 UNK         0.0970 
    116 H116       19.8843  -33.3476  -42.6108 H         1 UNK         0.0612 
    117 H117       18.1526  -33.5928  -42.6976 H         1 UNK         0.0612 
@<TRIPOS>BOND
     1    1    2 1    
     2    1   62 1    
     3    1   63 1    
     4    1   64 1    
     5    2    3 2    
     6    2    4 am   BACKBONE|DICT|INTERRES
     7    4    5 1    
     8    4   65 1    
     9    5    6 1    
    10    5   25 1    
    11    5   66 1    
    12    6    7 1    
    13    6   67 1    
    14    6   68 1    
    15    7    8 1    
    16    8    9 1    
    17    8   69 1    
    18    8   70 1    
    19    9   10 ar   
    20    9   14 ar   
    21   10   11 ar   
    22   10   71 1    
    23   11   12 ar   
    24   11   61 1    
    25   12   13 ar   
    26   12   72 1    
    27   13   14 ar   
    28   13   15 1    
    29   14   73 1    
    30   15   16 1    
    31   15   74 1    
    32   15   75 1    
    33   16   17 1    
    34   17   18 1    
    35   17   76 1    
    36   17   77 1    
    37   18   19 1    
    38   18   27 1    
    39   18   78 1    
    40   19   20 am   BACKBONE|DICT|INTERRES
    41   19   79 1    
    42   20   21 2    
    43   20   22 1    
    44   22   23 1    
    45   22   24 1    
    46   22   80 1    
    47   23   81 1    
    48   23   82 1    
    49   23   83 1    
    50   24   25 am   BACKBONE|DICT|INTERRES
    51   24   84 1    
    52   25   26 2    
    53   27   28 2    
    54   27   29 am   BACKBONE|DICT|INTERRES
    55   29   30 1    
    56   29   85 1    
    57   30   31 1    
    58   30   32 1    
    59   30   86 1    
    60   31   87 1    
    61   31   88 1    
    62   31   89 1    
    63   32   33 2    
    64   32   34 am   BACKBONE|DICT|INTERRES
    65   34   35 1    
    66   34   90 1    
    67   35   36 1    
    68   35   37 1    
    69   35   91 1    
    70   36   92 1    
    71   36   93 1    
    72   36   94 1    
    73   37   38 2    
    74   37   39 am   BACKBONE|DICT|INTERRES
    75   39   40 1    
    76   39   95 1    
    77   40   41 1    
    78   40   42 1    
    79   40   96 1    
    80   41   97 1    
    81   41   98 1    
    82   41   99 1    
    83   42   43 2    
    84   42   44 am   BACKBONE|DICT|INTERRES
    85   44   45 1    
    86   44  100 1    
    87   45   46 1    
    88   45   47 1    
    89   45  101 1    
    90   46  102 1    
    91   46  103 1    
    92   46  104 1    
    93   47   48 2    
    94   47   49 am   BACKBONE|DICT|INTERRES
    95   49   50 1    
    96   49  105 1    
    97   50   51 1    
    98   50   52 1    
    99   50  106 1    
   100   51  107 1    
   101   51  108 1    
   102   51  109 1    
   103   52   53 2    
   104   52   54 am   BACKBONE|DICT|INTERRES
   105   54   55 1    
   106   54  110 1    
   107   55   56 1    
   108   55   59 1    
   109   55  111 1    
   110   56   57 am   BACKBONE|DICT|INTERRES
   111   56   58 2    
   112   57  112 1    
   113   57  113 1    
   114   59   60 1    
   115   59  114 1    
   116   59  115 1    
   117   60   61 1    
   118   61  116 1    
   119   61  117 1    
@<TRIPOS>SUBSTRUCTURE
     1 UNK         1 GROUP             0       ****    0 ROOT    
