@<TRIPOS>MOLECULE
3R8
117   119    1
SMALL
USER_CHARGES


@<TRIPOS>ATOM
      1 CA         15.4249  -25.1642  -48.7695 C.3       0 UNK        -0.2013 
      2 C          15.7969  -24.9604  -47.3086 C.2       0 UNK         0.4866 
      3 O          15.5886  -23.8723  -46.7727 O.2       0 UNK        -0.5176 
      4 N          16.3539  -25.9980  -46.6662 N.am      1 UNK        -0.4884 
      5 CA         16.7757  -26.0223  -45.2554 C.3       1 UNK         0.0853 
      6 C6         15.5884  -25.8008  -44.2746 C.3       10 UNK        -0.0849 
      7 S7         15.7852  -26.5754  -42.6315 S.3       10 UNK        -0.2776 
      8 C8         15.5660  -28.3530  -42.9725 C.3       10 UNK         0.0316 
      9 C9         16.8825  -29.1062  -42.8279 C.ar      10 UNK        -0.0863 
     10 C10        17.3802  -29.4081  -41.5568 C.ar      10 UNK        -0.1009 
     11 C11        18.5909  -30.0916  -41.4004 C.ar      10 UNK        -0.0712 
     12 C12        19.3114  -30.4657  -42.5436 C.ar      10 UNK        -0.0894 
     13 C13        18.8255  -30.1722  -43.8217 C.ar      10 UNK        -0.0745 
     14 C14        17.6004  -29.5116  -43.9552 C.ar      10 UNK        -0.0972 
     15 C15        19.5981  -30.6027  -45.0619 C.3       10 UNK         0.0209 
     16 S16        19.9503  -29.2049  -46.1814 S.3       10 UNK        -0.2568 
     17 C17        21.6704  -28.7429  -45.7597 C.3       10 UNK        -0.0983 
     18 CA         21.8203  -27.4445  -44.9201 C.3       3 UNK         0.0876 
     19 N          20.9792  -26.3727  -45.4549 N.am      3 UNK        -0.4424 
     20 C          21.1905  -25.0547  -45.3610 C.2       2 UNK         0.4918 
     21 O          22.1825  -24.5531  -44.8342 O.2       2 UNK        -0.4875 
     22 CA         20.0897  -24.1445  -45.9419 C.3       2 UNK         0.0481 
     23 CB         20.4911  -23.6387  -47.3363 C.3       2 UNK        -0.1831 
     24 N          18.7847  -24.8132  -46.0274 N.am      2 UNK        -0.4498 
     25 C          18.0241  -25.1486  -44.9727 C.2       1 UNK         0.5027 
     26 O          18.3232  -24.8436  -43.8186 O.2       1 UNK        -0.4969 
     27 C          21.6284  -27.6924  -43.4051 C.2       3 UNK         0.5005 
     28 O          22.2715  -28.5969  -42.8698 O.2       3 UNK        -0.5279 
     29 N          20.7706  -26.9058  -42.7360 N.am      4 UNK        -0.4463 
     30 CA         20.5320  -26.9699  -41.2935 C.3       4 UNK         0.0283 
     31 CB         19.3470  -26.0644  -40.9302 C.3       4 UNK        -0.1875 
     32 C          21.7685  -26.5961  -40.4595 C.2       4 UNK         0.4949 
     33 O          22.5573  -25.7452  -40.8768 O.2       4 UNK        -0.5039 
     34 N          21.8738  -27.2196  -39.2764 N.am      5 UNK        -0.4663 
     35 CA         22.9505  -27.0785  -38.2866 C.3       5 UNK         0.0242 
     36 CB         22.9488  -25.6630  -37.6692 C.3       5 UNK        -0.1982 
     37 C          24.3256  -27.4977  -38.8438 C.2       5 UNK         0.5017 
     38 O          25.3191  -26.7964  -38.6406 O.2       5 UNK        -0.5012 
     39 N          24.3518  -28.6388  -39.5400 N.am      6 UNK        -0.4439 
     40 CA         25.5328  -29.2391  -40.1518 C.3       6 UNK         0.0297 
     41 CB         25.7019  -28.6884  -41.5809 C.3       6 UNK        -0.2006 
     42 C          25.3729  -30.7643  -40.1537 C.2       6 UNK         0.4892 
     43 O          24.2988  -31.2733  -39.8245 O.2       6 UNK        -0.5089 
     44 N          26.4342  -31.4704  -40.5675 N.am      7 UNK        -0.4243 
     45 CA         26.5006  -32.9360  -40.6718 C.3       7 UNK         0.0196 
     46 CB         27.9364  -33.3429  -41.0435 C.3       7 UNK        -0.2007 
     47 C          25.4899  -33.5681  -41.6523 C.2       7 UNK         0.5020 
     48 O          25.2879  -34.7815  -41.6093 O.2       7 UNK        -0.5147 
     49 N          24.8687  -32.7456  -42.5079 N.am      8 UNK        -0.4734 
     50 CA         23.7673  -33.1192  -43.3959 C.3       8 UNK         0.0238 
     51 CB         23.5479  -31.9844  -44.4070 C.3       8 UNK        -0.1912 
     52 C          22.4526  -33.4345  -42.6551 C.2       8 UNK         0.5038 
     53 O          21.6084  -34.1269  -43.2252 O.2       8 UNK        -0.5046 
     54 N          22.2881  -32.9258  -41.4250 N.am      9 UNK        -0.4200 
     55 CA         21.1449  -33.2210  -40.5497 C.3       9 UNK         0.0839 
     56 C          21.1327  -34.7018  -40.0841 C.2       9 UNK         0.5513 
     57 N          19.9669  -35.3329  -40.0513 N.am      9 UNK        -0.7519 
     58 O          22.1580  -35.2645  -39.7068 O.2       9 UNK        -0.4960 
     59 C59        21.0971  -32.2725  -39.3255 C.3       10 UNK        -0.0876 
     60 S60        20.8833  -30.5215  -39.7881 S.3       10 UNK        -0.2414 
     61 C61        19.0689  -30.4182  -39.9842 C.3       10 UNK         0.0169 
     62 H62        15.6674  -26.1680  -49.1179 H         1 UNK         0.0903 
     63 H63        14.3557  -25.0068  -48.9089 H         1 UNK         0.0903 
     64 H64        15.9585  -24.4498  -49.3959 H         1 UNK         0.0903 
     65 H65        16.4972  -26.8623  -47.1724 H         1 UNK         0.3096 
     66 H66        17.1329  -27.0380  -45.1016 H         1 UNK         0.1121 
     67 H67        14.6672  -26.1962  -44.7055 H         1 UNK         0.0849 
     68 H68        15.4062  -24.7338  -44.1341 H         1 UNK         0.0849 
     69 H69        14.8391  -28.7591  -42.2673 H         1 UNK         0.0865 
     70 H70        15.1379  -28.5029  -43.9648 H         1 UNK         0.0865 
     71 H71        16.8186  -29.1050  -40.6834 H         1 UNK         0.1346 
     72 H72        20.2528  -30.9869  -42.4449 H         1 UNK         0.1412 
     73 H73        17.2125  -29.3119  -44.9441 H         1 UNK         0.1426 
     74 H74        18.9961  -31.3337  -45.6032 H         1 UNK         0.0716 
     75 H75        20.5229  -31.1139  -44.7927 H         1 UNK         0.0716 
     76 H76        22.1865  -28.5964  -46.7097 H         1 UNK         0.0695 
     77 H77        22.1837  -29.5838  -45.2961 H         1 UNK         0.0695 
     78 H78        22.8594  -27.1221  -45.0175 H         1 UNK         0.0983 
     79 H79        20.1410  -26.6902  -45.9193 H         1 UNK         0.3095 
     80 H80        19.9897  -23.2812  -45.2807 H         1 UNK         0.0454 
     81 H81        20.6013  -24.4571  -48.0489 H         1 UNK         0.0851 
     82 H82        21.4444  -23.1095  -47.2992 H         1 UNK         0.0851 
     83 H83        19.7525  -22.9427  -47.7342 H         1 UNK         0.0851 
     84 H84        18.4640  -25.0804  -46.9471 H         1 UNK         0.2976 
     85 H85        20.2890  -26.1738  -43.2386 H         1 UNK         0.3116 
     86 H86        20.2608  -27.9965  -41.0592 H         1 UNK         0.0646 
     87 H87        19.5400  -25.0227  -41.1895 H         1 UNK         0.0847 
     88 H88        19.1327  -26.1032  -39.8616 H         1 UNK         0.0847 
     89 H89        18.4432  -26.3778  -41.4504 H         1 UNK         0.0847 
     90 H90        21.1725  -27.9131  -39.0516 H         1 UNK         0.3040 
     91 H91        22.7259  -27.7836  -37.4844 H         1 UNK         0.1015 
     92 H92        23.2192  -24.9000  -38.3997 H         1 UNK         0.0786 
     93 H93        23.6648  -25.5943  -36.8493 H         1 UNK         0.0786 
     94 H94        21.9694  -25.4078  -37.2646 H         1 UNK         0.0786 
     95 H95        23.5090  -29.1956  -39.6247 H         1 UNK         0.3172 
     96 H96        26.4167  -28.9977  -39.5578 H         1 UNK         0.0595 
     97 H97        24.8600  -28.9619  -42.2180 H         1 UNK         0.0839 
     98 H98        26.6084  -29.0681  -42.0530 H         1 UNK         0.0839 
     99 H99        25.7740  -27.6005  -41.5796 H         1 UNK         0.0839 
    100 H100       27.2721  -30.9687  -40.8260 H         1 UNK         0.2998 
    101 H101       26.2742  -33.3428  -39.6838 H         1 UNK         0.0822 
    102 H102       28.6549  -32.9891  -40.3038 H         1 UNK         0.0787 
    103 H103       28.0359  -34.4283  -41.0930 H         1 UNK         0.0787 
    104 H104       28.2289  -32.9447  -42.0160 H         1 UNK         0.0787 
    105 H105       25.1091  -31.7662  -42.4729 H         1 UNK         0.3055 
    106 H106       24.0580  -34.0207  -43.9401 H         1 UNK         0.1106 
    107 H107       23.2747  -31.0565  -43.9032 H         1 UNK         0.0828 
    108 H108       22.7468  -32.2301  -45.1054 H         1 UNK         0.0828 
    109 H109       24.4443  -31.7966  -44.9982 H         1 UNK         0.0828 
    110 H110       23.0310  -32.3736  -41.0104 H         1 UNK         0.2931 
    111 H111       20.2397  -33.0509  -41.1362 H         1 UNK         0.0412 
    112 H112       19.9359  -36.2897  -39.7345 H         1 UNK         0.3472 
    113 H113       19.1185  -34.8776  -40.3510 H         1 UNK         0.3472 
    114 H114       22.0185  -32.3593  -38.7464 H         1 UNK         0.0970 
    115 H115       20.2937  -32.5544  -38.6421 H         1 UNK         0.0970 
    116 H116       18.5989  -31.3515  -39.6735 H         1 UNK         0.0612 
    117 H117       18.7119  -29.6534  -39.2928 H         1 UNK         0.0612 
@<TRIPOS>BOND
     1    1    2 1    
     2    1   62 1    
     3    1   63 1    
     4    1   64 1    
     5    2    3 2    
     6    2    4 am   BACKBONE|DICT|INTERRES
     7    4    5 1    
     8    4   65 1    
     9    5    6 1    
    10    5   25 1    
    11    5   66 1    
    12    6    7 1    
    13    6   67 1    
    14    6   68 1    
    15    7    8 1    
    16    8    9 1    
    17    8   69 1    
    18    8   70 1    
    19    9   10 ar   
    20    9   14 ar   
    21   10   11 ar   
    22   10   71 1    
    23   11   12 ar   
    24   11   61 1    
    25   12   13 ar   
    26   12   72 1    
    27   13   14 ar   
    28   13   15 1    
    29   14   73 1    
    30   15   16 1    
    31   15   74 1    
    32   15   75 1    
    33   16   17 1    
    34   17   18 1    
    35   17   76 1    
    36   17   77 1    
    37   18   19 1    
    38   18   27 1    
    39   18   78 1    
    40   19   20 am   BACKBONE|DICT|INTERRES
    41   19   79 1    
    42   20   21 2    
    43   20   22 1    
    44   22   23 1    
    45   22   24 1    
    46   22   80 1    
    47   23   81 1    
    48   23   82 1    
    49   23   83 1    
    50   24   25 am   BACKBONE|DICT|INTERRES
    51   24   84 1    
    52   25   26 2    
    53   27   28 2    
    54   27   29 am   BACKBONE|DICT|INTERRES
    55   29   30 1    
    56   29   85 1    
    57   30   31 1    
    58   30   32 1    
    59   30   86 1    
    60   31   87 1    
    61   31   88 1    
    62   31   89 1    
    63   32   33 2    
    64   32   34 am   BACKBONE|DICT|INTERRES
    65   34   35 1    
    66   34   90 1    
    67   35   36 1    
    68   35   37 1    
    69   35   91 1    
    70   36   92 1    
    71   36   93 1    
    72   36   94 1    
    73   37   38 2    
    74   37   39 am   BACKBONE|DICT|INTERRES
    75   39   40 1    
    76   39   95 1    
    77   40   41 1    
    78   40   42 1    
    79   40   96 1    
    80   41   97 1    
    81   41   98 1    
    82   41   99 1    
    83   42   43 2    
    84   42   44 am   BACKBONE|DICT|INTERRES
    85   44   45 1    
    86   44  100 1    
    87   45   46 1    
    88   45   47 1    
    89   45  101 1    
    90   46  102 1    
    91   46  103 1    
    92   46  104 1    
    93   47   48 2    
    94   47   49 am   BACKBONE|DICT|INTERRES
    95   49   50 1    
    96   49  105 1    
    97   50   51 1    
    98   50   52 1    
    99   50  106 1    
   100   51  107 1    
   101   51  108 1    
   102   51  109 1    
   103   52   53 2    
   104   52   54 am   BACKBONE|DICT|INTERRES
   105   54   55 1    
   106   54  110 1    
   107   55   56 1    
   108   55   59 1    
   109   55  111 1    
   110   56   57 am   BACKBONE|DICT|INTERRES
   111   56   58 2    
   112   57  112 1    
   113   57  113 1    
   114   59   60 1    
   115   59  114 1    
   116   59  115 1    
   117   60   61 1    
   118   61  116 1    
   119   61  117 1    
@<TRIPOS>SUBSTRUCTURE
     1 UNK         1 GROUP             0       ****    0 ROOT    
