@<TRIPOS>MOLECULE
3R8
117   119    1
SMALL
USER_CHARGES


@<TRIPOS>ATOM
      1 CA         12.7910  -23.7793  -44.1895 C.3       0 UNK        -0.2013 
      2 C          14.1863  -24.0775  -44.7182 C.2       0 UNK         0.4866 
      3 O          14.8039  -23.2112  -45.3390 O.2       0 UNK        -0.5176 
      4 N          14.6834  -25.2984  -44.4862 N.am      1 UNK        -0.4884 
      5 CA         16.0257  -25.7416  -44.8777 C.3       1 UNK         0.0853 
      6 C6         16.1736  -27.2805  -44.7791 C.3       10 UNK        -0.0849 
      7 S7         15.1995  -28.1468  -46.0506 S.3       10 UNK        -0.2776 
      8 C8         15.4652  -29.8911  -45.5707 C.3       10 UNK         0.0316 
      9 C9         16.9185  -30.3732  -45.6075 C.ar      10 UNK        -0.0863 
     10 C10        17.3008  -31.4226  -44.7632 C.ar      10 UNK        -0.1009 
     11 C11        18.6081  -31.9182  -44.7816 C.ar      10 UNK        -0.0712 
     12 C12        19.5449  -31.3470  -45.6467 C.ar      10 UNK        -0.0894 
     13 C13        19.1868  -30.2891  -46.4857 C.ar      10 UNK        -0.0745 
     14 C14        17.8695  -29.8212  -46.4778 C.ar      10 UNK        -0.0972 
     15 C15        20.2284  -29.6508  -47.3948 C.3       10 UNK         0.0209 
     16 S16        20.8265  -28.0570  -46.7419 S.3       10 UNK        -0.2568 
     17 C17        21.4905  -28.5550  -45.1154 C.3       10 UNK        -0.0983 
     18 CA         22.2412  -27.4150  -44.3734 C.3       3 UNK         0.0876 
     19 N          21.4686  -26.1630  -44.2678 N.am      3 UNK        -0.4424 
     20 C          20.2554  -25.9795  -43.7264 C.2       2 UNK         0.4918 
     21 O          19.6622  -26.8444  -43.0794 O.2       2 UNK        -0.4875 
     22 CA         19.5629  -24.6228  -43.9597 C.3       2 UNK         0.0481 
     23 CB         20.3822  -23.6233  -44.8020 C.3       2 UNK        -0.1831 
     24 N          18.2972  -24.8949  -44.6373 N.am      2 UNK        -0.4498 
     25 C          17.1190  -25.0680  -44.0251 C.2       1 UNK         0.5027 
     26 O          16.9004  -24.7905  -42.8422 O.2       1 UNK        -0.4969 
     27 C          22.7886  -27.9416  -43.0297 C.2       3 UNK         0.5005 
     28 O          23.9409  -28.3760  -42.9744 O.2       3 UNK        -0.5279 
     29 N          21.9592  -27.9075  -41.9785 N.am      4 UNK        -0.4463 
     30 CA         22.1545  -28.5048  -40.6545 C.3       4 UNK         0.0283 
     31 CB         20.9510  -28.1567  -39.7659 C.3       4 UNK        -0.1875 
     32 C          23.4647  -28.1466  -39.9369 C.2       4 UNK         0.4949 
     33 O          23.9474  -28.9590  -39.1501 O.2       4 UNK        -0.5039 
     34 N          24.0375  -26.9757  -40.2448 N.am      5 UNK        -0.4663 
     35 CA         25.3463  -26.5311  -39.7562 C.3       5 UNK         0.0242 
     36 CB         25.5806  -25.0781  -40.2001 C.3       5 UNK        -0.1982 
     37 C          26.5182  -27.4268  -40.2058 C.2       5 UNK         0.5017 
     38 O          27.5326  -27.4698  -39.5086 O.2       5 UNK        -0.5012 
     39 N          26.3589  -28.1194  -41.3424 N.am      6 UNK        -0.4439 
     40 CA         27.3235  -29.0776  -41.8836 C.3       6 UNK         0.0297 
     41 CB         27.7496  -28.6270  -43.2908 C.3       6 UNK        -0.2006 
     42 C          26.7418  -30.4986  -41.9320 C.2       6 UNK         0.4892 
     43 O          27.4583  -31.4510  -41.6227 O.2       6 UNK        -0.5089 
     44 N          25.4694  -30.6250  -42.3335 N.am      7 UNK        -0.4243 
     45 CA         24.7994  -31.9042  -42.5799 C.3       7 UNK         0.0196 
     46 CB         23.6758  -31.6766  -43.6040 C.3       7 UNK        -0.2007 
     47 C          24.2506  -32.5893  -41.3150 C.2       7 UNK         0.5020 
     48 O          23.9141  -33.7710  -41.3875 O.2       7 UNK        -0.5147 
     49 N          24.1527  -31.8547  -40.1946 N.am      8 UNK        -0.4734 
     50 CA         23.6250  -32.2930  -38.8906 C.3       8 UNK         0.0238 
     51 CB         24.5022  -33.4083  -38.2811 C.3       8 UNK        -0.1912 
     52 C          22.1233  -32.6550  -38.9105 C.2       8 UNK         0.5038 
     53 O          21.6754  -33.4633  -38.0956 O.2       8 UNK        -0.5046 
     54 N          21.3720  -32.0340  -39.8283 N.am      9 UNK        -0.4200 
     55 CA         19.9222  -32.2051  -40.0310 C.3       9 UNK         0.0839 
     56 C          19.0184  -31.5720  -38.9311 C.2       9 UNK         0.5513 
     57 N          19.5546  -30.8744  -37.9373 N.am      9 UNK        -0.7519 
     58 O          17.8007  -31.7252  -38.9773 O.2       9 UNK        -0.4960 
     59 C59        19.4958  -31.7355  -41.4492 C.3       10 UNK        -0.0876 
     60 S60        20.3575  -32.6737  -42.7542 S.3       10 UNK        -0.2414 
     61 C61        19.0053  -33.0940  -43.8983 C.3       10 UNK         0.0169 
     62 H62        12.1285  -23.5075  -45.0110 H         1 UNK         0.0903 
     63 H63        12.3578  -24.6366  -43.6744 H         1 UNK         0.0903 
     64 H64        12.8258  -22.9452  -43.4892 H         1 UNK         0.0903 
     65 H65        14.1378  -25.9683  -43.9631 H         1 UNK         0.3096 
     66 H66        16.1830  -25.4423  -45.9170 H         1 UNK         0.1121 
     67 H67        17.2171  -27.5780  -44.9051 H         1 UNK         0.0849 
     68 H68        15.8777  -27.6367  -43.7902 H         1 UNK         0.0849 
     69 H69        15.0515  -30.0339  -44.5710 H         1 UNK         0.0865 
     70 H70        14.8783  -30.5243  -46.2373 H         1 UNK         0.0865 
     71 H71        16.5724  -31.8672  -44.0985 H         1 UNK         0.1346 
     72 H72        20.5591  -31.7228  -45.6565 H         1 UNK         0.1412 
     73 H73        17.5969  -29.0144  -47.1435 H         1 UNK         0.1426 
     74 H74        19.7986  -29.4891  -48.3843 H         1 UNK         0.0716 
     75 H75        21.0784  -30.3202  -47.5373 H         1 UNK         0.0716 
     76 H76        20.6607  -28.9214  -44.5080 H         1 UNK         0.0695 
     77 H77        22.1552  -29.4072  -45.2700 H         1 UNK         0.0695 
     78 H78        23.1174  -27.1626  -44.9732 H         1 UNK         0.0983 
     79 H79        21.8785  -25.3787  -44.7539 H         1 UNK         0.3095 
     80 H80        19.3843  -24.1735  -42.9809 H         1 UNK         0.0454 
     81 H81        20.6064  -24.0063  -45.7986 H         1 UNK         0.0851 
     82 H82        19.8369  -22.6878  -44.9293 H         1 UNK         0.0851 
     83 H83        21.3252  -23.3717  -44.3148 H         1 UNK         0.0851 
     84 H84        18.3761  -25.1781  -45.6041 H         1 UNK         0.2976 
     85 H85        21.0306  -27.5326  -42.1693 H         1 UNK         0.3116 
     86 H86        22.1674  -29.5834  -40.8070 H         1 UNK         0.0646 
     87 H87        20.0215  -28.5493  -40.1782 H         1 UNK         0.0847 
     88 H88        20.8358  -27.0782  -39.6515 H         1 UNK         0.0847 
     89 H89        21.0641  -28.5769  -38.7659 H         1 UNK         0.0847 
     90 H90        23.5665  -26.3761  -40.9068 H         1 UNK         0.3040 
     91 H91        25.3204  -26.5592  -38.6645 H         1 UNK         0.1015 
     92 H92        24.8060  -24.4147  -39.8149 H         1 UNK         0.0786 
     93 H93        25.5950  -24.9852  -41.2869 H         1 UNK         0.0786 
     94 H94        26.5367  -24.7060  -39.8287 H         1 UNK         0.0786 
     95 H95        25.4793  -28.0263  -41.8433 H         1 UNK         0.3172 
     96 H96        28.2182  -29.1157  -41.2586 H         1 UNK         0.0595 
     97 H97        28.4629  -29.3278  -43.7268 H         1 UNK         0.0839 
     98 H98        28.2320  -27.6498  -43.2626 H         1 UNK         0.0839 
     99 H99        26.8989  -28.5600  -43.9705 H         1 UNK         0.0839 
    100 H100       24.9453  -29.7898  -42.5891 H         1 UNK         0.2998 
    101 H101       25.5220  -32.5910  -43.0263 H         1 UNK         0.0822 
    102 H102       24.0567  -31.2255  -44.5204 H         1 UNK         0.0787 
    103 H103       23.2045  -32.6204  -43.8816 H         1 UNK         0.0787 
    104 H104       22.8957  -31.0256  -43.2088 H         1 UNK         0.0787 
    105 H105       24.4612  -30.8905  -40.2285 H         1 UNK         0.3055 
    106 H106       23.7046  -31.4299  -38.2281 H         1 UNK         0.1106 
    107 H107       24.4131  -34.3440  -38.8334 H         1 UNK         0.0828 
    108 H108       25.5542  -33.1237  -38.2692 H         1 UNK         0.0828 
    109 H109       24.2130  -33.6140  -37.2497 H         1 UNK         0.0828 
    110 H110       21.8374  -31.4220  -40.4784 H         1 UNK         0.2931 
    111 H111       19.7243  -33.2774  -39.9750 H         1 UNK         0.0412 
    112 H112       20.5528  -30.7722  -37.8631 H         1 UNK         0.3472 
    113 H113       18.9517  -30.4796  -37.2326 H         1 UNK         0.3472 
    114 H114       18.4190  -31.8518  -41.5853 H         1 UNK         0.0970 
    115 H115       19.7036  -30.6731  -41.5879 H         1 UNK         0.0970 
    116 H116       19.3380  -33.9115  -44.5393 H         1 UNK         0.0612 
    117 H117       18.1531  -33.4764  -43.3346 H         1 UNK         0.0612 
@<TRIPOS>BOND
     1    1    2 1    
     2    1   62 1    
     3    1   63 1    
     4    1   64 1    
     5    2    3 2    
     6    2    4 am   BACKBONE|DICT|INTERRES
     7    4    5 1    
     8    4   65 1    
     9    5    6 1    
    10    5   25 1    
    11    5   66 1    
    12    6    7 1    
    13    6   67 1    
    14    6   68 1    
    15    7    8 1    
    16    8    9 1    
    17    8   69 1    
    18    8   70 1    
    19    9   10 ar   
    20    9   14 ar   
    21   10   11 ar   
    22   10   71 1    
    23   11   12 ar   
    24   11   61 1    
    25   12   13 ar   
    26   12   72 1    
    27   13   14 ar   
    28   13   15 1    
    29   14   73 1    
    30   15   16 1    
    31   15   74 1    
    32   15   75 1    
    33   16   17 1    
    34   17   18 1    
    35   17   76 1    
    36   17   77 1    
    37   18   19 1    
    38   18   27 1    
    39   18   78 1    
    40   19   20 am   BACKBONE|DICT|INTERRES
    41   19   79 1    
    42   20   21 2    
    43   20   22 1    
    44   22   23 1    
    45   22   24 1    
    46   22   80 1    
    47   23   81 1    
    48   23   82 1    
    49   23   83 1    
    50   24   25 am   BACKBONE|DICT|INTERRES
    51   24   84 1    
    52   25   26 2    
    53   27   28 2    
    54   27   29 am   BACKBONE|DICT|INTERRES
    55   29   30 1    
    56   29   85 1    
    57   30   31 1    
    58   30   32 1    
    59   30   86 1    
    60   31   87 1    
    61   31   88 1    
    62   31   89 1    
    63   32   33 2    
    64   32   34 am   BACKBONE|DICT|INTERRES
    65   34   35 1    
    66   34   90 1    
    67   35   36 1    
    68   35   37 1    
    69   35   91 1    
    70   36   92 1    
    71   36   93 1    
    72   36   94 1    
    73   37   38 2    
    74   37   39 am   BACKBONE|DICT|INTERRES
    75   39   40 1    
    76   39   95 1    
    77   40   41 1    
    78   40   42 1    
    79   40   96 1    
    80   41   97 1    
    81   41   98 1    
    82   41   99 1    
    83   42   43 2    
    84   42   44 am   BACKBONE|DICT|INTERRES
    85   44   45 1    
    86   44  100 1    
    87   45   46 1    
    88   45   47 1    
    89   45  101 1    
    90   46  102 1    
    91   46  103 1    
    92   46  104 1    
    93   47   48 2    
    94   47   49 am   BACKBONE|DICT|INTERRES
    95   49   50 1    
    96   49  105 1    
    97   50   51 1    
    98   50   52 1    
    99   50  106 1    
   100   51  107 1    
   101   51  108 1    
   102   51  109 1    
   103   52   53 2    
   104   52   54 am   BACKBONE|DICT|INTERRES
   105   54   55 1    
   106   54  110 1    
   107   55   56 1    
   108   55   59 1    
   109   55  111 1    
   110   56   57 am   BACKBONE|DICT|INTERRES
   111   56   58 2    
   112   57  112 1    
   113   57  113 1    
   114   59   60 1    
   115   59  114 1    
   116   59  115 1    
   117   60   61 1    
   118   61  116 1    
   119   61  117 1    
@<TRIPOS>SUBSTRUCTURE
     1 UNK         1 GROUP             0       ****    0 ROOT    
