@<TRIPOS>MOLECULE
3R8
117   119    1
SMALL
USER_CHARGES


@<TRIPOS>ATOM
      1 CA         19.0499  -26.1215  -49.1023 C.3       0 UNK        -0.2013 
      2 C          19.0678  -26.5302  -47.6375 C.2       0 UNK         0.4866 
      3 O          20.1044  -26.9627  -47.1330 O.2       0 UNK        -0.5176 
      4 N          17.9344  -26.3819  -46.9404 N.am      1 UNK        -0.4884 
      5 CA         17.7290  -26.7535  -45.5321 C.3       1 UNK         0.0853 
      6 C6         16.2309  -27.0142  -45.2266 C.3       10 UNK        -0.0849 
      7 S7         15.5831  -28.4287  -46.1780 S.3       10 UNK        -0.2776 
      8 C8         15.2849  -29.6542  -44.8609 C.3       10 UNK         0.0316 
      9 C9         16.5557  -30.0647  -44.1240 C.ar      10 UNK        -0.0863 
     10 C10        17.5893  -30.7128  -44.8089 C.ar      10 UNK        -0.1009 
     11 C11        18.7277  -31.1480  -44.1252 C.ar      10 UNK        -0.0712 
     12 C12        18.8294  -30.9298  -42.7495 C.ar      10 UNK        -0.0894 
     13 C13        17.8033  -30.2921  -42.0477 C.ar      10 UNK        -0.0745 
     14 C14        16.6728  -29.8509  -42.7448 C.ar      10 UNK        -0.0972 
     15 C15        17.8771  -30.1577  -40.5289 C.3       10 UNK         0.0209 
     16 S16        19.3931  -29.3357  -39.9344 S.3       10 UNK        -0.2568 
     17 C17        19.0829  -27.6082  -40.4197 C.3       10 UNK        -0.0983 
     18 CA         20.3770  -26.9065  -40.9045 C.3       3 UNK         0.0876 
     19 N          20.0854  -25.9662  -41.9854 N.am      3 UNK        -0.4424 
     20 C          20.9909  -25.3135  -42.7206 C.2       2 UNK         0.4918 
     21 O          22.2025  -25.3715  -42.5124 O.2       2 UNK        -0.4875 
     22 CA         20.4452  -24.5135  -43.9197 C.3       2 UNK         0.0481 
     23 CB         21.5674  -23.8810  -44.7632 C.3       2 UNK        -0.1831 
     24 N          19.6231  -25.3651  -44.7849 N.am      2 UNK        -0.4498 
     25 C          18.3545  -25.7292  -44.5567 C.2       1 UNK         0.5027 
     26 O          17.7048  -25.3063  -43.5978 O.2       1 UNK        -0.4969 
     27 C          21.1389  -26.2301  -39.7448 C.2       3 UNK         0.5005 
     28 O          20.8747  -25.0649  -39.4388 O.2       3 UNK        -0.5279 
     29 N          22.0802  -26.9720  -39.1477 N.am      4 UNK        -0.4463 
     30 CA         23.0421  -26.5884  -38.1044 C.3       4 UNK         0.0283 
     31 CB         22.3967  -25.8420  -36.9194 C.3       4 UNK        -0.1875 
     32 C          24.2749  -25.8486  -38.6523 C.2       4 UNK         0.4949 
     33 O          25.3527  -25.9989  -38.0758 O.2       4 UNK        -0.5039 
     34 N          24.1314  -25.1140  -39.7650 N.am      5 UNK        -0.4663 
     35 CA         25.2585  -24.6591  -40.5840 C.3       5 UNK         0.0242 
     36 CB         24.8656  -23.4114  -41.3934 C.3       5 UNK        -0.1982 
     37 C          25.7237  -25.8112  -41.4891 C.2       5 UNK         0.5017 
     38 O          26.8984  -26.1798  -41.4561 O.2       5 UNK        -0.5012 
     39 N          24.7723  -26.3944  -42.2287 N.am      6 UNK        -0.4439 
     40 CA         24.8962  -27.6835  -42.9029 C.3       6 UNK         0.0297 
     41 CB         23.9478  -27.7043  -44.1145 C.3       6 UNK        -0.2006 
     42 C          24.5452  -28.8236  -41.9312 C.2       6 UNK         0.4892 
     43 O          23.8916  -28.5950  -40.9082 O.2       6 UNK        -0.5089 
     44 N          24.9706  -30.0404  -42.2908 N.am      7 UNK        -0.4243 
     45 CA         24.6912  -31.2804  -41.5625 C.3       7 UNK         0.0196 
     46 CB         25.5285  -32.4123  -42.1839 C.3       7 UNK        -0.2007 
     47 C          23.1971  -31.6552  -41.5622 C.2       7 UNK         0.5020 
     48 O          22.4279  -31.1599  -42.3866 O.2       7 UNK        -0.5147 
     49 N          22.8273  -32.5713  -40.6579 N.am      8 UNK        -0.4734 
     50 CA         21.4607  -33.0790  -40.4773 C.3       8 UNK         0.0238 
     51 CB         21.3932  -33.8560  -39.1516 C.3       8 UNK        -0.1912 
     52 C          20.9270  -33.9460  -41.6383 C.2       8 UNK         0.5038 
     53 O          19.7251  -34.2104  -41.6621 O.2       8 UNK        -0.5046 
     54 N          21.8193  -34.3685  -42.5480 N.am      9 UNK        -0.4200 
     55 CA         21.5841  -35.2074  -43.7363 C.3       9 UNK         0.0839 
     56 C          20.8019  -36.5291  -43.4587 C.2       9 UNK         0.5513 
     57 N          20.0103  -37.0291  -44.3986 N.am      9 UNK        -0.7519 
     58 O          20.9703  -37.1519  -42.4118 O.2       9 UNK        -0.4960 
     59 C59        21.1543  -34.3915  -44.9968 C.3       10 UNK        -0.0876 
     60 S60        19.4765  -33.6683  -44.9406 S.3       10 UNK        -0.2414 
     61 C61        19.8370  -31.8863  -44.8557 C.3       10 UNK         0.0169 
     62 H62        19.7806  -25.3331  -49.2808 H         1 UNK         0.0903 
     63 H63        19.3067  -26.9732  -49.7315 H         1 UNK         0.0903 
     64 H64        18.0715  -25.7543  -49.4117 H         1 UNK         0.0903 
     65 H65        17.1194  -26.0076  -47.4058 H         1 UNK         0.3096 
     66 H66        18.2621  -27.6901  -45.3490 H         1 UNK         0.1121 
     67 H67        15.6318  -26.1318  -45.4584 H         1 UNK         0.0849 
     68 H68        16.0759  -27.2099  -44.1639 H         1 UNK         0.0849 
     69 H69        14.5425  -29.2553  -44.1677 H         1 UNK         0.0865 
     70 H70        14.8349  -30.5429  -45.3056 H         1 UNK         0.0865 
     71 H71        17.4981  -30.8955  -45.8711 H         1 UNK         0.1346 
     72 H72        19.7028  -31.2800  -42.2198 H         1 UNK         0.1412 
     73 H73        15.8662  -29.3721  -42.2061 H         1 UNK         0.1426 
     74 H74        17.8361  -31.1578  -40.0952 H         1 UNK         0.0716 
     75 H75        17.0097  -29.6216  -40.1406 H         1 UNK         0.0716 
     76 H76        18.6109  -27.0754  -39.5915 H         1 UNK         0.0695 
     77 H77        18.3404  -27.6196  -41.2195 H         1 UNK         0.0695 
     78 H78        21.0397  -27.6540  -41.3492 H         1 UNK         0.0983 
     79 H79        19.1092  -25.8259  -42.2187 H         1 UNK         0.3095 
     80 H80        19.8282  -23.7054  -43.5219 H         1 UNK         0.0454 
     81 H81        22.2305  -24.6376  -45.1848 H         1 UNK         0.0851 
     82 H82        22.1801  -23.2105  -44.1591 H         1 UNK         0.0851 
     83 H83        21.1620  -23.2934  -45.5868 H         1 UNK         0.0851 
     84 H84        20.0871  -25.8012  -45.5774 H         1 UNK         0.2976 
     85 H85        22.2710  -27.8822  -39.5543 H         1 UNK         0.3116 
     86 H86        23.4128  -27.5378  -37.7145 H         1 UNK         0.0646 
     87 H87        22.0934  -24.8296  -37.1866 H         1 UNK         0.0847 
     88 H88        23.1021  -25.7532  -36.0924 H         1 UNK         0.0847 
     89 H89        21.5207  -26.3705  -36.5437 H         1 UNK         0.0847 
     90 H90        23.2072  -25.0337  -40.1684 H         1 UNK         0.3040 
     91 H91        26.0922  -24.3847  -39.9333 H         1 UNK         0.1015 
     92 H92        24.0368  -23.6003  -42.0748 H         1 UNK         0.0786 
     93 H93        25.7054  -23.0611  -41.9949 H         1 UNK         0.0786 
     94 H94        24.5748  -22.5919  -40.7361 H         1 UNK         0.0786 
     95 H95        23.8293  -26.0093  -42.1972 H         1 UNK         0.3172 
     96 H96        25.9223  -27.8142  -43.2530 H         1 UNK         0.0595 
     97 H97        24.0798  -28.6139  -44.7016 H         1 UNK         0.0839 
     98 H98        24.1313  -26.8601  -44.7793 H         1 UNK         0.0839 
     99 H99        22.9012  -27.6682  -43.8092 H         1 UNK         0.0839 
    100 H100       25.4664  -30.1372  -43.1646 H         1 UNK         0.2998 
    101 H101       25.0044  -31.1351  -40.5263 H         1 UNK         0.0822 
    102 H102       25.4015  -33.3477  -41.6376 H         1 UNK         0.0787 
    103 H103       25.2464  -32.5993  -43.2211 H         1 UNK         0.0787 
    104 H104       26.5926  -32.1752  -42.1640 H         1 UNK         0.0787 
    105 H105       23.5273  -32.9385  -40.0284 H         1 UNK         0.3055 
    106 H106       20.7962  -32.2165  -40.3943 H         1 UNK         0.1106 
    107 H107       20.3801  -34.2114  -38.9576 H         1 UNK         0.0828 
    108 H108       22.0470  -34.7290  -39.1614 H         1 UNK         0.0828 
    109 H109       21.6786  -33.2286  -38.3070 H         1 UNK         0.0828 
    110 H110       22.7799  -34.1043  -42.3935 H         1 UNK         0.2931 
    111 H111       22.5835  -35.5747  -43.9728 H         1 UNK         0.0412 
    112 H112       19.8443  -36.5232  -45.2545 H         1 UNK         0.3472 
    113 H113       19.5289  -37.8978  -44.2256 H         1 UNK         0.3472 
    114 H114       21.2180  -35.0202  -45.8862 H         1 UNK         0.0970 
    115 H115       21.8816  -33.5978  -45.1727 H         1 UNK         0.0970 
    116 H116       20.7842  -31.7218  -44.3421 H         1 UNK         0.0612 
    117 H117       19.9589  -31.4912  -45.8652 H         1 UNK         0.0612 
@<TRIPOS>BOND
     1    1    2 1    
     2    1   62 1    
     3    1   63 1    
     4    1   64 1    
     5    2    3 2    
     6    2    4 am   BACKBONE|DICT|INTERRES
     7    4    5 1    
     8    4   65 1    
     9    5    6 1    
    10    5   25 1    
    11    5   66 1    
    12    6    7 1    
    13    6   67 1    
    14    6   68 1    
    15    7    8 1    
    16    8    9 1    
    17    8   69 1    
    18    8   70 1    
    19    9   10 ar   
    20    9   14 ar   
    21   10   11 ar   
    22   10   71 1    
    23   11   12 ar   
    24   11   61 1    
    25   12   13 ar   
    26   12   72 1    
    27   13   14 ar   
    28   13   15 1    
    29   14   73 1    
    30   15   16 1    
    31   15   74 1    
    32   15   75 1    
    33   16   17 1    
    34   17   18 1    
    35   17   76 1    
    36   17   77 1    
    37   18   19 1    
    38   18   27 1    
    39   18   78 1    
    40   19   20 am   BACKBONE|DICT|INTERRES
    41   19   79 1    
    42   20   21 2    
    43   20   22 1    
    44   22   23 1    
    45   22   24 1    
    46   22   80 1    
    47   23   81 1    
    48   23   82 1    
    49   23   83 1    
    50   24   25 am   BACKBONE|DICT|INTERRES
    51   24   84 1    
    52   25   26 2    
    53   27   28 2    
    54   27   29 am   BACKBONE|DICT|INTERRES
    55   29   30 1    
    56   29   85 1    
    57   30   31 1    
    58   30   32 1    
    59   30   86 1    
    60   31   87 1    
    61   31   88 1    
    62   31   89 1    
    63   32   33 2    
    64   32   34 am   BACKBONE|DICT|INTERRES
    65   34   35 1    
    66   34   90 1    
    67   35   36 1    
    68   35   37 1    
    69   35   91 1    
    70   36   92 1    
    71   36   93 1    
    72   36   94 1    
    73   37   38 2    
    74   37   39 am   BACKBONE|DICT|INTERRES
    75   39   40 1    
    76   39   95 1    
    77   40   41 1    
    78   40   42 1    
    79   40   96 1    
    80   41   97 1    
    81   41   98 1    
    82   41   99 1    
    83   42   43 2    
    84   42   44 am   BACKBONE|DICT|INTERRES
    85   44   45 1    
    86   44  100 1    
    87   45   46 1    
    88   45   47 1    
    89   45  101 1    
    90   46  102 1    
    91   46  103 1    
    92   46  104 1    
    93   47   48 2    
    94   47   49 am   BACKBONE|DICT|INTERRES
    95   49   50 1    
    96   49  105 1    
    97   50   51 1    
    98   50   52 1    
    99   50  106 1    
   100   51  107 1    
   101   51  108 1    
   102   51  109 1    
   103   52   53 2    
   104   52   54 am   BACKBONE|DICT|INTERRES
   105   54   55 1    
   106   54  110 1    
   107   55   56 1    
   108   55   59 1    
   109   55  111 1    
   110   56   57 am   BACKBONE|DICT|INTERRES
   111   56   58 2    
   112   57  112 1    
   113   57  113 1    
   114   59   60 1    
   115   59  114 1    
   116   59  115 1    
   117   60   61 1    
   118   61  116 1    
   119   61  117 1    
@<TRIPOS>SUBSTRUCTURE
     1 UNK         1 GROUP             0       ****    0 ROOT    
