@<TRIPOS>MOLECULE
3R8
117   119    1
SMALL
USER_CHARGES


@<TRIPOS>ATOM
      1 CA         18.0503  -31.8378  -45.7601 C.3       0 UNK        -0.2013 
      2 C          19.4382  -31.2218  -45.8034 C.2       0 UNK         0.4866 
      3 O          20.1935  -31.4834  -46.7406 O.2       0 UNK        -0.5176 
      4 N          19.7749  -30.3911  -44.8088 N.am      1 UNK        -0.4884 
      5 CA         20.9818  -29.5564  -44.8063 C.3       1 UNK         0.0853 
      6 C6         21.3091  -28.9920  -43.3930 C.3       10 UNK        -0.0849 
      7 S7         21.3473  -30.2355  -42.0609 S.3       10 UNK        -0.2776 
      8 C8         20.1878  -29.5310  -40.8455 C.3       10 UNK         0.0316 
      9 C9         18.7691  -29.6729  -41.3566 C.ar      10 UNK        -0.0863 
     10 C10        18.1348  -30.9119  -41.2988 C.ar      10 UNK        -0.1009 
     11 C11        16.8908  -31.1018  -41.8997 C.ar      10 UNK        -0.0712 
     12 C12        16.2654  -30.0193  -42.5354 C.ar      10 UNK        -0.0894 
     13 C13        16.8721  -28.7544  -42.5551 C.ar      10 UNK        -0.0745 
     14 C14        18.1161  -28.5903  -41.9440 C.ar      10 UNK        -0.0972 
     15 C15        16.1830  -27.5652  -43.2210 C.3       10 UNK         0.0209 
     16 S16        17.2481  -26.6926  -44.4294 S.3       10 UNK        -0.2568 
     17 C17        17.8859  -25.2471  -43.4993 C.3       10 UNK        -0.0983 
     18 CA         19.4371  -25.1747  -43.4077 C.3       3 UNK         0.0876 
     19 N          20.0802  -25.3148  -44.7275 N.am      3 UNK        -0.4424 
     20 C          21.3904  -25.4755  -44.9659 C.2       2 UNK         0.4918 
     21 O          22.2797  -25.2334  -44.1529 O.2       2 UNK        -0.4875 
     22 CA         21.7707  -26.1678  -46.2848 C.3       2 UNK         0.0481 
     23 CB         23.1056  -25.6513  -46.8496 C.3       2 UNK        -0.1831 
     24 N          21.8911  -27.5920  -45.9671 N.am      2 UNK        -0.4498 
     25 C          20.8205  -28.3793  -45.7975 C.2       1 UNK         0.5027 
     26 O          19.7221  -28.1235  -46.2985 O.2       1 UNK        -0.4969 
     27 C          19.8881  -23.9873  -42.5216 C.2       3 UNK         0.5005 
     28 O          19.4898  -23.9326  -41.3565 O.2       3 UNK        -0.5279 
     29 N          20.7235  -23.0796  -43.0448 N.am      4 UNK        -0.4463 
     30 CA         21.4671  -22.0892  -42.2590 C.3       4 UNK         0.0283 
     31 CB         22.0632  -21.0381  -43.2090 C.3       4 UNK        -0.1875 
     32 C          22.5787  -22.7200  -41.3908 C.2       4 UNK         0.4949 
     33 O          22.9650  -22.1221  -40.3860 O.2       4 UNK        -0.5039 
     34 N          23.0695  -23.9007  -41.7882 N.am      5 UNK        -0.4663 
     35 CA         24.0582  -24.7160  -41.0858 C.3       5 UNK         0.0242 
     36 CB         25.2745  -24.8986  -42.0112 C.3       5 UNK        -0.1982 
     37 C          23.4469  -26.0801  -40.7220 C.2       5 UNK         0.5017 
     38 O          22.3575  -26.4184  -41.1931 O.2       5 UNK        -0.5012 
     39 N          24.1699  -26.8442  -39.8941 N.am      6 UNK        -0.4439 
     40 CA         23.8028  -28.1940  -39.4697 C.3       6 UNK         0.0297 
     41 CB         23.8742  -28.2824  -37.9361 C.3       6 UNK        -0.2006 
     42 C          24.7524  -29.2139  -40.1121 C.2       6 UNK         0.4892 
     43 O          25.9713  -29.0383  -40.0514 O.2       6 UNK        -0.5089 
     44 N          24.1662  -30.2670  -40.6871 N.am      7 UNK        -0.4243 
     45 CA         24.8297  -31.3943  -41.3435 C.3       7 UNK         0.0196 
     46 CB         25.1327  -31.0370  -42.8126 C.3       7 UNK        -0.2007 
     47 C          23.9834  -32.6771  -41.2050 C.2       7 UNK         0.5020 
     48 O          24.0068  -33.5275  -42.0958 O.2       7 UNK        -0.5147 
     49 N          23.2302  -32.7853  -40.0971 N.am      8 UNK        -0.4734 
     50 CA         22.4140  -33.9363  -39.6727 C.3       8 UNK         0.0238 
     51 CB         23.3329  -35.1014  -39.2454 C.3       8 UNK        -0.1912 
     52 C          21.3290  -34.3874  -40.6771 C.2       8 UNK         0.5038 
     53 O          20.9854  -35.5707  -40.7059 O.2       8 UNK        -0.5046 
     54 N          20.8027  -33.4471  -41.4745 N.am      9 UNK        -0.4200 
     55 CA         19.8357  -33.6838  -42.5622 C.3       9 UNK         0.0839 
     56 C          20.4335  -34.4534  -43.7824 C.2       9 UNK         0.5513 
     57 N          21.7517  -34.5322  -43.9342 N.am      9 UNK        -0.7519 
     58 O          19.7001  -34.9725  -44.6189 O.2       9 UNK        -0.4960 
     59 C59        18.4804  -34.2642  -42.0432 C.3       10 UNK        -0.0876 
     60 S60        17.0151  -33.6786  -42.9723 S.3       10 UNK        -0.2414 
     61 C61        16.2316  -32.4750  -41.8444 C.3       10 UNK         0.0169 
     62 H62        17.4697  -31.4663  -44.9164 H         1 UNK         0.0903 
     63 H63        17.5058  -31.5982  -46.6728 H         1 UNK         0.0903 
     64 H64        18.1217  -32.9220  -45.6814 H         1 UNK         0.0903 
     65 H65        19.1174  -30.2018  -44.0643 H         1 UNK         0.3096 
     66 H66        21.8224  -30.1686  -45.1408 H         1 UNK         0.1121 
     67 H67        20.6009  -28.2094  -43.1242 H         1 UNK         0.0849 
     68 H68        22.2860  -28.5047  -43.3927 H         1 UNK         0.0849 
     69 H69        20.2928  -30.0565  -39.8951 H         1 UNK         0.0865 
     70 H70        20.4366  -28.4860  -40.6515 H         1 UNK         0.0865 
     71 H71        18.6316  -31.7381  -40.8132 H         1 UNK         0.1346 
     72 H72        15.3006  -30.1599  -43.0034 H         1 UNK         0.1412 
     73 H73        18.5900  -27.6228  -41.9510 H         1 UNK         0.1426 
     74 H74        15.2933  -27.9047  -43.7534 H         1 UNK         0.0716 
     75 H75        15.8278  -26.8754  -42.4549 H         1 UNK         0.0716 
     76 H76        17.5014  -24.3488  -43.9859 H         1 UNK         0.0695 
     77 H77        17.4492  -25.2532  -42.4992 H         1 UNK         0.0695 
     78 H78        19.7733  -26.0449  -42.8460 H         1 UNK         0.0983 
     79 H79        19.4427  -25.5840  -45.4651 H         1 UNK         0.3095 
     80 H80        20.9903  -25.9992  -47.0300 H         1 UNK         0.0454 
     81 H81        23.9331  -25.8021  -46.1549 H         1 UNK         0.0851 
     82 H82        23.3592  -26.1537  -47.7830 H         1 UNK         0.0851 
     83 H83        23.0495  -24.5829  -47.0612 H         1 UNK         0.0851 
     84 H84        22.7603  -27.8639  -45.5299 H         1 UNK         0.2976 
     85 H85        21.0194  -23.2165  -44.0009 H         1 UNK         0.3116 
     86 H86        20.7675  -21.5864  -41.5879 H         1 UNK         0.0646 
     87 H87        22.7701  -21.4825  -43.9110 H         1 UNK         0.0847 
     88 H88        21.2859  -20.5358  -43.7852 H         1 UNK         0.0847 
     89 H89        22.5991  -20.2687  -42.6513 H         1 UNK         0.0847 
     90 H90        22.6596  -24.3533  -42.6041 H         1 UNK         0.3040 
     91 H91        24.3733  -24.2257  -40.1621 H         1 UNK         0.1015 
     92 H92        25.0027  -25.4174  -42.9320 H         1 UNK         0.0786 
     93 H93        26.0613  -25.4792  -41.5281 H         1 UNK         0.0786 
     94 H94        25.7077  -23.9370  -42.2869 H         1 UNK         0.0786 
     95 H95        25.0875  -26.5298  -39.6098 H         1 UNK         0.3172 
     96 H96        22.7786  -28.4235  -39.7689 H         1 UNK         0.0595 
     97 H97        23.5976  -29.2786  -37.5885 H         1 UNK         0.0839 
     98 H98        23.1899  -27.5750  -37.4674 H         1 UNK         0.0839 
     99 H99        24.8780  -28.0741  -37.5631 H         1 UNK         0.0839 
    100 H100       23.1550  -30.2758  -40.7523 H         1 UNK         0.2998 
    101 H101       25.7746  -31.5934  -40.8335 H         1 UNK         0.0822 
    102 H102       25.6746  -31.8421  -43.3102 H         1 UNK         0.0787 
    103 H103       24.2166  -30.8598  -43.3773 H         1 UNK         0.0787 
    104 H104       25.7499  -30.1414  -42.8852 H         1 UNK         0.0787 
    105 H105       23.2867  -32.0309  -39.4269 H         1 UNK         0.3055 
    106 H106       21.8675  -33.6112  -38.7858 H         1 UNK         0.1106 
    107 H107       24.0678  -34.7786  -38.5081 H         1 UNK         0.0828 
    108 H108       22.7603  -35.9115  -38.7921 H         1 UNK         0.0828 
    109 H109       23.8724  -35.5204  -40.0956 H         1 UNK         0.0828 
    110 H110       21.1676  -32.5059  -41.4170 H         1 UNK         0.2931 
    111 H111       19.6339  -32.6867  -42.9523 H         1 UNK         0.0412 
    112 H112       22.3851  -34.1268  -43.2543 H         1 UNK         0.3472 
    113 H113       22.1236  -35.0247  -44.7304 H         1 UNK         0.3472 
    114 H114       18.4969  -35.3552  -42.0730 H         1 UNK         0.0970 
    115 H115       18.3345  -34.0183  -40.9913 H         1 UNK         0.0970 
    116 H116       16.2487  -32.8566  -40.8226 H         1 UNK         0.0612 
    117 H117       15.1783  -32.3909  -42.1158 H         1 UNK         0.0612 
@<TRIPOS>BOND
     1    1    2 1    
     2    1   62 1    
     3    1   63 1    
     4    1   64 1    
     5    2    3 2    
     6    2    4 am   BACKBONE|DICT|INTERRES
     7    4    5 1    
     8    4   65 1    
     9    5    6 1    
    10    5   25 1    
    11    5   66 1    
    12    6    7 1    
    13    6   67 1    
    14    6   68 1    
    15    7    8 1    
    16    8    9 1    
    17    8   69 1    
    18    8   70 1    
    19    9   10 ar   
    20    9   14 ar   
    21   10   11 ar   
    22   10   71 1    
    23   11   12 ar   
    24   11   61 1    
    25   12   13 ar   
    26   12   72 1    
    27   13   14 ar   
    28   13   15 1    
    29   14   73 1    
    30   15   16 1    
    31   15   74 1    
    32   15   75 1    
    33   16   17 1    
    34   17   18 1    
    35   17   76 1    
    36   17   77 1    
    37   18   19 1    
    38   18   27 1    
    39   18   78 1    
    40   19   20 am   BACKBONE|DICT|INTERRES
    41   19   79 1    
    42   20   21 2    
    43   20   22 1    
    44   22   23 1    
    45   22   24 1    
    46   22   80 1    
    47   23   81 1    
    48   23   82 1    
    49   23   83 1    
    50   24   25 am   BACKBONE|DICT|INTERRES
    51   24   84 1    
    52   25   26 2    
    53   27   28 2    
    54   27   29 am   BACKBONE|DICT|INTERRES
    55   29   30 1    
    56   29   85 1    
    57   30   31 1    
    58   30   32 1    
    59   30   86 1    
    60   31   87 1    
    61   31   88 1    
    62   31   89 1    
    63   32   33 2    
    64   32   34 am   BACKBONE|DICT|INTERRES
    65   34   35 1    
    66   34   90 1    
    67   35   36 1    
    68   35   37 1    
    69   35   91 1    
    70   36   92 1    
    71   36   93 1    
    72   36   94 1    
    73   37   38 2    
    74   37   39 am   BACKBONE|DICT|INTERRES
    75   39   40 1    
    76   39   95 1    
    77   40   41 1    
    78   40   42 1    
    79   40   96 1    
    80   41   97 1    
    81   41   98 1    
    82   41   99 1    
    83   42   43 2    
    84   42   44 am   BACKBONE|DICT|INTERRES
    85   44   45 1    
    86   44  100 1    
    87   45   46 1    
    88   45   47 1    
    89   45  101 1    
    90   46  102 1    
    91   46  103 1    
    92   46  104 1    
    93   47   48 2    
    94   47   49 am   BACKBONE|DICT|INTERRES
    95   49   50 1    
    96   49  105 1    
    97   50   51 1    
    98   50   52 1    
    99   50  106 1    
   100   51  107 1    
   101   51  108 1    
   102   51  109 1    
   103   52   53 2    
   104   52   54 am   BACKBONE|DICT|INTERRES
   105   54   55 1    
   106   54  110 1    
   107   55   56 1    
   108   55   59 1    
   109   55  111 1    
   110   56   57 am   BACKBONE|DICT|INTERRES
   111   56   58 2    
   112   57  112 1    
   113   57  113 1    
   114   59   60 1    
   115   59  114 1    
   116   59  115 1    
   117   60   61 1    
   118   61  116 1    
   119   61  117 1    
@<TRIPOS>SUBSTRUCTURE
     1 UNK         1 GROUP             0       ****    0 ROOT    
