@<TRIPOS>MOLECULE
3R8
117   119    1
SMALL
USER_CHARGES


@<TRIPOS>ATOM
      1 CA         21.7251  -31.3006  -47.3019 C.3       0 UNK        -0.2013 
      2 C          20.8374  -30.3655  -46.4960 C.2       0 UNK         0.4866 
      3 O          21.0215  -30.2356  -45.2851 O.2       0 UNK        -0.5176 
      4 N          19.8915  -29.6936  -47.1644 N.am      1 UNK        -0.4884 
      5 CA         18.8729  -28.8019  -46.5879 C.3       1 UNK         0.0853 
      6 C6         17.6463  -28.6559  -47.5271 C.3       10 UNK        -0.0849 
      7 S7         16.8205  -30.2486  -47.8516 S.3       10 UNK        -0.2776 
      8 C8         15.2808  -30.0597  -46.8934 C.3       10 UNK         0.0316 
      9 C9         15.5237  -30.0430  -45.3889 C.ar      10 UNK        -0.0863 
     10 C10        15.9986  -31.1918  -44.7493 C.ar      10 UNK        -0.1009 
     11 C11        16.1815  -31.2094  -43.3649 C.ar      10 UNK        -0.0712 
     12 C12        15.8597  -30.0738  -42.6152 C.ar      10 UNK        -0.0894 
     13 C13        15.3961  -28.9118  -43.2393 C.ar      10 UNK        -0.0745 
     14 C14        15.2365  -28.9010  -44.6303 C.ar      10 UNK        -0.0972 
     15 C15        14.9979  -27.6996  -42.4014 C.3       10 UNK         0.0209 
     16 S16        16.3149  -27.1236  -41.2737 S.3       10 UNK        -0.2568 
     17 C17        17.3323  -26.0794  -42.3675 C.3       10 UNK        -0.0983 
     18 CA         18.8509  -26.3248  -42.1777 C.3       3 UNK         0.0876 
     19 N          19.5775  -26.0297  -43.4131 N.am      3 UNK        -0.4424 
     20 C          20.8982  -26.0944  -43.6247 C.2       2 UNK         0.4918 
     21 O          21.7461  -26.1859  -42.7376 O.2       2 UNK        -0.4875 
     22 CA         21.3217  -26.1832  -45.1044 C.3       2 UNK         0.0481 
     23 CB         22.8484  -26.2875  -45.2776 C.3       2 UNK        -0.1831 
     24 N          20.6924  -27.3511  -45.7325 N.am      2 UNK        -0.4498 
     25 C          19.4234  -27.4204  -46.1567 C.2       1 UNK         0.5027 
     26 O          18.6802  -26.4362  -46.1648 O.2       1 UNK        -0.4969 
     27 C          19.4160  -25.6000  -40.9359 C.2       3 UNK         0.5005 
     28 O          19.6030  -24.3811  -40.9766 O.2       3 UNK        -0.5279 
     29 N          19.6605  -26.3800  -39.8726 N.am      4 UNK        -0.4463 
     30 CA         20.3197  -26.0260  -38.6131 C.3       4 UNK         0.0283 
     31 CB         19.6268  -24.8450  -37.8983 C.3       4 UNK        -0.1875 
     32 C          21.8348  -25.8350  -38.8067 C.2       4 UNK         0.4949 
     33 O          22.3743  -24.7776  -38.4752 O.2       4 UNK        -0.5039 
     34 N          22.4969  -26.8782  -39.3230 N.am      5 UNK        -0.4663 
     35 CA         23.9518  -26.9710  -39.4539 C.3       5 UNK         0.0242 
     36 CB         24.3841  -26.5261  -40.8623 C.3       5 UNK        -0.1982 
     37 C          24.3969  -28.4121  -39.1735 C.2       5 UNK         0.5017 
     38 O          23.5842  -29.3339  -39.2582 O.2       5 UNK        -0.5012 
     39 N          25.6865  -28.5835  -38.8578 N.am      6 UNK        -0.4439 
     40 CA         26.2980  -29.8813  -38.5478 C.3       6 UNK         0.0297 
     41 CB         27.5198  -29.6491  -37.6422 C.3       6 UNK        -0.2006 
     42 C          26.7041  -30.6939  -39.7931 C.2       6 UNK         0.4892 
     43 O          27.0018  -31.8811  -39.6567 O.2       6 UNK        -0.5089 
     44 N          26.7460  -30.0498  -40.9690 N.am      7 UNK        -0.4243 
     45 CA         27.1991  -30.6392  -42.2345 C.3       7 UNK         0.0196 
     46 CB         27.4065  -29.5149  -43.2629 C.3       7 UNK        -0.2007 
     47 C          26.2564  -31.7141  -42.8055 C.2       7 UNK         0.5020 
     48 O          26.7226  -32.6164  -43.5017 O.2       7 UNK        -0.5147 
     49 N          24.9584  -31.5937  -42.5131 N.am      8 UNK        -0.4734 
     50 CA         23.8878  -32.4903  -42.9432 C.3       8 UNK         0.0238 
     51 CB         23.5988  -32.3109  -44.4497 C.3       8 UNK        -0.1912 
     52 C          22.6952  -32.2102  -42.0209 C.2       8 UNK         0.5038 
     53 O          22.8382  -32.3959  -40.8112 O.2       8 UNK        -0.5046 
     54 N          21.5753  -31.7211  -42.5700 N.am      9 UNK        -0.4200 
     55 CA         20.5253  -31.0628  -41.7771 C.3       9 UNK         0.0839 
     56 C          20.9151  -29.6139  -41.3768 C.2       9 UNK         0.5513 
     57 N          21.8036  -28.9594  -42.1139 N.am      9 UNK        -0.7519 
     58 O          20.3750  -29.0683  -40.4181 O.2       9 UNK        -0.4960 
     59 C59        19.1621  -31.0260  -42.5053 C.3       10 UNK        -0.0876 
     60 S60        18.5215  -32.6630  -42.9902 S.3       10 UNK        -0.2414 
     61 C61        16.7371  -32.4508  -42.6783 C.3       10 UNK         0.0169 
     62 H62        21.4837  -31.2772  -48.3644 H         1 UNK         0.0903 
     63 H63        22.7712  -31.0189  -47.1868 H         1 UNK         0.0903 
     64 H64        21.6044  -32.3248  -46.9510 H         1 UNK         0.0903 
     65 H65        19.8084  -29.8373  -48.1610 H         1 UNK         0.3096 
     66 H66        18.5183  -29.2676  -45.6650 H         1 UNK         0.1121 
     67 H67        16.9085  -27.9691  -47.1079 H         1 UNK         0.0849 
     68 H68        17.9477  -28.2221  -48.4822 H         1 UNK         0.0849 
     69 H69        14.7596  -29.1576  -47.2179 H         1 UNK         0.0865 
     70 H70        14.6171  -30.8920  -47.1325 H         1 UNK         0.0865 
     71 H71        16.2343  -32.0724  -45.3316 H         1 UNK         0.1346 
     72 H72        15.9769  -30.0889  -41.5401 H         1 UNK         0.1412 
     73 H73        14.8588  -28.0132  -45.1191 H         1 UNK         0.1426 
     74 H74        14.1302  -27.9741  -41.8001 H         1 UNK         0.0716 
     75 H75        14.6760  -26.8707  -43.0339 H         1 UNK         0.0716 
     76 H76        17.0733  -25.0302  -42.2118 H         1 UNK         0.0695 
     77 H77        17.0456  -26.3052  -43.3963 H         1 UNK         0.0695 
     78 H78        18.9945  -27.3970  -42.0355 H         1 UNK         0.0983 
     79 H79        19.0035  -25.9450  -44.2444 H         1 UNK         0.3095 
     80 H80        20.9854  -25.2733  -45.6055 H         1 UNK         0.0454 
     81 H81        23.2499  -27.1817  -44.7989 H         1 UNK         0.0851 
     82 H82        23.3508  -25.4271  -44.8338 H         1 UNK         0.0851 
     83 H83        23.1269  -26.3172  -46.3309 H         1 UNK         0.0851 
     84 H84        21.1943  -28.2297  -45.6666 H         1 UNK         0.2976 
     85 H85        19.5459  -27.3823  -40.0041 H         1 UNK         0.3116 
     86 H86        20.2060  -26.8976  -37.9665 H         1 UNK         0.0646 
     87 H87        19.7575  -23.9045  -38.4337 H         1 UNK         0.0847 
     88 H88        20.0413  -24.7031  -36.8996 H         1 UNK         0.0847 
     89 H89        18.5574  -25.0215  -37.7838 H         1 UNK         0.0847 
     90 H90        21.9964  -27.7360  -39.5359 H         1 UNK         0.3040 
     91 H91        24.4236  -26.3241  -38.7105 H         1 UNK         0.1015 
     92 H92        24.0048  -25.5312  -41.0974 H         1 UNK         0.0786 
     93 H93        24.0233  -27.2089  -41.6316 H         1 UNK         0.0786 
     94 H94        25.4703  -26.4851  -40.9475 H         1 UNK         0.0786 
     95 H95        26.2907  -27.7747  -38.8084 H         1 UNK         0.3172 
     96 H96        25.5782  -30.4848  -37.9902 H         1 UNK         0.0595 
     97 H97        28.2866  -29.0544  -38.1402 H         1 UNK         0.0839 
     98 H98        27.9793  -30.5961  -37.3549 H         1 UNK         0.0839 
     99 H99        27.2407  -29.1367  -36.7213 H         1 UNK         0.0839 
    100 H100       26.4891  -29.0743  -40.9860 H         1 UNK         0.2998 
    101 H101       28.1640  -31.1180  -42.0532 H         1 UNK         0.0822 
    102 H102       28.1441  -28.7903  -42.9172 H         1 UNK         0.0787 
    103 H103       27.7688  -29.9153  -44.2110 H         1 UNK         0.0787 
    104 H104       26.4786  -28.9796  -43.4692 H         1 UNK         0.0787 
    105 H105       24.6776  -30.8637  -41.8710 H         1 UNK         0.3055 
    106 H106       24.1943  -33.5229  -42.7630 H         1 UNK         0.1106 
    107 H107       22.7419  -32.9075  -44.7647 H         1 UNK         0.0828 
    108 H108       23.4020  -31.2687  -44.7005 H         1 UNK         0.0828 
    109 H109       24.4449  -32.6358  -45.0550 H         1 UNK         0.0828 
    110 H110       21.5243  -31.5740  -43.5704 H         1 UNK         0.2931 
    111 H111       20.3846  -31.6238  -40.8510 H         1 UNK         0.0412 
    112 H112       22.1926  -29.3971  -42.9323 H         1 UNK         0.3472 
    113 H113       21.9931  -27.9810  -41.9338 H         1 UNK         0.3472 
    114 H114       18.4327  -30.5490  -41.8496 H         1 UNK         0.0970 
    115 H115       19.2119  -30.4046  -43.4008 H         1 UNK         0.0970 
    116 H116       16.5683  -32.4048  -41.6012 H         1 UNK         0.0612 
    117 H117       16.2064  -33.3345  -43.0352 H         1 UNK         0.0612 
@<TRIPOS>BOND
     1    1    2 1    
     2    1   62 1    
     3    1   63 1    
     4    1   64 1    
     5    2    3 2    
     6    2    4 am   BACKBONE|DICT|INTERRES
     7    4    5 1    
     8    4   65 1    
     9    5    6 1    
    10    5   25 1    
    11    5   66 1    
    12    6    7 1    
    13    6   67 1    
    14    6   68 1    
    15    7    8 1    
    16    8    9 1    
    17    8   69 1    
    18    8   70 1    
    19    9   10 ar   
    20    9   14 ar   
    21   10   11 ar   
    22   10   71 1    
    23   11   12 ar   
    24   11   61 1    
    25   12   13 ar   
    26   12   72 1    
    27   13   14 ar   
    28   13   15 1    
    29   14   73 1    
    30   15   16 1    
    31   15   74 1    
    32   15   75 1    
    33   16   17 1    
    34   17   18 1    
    35   17   76 1    
    36   17   77 1    
    37   18   19 1    
    38   18   27 1    
    39   18   78 1    
    40   19   20 am   BACKBONE|DICT|INTERRES
    41   19   79 1    
    42   20   21 2    
    43   20   22 1    
    44   22   23 1    
    45   22   24 1    
    46   22   80 1    
    47   23   81 1    
    48   23   82 1    
    49   23   83 1    
    50   24   25 am   BACKBONE|DICT|INTERRES
    51   24   84 1    
    52   25   26 2    
    53   27   28 2    
    54   27   29 am   BACKBONE|DICT|INTERRES
    55   29   30 1    
    56   29   85 1    
    57   30   31 1    
    58   30   32 1    
    59   30   86 1    
    60   31   87 1    
    61   31   88 1    
    62   31   89 1    
    63   32   33 2    
    64   32   34 am   BACKBONE|DICT|INTERRES
    65   34   35 1    
    66   34   90 1    
    67   35   36 1    
    68   35   37 1    
    69   35   91 1    
    70   36   92 1    
    71   36   93 1    
    72   36   94 1    
    73   37   38 2    
    74   37   39 am   BACKBONE|DICT|INTERRES
    75   39   40 1    
    76   39   95 1    
    77   40   41 1    
    78   40   42 1    
    79   40   96 1    
    80   41   97 1    
    81   41   98 1    
    82   41   99 1    
    83   42   43 2    
    84   42   44 am   BACKBONE|DICT|INTERRES
    85   44   45 1    
    86   44  100 1    
    87   45   46 1    
    88   45   47 1    
    89   45  101 1    
    90   46  102 1    
    91   46  103 1    
    92   46  104 1    
    93   47   48 2    
    94   47   49 am   BACKBONE|DICT|INTERRES
    95   49   50 1    
    96   49  105 1    
    97   50   51 1    
    98   50   52 1    
    99   50  106 1    
   100   51  107 1    
   101   51  108 1    
   102   51  109 1    
   103   52   53 2    
   104   52   54 am   BACKBONE|DICT|INTERRES
   105   54   55 1    
   106   54  110 1    
   107   55   56 1    
   108   55   59 1    
   109   55  111 1    
   110   56   57 am   BACKBONE|DICT|INTERRES
   111   56   58 2    
   112   57  112 1    
   113   57  113 1    
   114   59   60 1    
   115   59  114 1    
   116   59  115 1    
   117   60   61 1    
   118   61  116 1    
   119   61  117 1    
@<TRIPOS>SUBSTRUCTURE
     1 UNK         1 GROUP             0       ****    0 ROOT    
