@<TRIPOS>MOLECULE
3R8
117   119    1
SMALL
USER_CHARGES


@<TRIPOS>ATOM
      1 CA         20.1091  -29.4434  -42.3609 C.3       0 UNK        -0.2013 
      2 C          18.8009  -28.6886  -42.2054 C.2       0 UNK         0.4866 
      3 O          18.5755  -28.0845  -41.1583 O.2       0 UNK        -0.5176 
      4 N          17.9458  -28.7037  -43.2383 N.am      1 UNK        -0.4884 
      5 CA         16.6336  -28.0347  -43.2535 C.3       1 UNK         0.0853 
      6 C6         15.8084  -28.3887  -44.5137 C.3       10 UNK        -0.0849 
      7 S7         15.5260  -30.1828  -44.6846 S.3       10 UNK        -0.2776 
      8 C8         16.3141  -30.5362  -46.2883 C.3       10 UNK         0.0316 
      9 C9         17.8326  -30.5932  -46.1895 C.ar      10 UNK        -0.0863 
     10 C10        18.4497  -31.7201  -45.6399 C.ar      10 UNK        -0.1009 
     11 C11        19.8431  -31.8208  -45.5984 C.ar      10 UNK        -0.0712 
     12 C12        20.6235  -30.7765  -46.1051 C.ar      10 UNK        -0.0894 
     13 C13        20.0192  -29.6486  -46.6714 C.ar      10 UNK        -0.0745 
     14 C14        18.6227  -29.5596  -46.7032 C.ar      10 UNK        -0.0972 
     15 C15        20.8713  -28.5708  -47.3316 C.3       10 UNK         0.0209 
     16 S16        20.6987  -26.9414  -46.5419 S.3       10 UNK        -0.2568 
     17 C17        21.7455  -27.1460  -45.0654 C.3       10 UNK        -0.0983 
     18 CA         21.7620  -25.8759  -44.1707 C.3       3 UNK         0.0876 
     19 N          20.4265  -25.5462  -43.6834 N.am      3 UNK        -0.4424 
     20 C          19.6910  -24.4982  -44.0747 C.2       2 UNK         0.4918 
     21 O          20.1248  -23.5687  -44.7566 O.2       2 UNK        -0.4875 
     22 CA         18.2032  -24.5490  -43.6874 C.3       2 UNK         0.0481 
     23 CB         17.3198  -23.6214  -44.5448 C.3       2 UNK        -0.1831 
     24 N          17.7471  -25.9339  -43.7995 N.am      2 UNK        -0.4498 
     25 C          16.7541  -26.5031  -43.1088 C.2       1 UNK         0.5027 
     26 O          15.9857  -25.8894  -42.3670 O.2       1 UNK        -0.4969 
     27 C          22.6609  -26.0503  -42.9409 C.2       3 UNK         0.5005 
     28 O          22.8977  -27.1810  -42.5117 O.2       3 UNK        -0.5279 
     29 N          23.1313  -24.9315  -42.3722 N.am      4 UNK        -0.4463 
     30 CA         23.9494  -24.8817  -41.1507 C.3       4 UNK         0.0283 
     31 CB         24.2103  -23.4141  -40.7755 C.3       4 UNK        -0.1875 
     32 C          25.2784  -25.6602  -41.2238 C.2       4 UNK         0.4949 
     33 O          25.8010  -26.0540  -40.1818 O.2       4 UNK        -0.5039 
     34 N          25.7894  -25.8858  -42.4425 N.am      5 UNK        -0.4663 
     35 CA         26.9559  -26.7297  -42.7140 C.3       5 UNK         0.0242 
     36 CB         27.4782  -26.4205  -44.1267 C.3       5 UNK        -0.1982 
     37 C          26.6682  -28.2372  -42.5660 C.2       5 UNK         0.5017 
     38 O          27.6105  -29.0024  -42.3521 O.2       5 UNK        -0.5012 
     39 N          25.3942  -28.6371  -42.6910 N.am      6 UNK        -0.4439 
     40 CA         24.9258  -30.0094  -42.5014 C.3       6 UNK         0.0297 
     41 CB         23.8779  -30.3591  -43.5738 C.3       6 UNK        -0.2006 
     42 C          24.3558  -30.1743  -41.0866 C.2       6 UNK         0.4892 
     43 O          24.8227  -31.0429  -40.3495 O.2       6 UNK        -0.5089 
     44 N          23.3764  -29.3237  -40.7383 N.am      7 UNK        -0.4243 
     45 CA         22.6730  -29.1568  -39.4554 C.3       7 UNK         0.0196 
     46 CB         23.6371  -28.6227  -38.3801 C.3       7 UNK        -0.2007 
     47 C          21.8967  -30.3782  -38.9199 C.2       7 UNK         0.5020 
     48 O          20.7882  -30.2107  -38.4124 O.2       7 UNK        -0.5147 
     49 N          22.4828  -31.5755  -39.0140 N.am      8 UNK        -0.4734 
     50 CA         21.9968  -32.8245  -38.4183 C.3       8 UNK         0.0238 
     51 CB         23.1410  -33.8523  -38.4400 C.3       8 UNK        -0.1912 
     52 C          20.7351  -33.4157  -39.0725 C.2       8 UNK         0.5038 
     53 O          20.1326  -34.3163  -38.4862 O.2       8 UNK        -0.5046 
     54 N          20.3705  -32.9327  -40.2669 N.am      9 UNK        -0.4200 
     55 CA         19.2302  -33.4207  -41.0626 C.3       9 UNK         0.0839 
     56 C          17.8290  -33.1533  -40.4383 C.2       9 UNK         0.5513 
     57 N          17.6933  -32.2480  -39.4762 N.am      9 UNK        -0.7519 
     58 O          16.8509  -33.7790  -40.8386 O.2       9 UNK        -0.4960 
     59 C59        19.2625  -32.9163  -42.5309 C.3       10 UNK        -0.0876 
     60 S60        20.9198  -32.9554  -43.2992 S.3       10 UNK        -0.2414 
     61 C61        20.5021  -33.0850  -45.0630 C.3       10 UNK         0.0169 
     62 H62        20.9433  -28.7603  -42.2322 H         1 UNK         0.0903 
     63 H63        20.1908  -30.2116  -41.5942 H         1 UNK         0.0903 
     64 H64        20.2000  -29.9138  -43.3389 H         1 UNK         0.0903 
     65 H65        18.1646  -29.2453  -44.0648 H         1 UNK         0.3096 
     66 H66        16.0831  -28.3901  -42.3792 H         1 UNK         0.1121 
     67 H67        16.2930  -28.0030  -45.4124 H         1 UNK         0.0849 
     68 H68        14.8290  -27.9076  -44.4717 H         1 UNK         0.0849 
     69 H69        15.9463  -31.4974  -46.6507 H         1 UNK         0.0865 
     70 H70        15.9959  -29.7995  -47.0278 H         1 UNK         0.0865 
     71 H71        17.8401  -32.5311  -45.2655 H         1 UNK         0.1346 
     72 H72        21.7016  -30.8613  -46.0903 H         1 UNK         0.1412 
     73 H73        18.1553  -28.6975  -47.1598 H         1 UNK         0.1426 
     74 H74        20.5685  -28.4816  -48.3757 H         1 UNK         0.0716 
     75 H75        21.9249  -28.8545  -47.3459 H         1 UNK         0.0716 
     76 H76        22.7569  -27.3932  -45.3937 H         1 UNK         0.0695 
     77 H77        21.3795  -28.0124  -44.5143 H         1 UNK         0.0695 
     78 H78        22.1715  -25.0535  -44.7618 H         1 UNK         0.0983 
     79 H79        20.0176  -26.2101  -43.0421 H         1 UNK         0.3095 
     80 H80        18.1360  -24.2339  -42.6442 H         1 UNK         0.0454 
     81 H81        17.6358  -22.5818  -44.4506 H         1 UNK         0.0851 
     82 H82        16.2754  -23.6686  -44.2369 H         1 UNK         0.0851 
     83 H83        17.3702  -23.8853  -45.6017 H         1 UNK         0.0851 
     84 H84        18.3083  -26.5255  -44.3983 H         1 UNK         0.2976 
     85 H85        22.8731  -24.0419  -42.7767 H         1 UNK         0.3116 
     86 H86        23.3610  -25.3374  -40.3512 H         1 UNK         0.0646 
     87 H87        24.7912  -23.3434  -39.8546 H         1 UNK         0.0847 
     88 H88        24.7692  -22.8916  -41.5529 H         1 UNK         0.0847 
     89 H89        23.2786  -22.8734  -40.6082 H         1 UNK         0.0847 
     90 H90        25.3078  -25.4991  -43.2410 H         1 UNK         0.3040 
     91 H91        27.7390  -26.4765  -41.9953 H         1 UNK         0.1015 
     92 H92        28.3680  -27.0107  -44.3514 H         1 UNK         0.0786 
     93 H93        27.7551  -25.3707  -44.2273 H         1 UNK         0.0786 
     94 H94        26.7350  -26.6485  -44.8920 H         1 UNK         0.0786 
     95 H95        24.6730  -27.9297  -42.7950 H         1 UNK         0.3172 
     96 H96        25.7569  -30.7089  -42.6136 H         1 UNK         0.0595 
     97 H97        23.0035  -29.7104  -43.5302 H         1 UNK         0.0839 
     98 H98        23.5284  -31.3848  -43.4524 H         1 UNK         0.0839 
     99 H99        24.2988  -30.2795  -44.5761 H         1 UNK         0.0839 
    100 H100       23.1111  -28.6346  -41.4400 H         1 UNK         0.2998 
    101 H101       21.9275  -28.3806  -39.6381 H         1 UNK         0.0822 
    102 H102       23.1114  -28.4267  -37.4446 H         1 UNK         0.0787 
    103 H103       24.4359  -29.3327  -38.1626 H         1 UNK         0.0787 
    104 H104       24.0987  -27.6865  -38.6940 H         1 UNK         0.0787 
    105 H105       23.4030  -31.5976  -39.4534 H         1 UNK         0.3055 
    106 H106       21.7415  -32.6185  -37.3764 H         1 UNK         0.1106 
    107 H107       24.0128  -33.4875  -37.8965 H         1 UNK         0.0828 
    108 H108       22.8383  -34.7895  -37.9704 H         1 UNK         0.0828 
    109 H109       23.4539  -34.0835  -39.4592 H         1 UNK         0.0828 
    110 H110       20.9405  -32.2156  -40.6879 H         1 UNK         0.2931 
    111 H111       19.3382  -34.5066  -41.1016 H         1 UNK         0.0412 
    112 H112       18.4937  -31.7328  -39.1415 H         1 UNK         0.3472 
    113 H113       16.7828  -32.0834  -39.0763 H         1 UNK         0.3472 
    114 H114       18.5878  -33.5297  -43.1307 H         1 UNK         0.0970 
    115 H115       18.8734  -31.9009  -42.6044 H         1 UNK         0.0970 
    116 H116       21.4172  -33.2858  -45.6221 H         1 UNK         0.0612 
    117 H117       19.8564  -33.9502  -45.2218 H         1 UNK         0.0612 
@<TRIPOS>BOND
     1    1    2 1    
     2    1   62 1    
     3    1   63 1    
     4    1   64 1    
     5    2    3 2    
     6    2    4 am   BACKBONE|DICT|INTERRES
     7    4    5 1    
     8    4   65 1    
     9    5    6 1    
    10    5   25 1    
    11    5   66 1    
    12    6    7 1    
    13    6   67 1    
    14    6   68 1    
    15    7    8 1    
    16    8    9 1    
    17    8   69 1    
    18    8   70 1    
    19    9   10 ar   
    20    9   14 ar   
    21   10   11 ar   
    22   10   71 1    
    23   11   12 ar   
    24   11   61 1    
    25   12   13 ar   
    26   12   72 1    
    27   13   14 ar   
    28   13   15 1    
    29   14   73 1    
    30   15   16 1    
    31   15   74 1    
    32   15   75 1    
    33   16   17 1    
    34   17   18 1    
    35   17   76 1    
    36   17   77 1    
    37   18   19 1    
    38   18   27 1    
    39   18   78 1    
    40   19   20 am   BACKBONE|DICT|INTERRES
    41   19   79 1    
    42   20   21 2    
    43   20   22 1    
    44   22   23 1    
    45   22   24 1    
    46   22   80 1    
    47   23   81 1    
    48   23   82 1    
    49   23   83 1    
    50   24   25 am   BACKBONE|DICT|INTERRES
    51   24   84 1    
    52   25   26 2    
    53   27   28 2    
    54   27   29 am   BACKBONE|DICT|INTERRES
    55   29   30 1    
    56   29   85 1    
    57   30   31 1    
    58   30   32 1    
    59   30   86 1    
    60   31   87 1    
    61   31   88 1    
    62   31   89 1    
    63   32   33 2    
    64   32   34 am   BACKBONE|DICT|INTERRES
    65   34   35 1    
    66   34   90 1    
    67   35   36 1    
    68   35   37 1    
    69   35   91 1    
    70   36   92 1    
    71   36   93 1    
    72   36   94 1    
    73   37   38 2    
    74   37   39 am   BACKBONE|DICT|INTERRES
    75   39   40 1    
    76   39   95 1    
    77   40   41 1    
    78   40   42 1    
    79   40   96 1    
    80   41   97 1    
    81   41   98 1    
    82   41   99 1    
    83   42   43 2    
    84   42   44 am   BACKBONE|DICT|INTERRES
    85   44   45 1    
    86   44  100 1    
    87   45   46 1    
    88   45   47 1    
    89   45  101 1    
    90   46  102 1    
    91   46  103 1    
    92   46  104 1    
    93   47   48 2    
    94   47   49 am   BACKBONE|DICT|INTERRES
    95   49   50 1    
    96   49  105 1    
    97   50   51 1    
    98   50   52 1    
    99   50  106 1    
   100   51  107 1    
   101   51  108 1    
   102   51  109 1    
   103   52   53 2    
   104   52   54 am   BACKBONE|DICT|INTERRES
   105   54   55 1    
   106   54  110 1    
   107   55   56 1    
   108   55   59 1    
   109   55  111 1    
   110   56   57 am   BACKBONE|DICT|INTERRES
   111   56   58 2    
   112   57  112 1    
   113   57  113 1    
   114   59   60 1    
   115   59  114 1    
   116   59  115 1    
   117   60   61 1    
   118   61  116 1    
   119   61  117 1    
@<TRIPOS>SUBSTRUCTURE
     1 UNK         1 GROUP             0       ****    0 ROOT    
