@<TRIPOS>MOLECULE
3R8
117   119    1
SMALL
USER_CHARGES


@<TRIPOS>ATOM
      1 CA         17.1449  -22.9153  -46.0215 C.3       0 UNK        -0.2013 
      2 C          17.1130  -24.3265  -45.4551 C.2       0 UNK         0.4866 
      3 O          17.6802  -25.2412  -46.0533 O.2       0 UNK        -0.5176 
      4 N          16.4652  -24.5149  -44.2978 N.am      1 UNK        -0.4884 
      5 CA         16.3308  -25.7954  -43.5915 C.3       1 UNK         0.0853 
      6 C6         15.0413  -25.7991  -42.7266 C.3       10 UNK        -0.0849 
      7 S7         14.5567  -27.3939  -41.9722 S.3       10 UNK        -0.2776 
      8 C8         14.4732  -28.5504  -43.3847 C.3       10 UNK         0.0316 
      9 C9         15.8207  -29.1590  -43.7729 C.ar      10 UNK        -0.0863 
     10 C10        16.7522  -29.5445  -42.8005 C.ar      10 UNK        -0.1009 
     11 C11        17.9782  -30.1109  -43.1588 C.ar      10 UNK        -0.0712 
     12 C12        18.2430  -30.3405  -44.5140 C.ar      10 UNK        -0.0894 
     13 C13        17.3381  -29.9445  -45.4994 C.ar      10 UNK        -0.0745 
     14 C14        16.1278  -29.3550  -45.1234 C.ar      10 UNK        -0.0972 
     15 C15        17.6694  -30.1612  -46.9689 C.3       10 UNK         0.0209 
     16 S16        18.7772  -28.8651  -47.6142 S.3       10 UNK        -0.2568 
     17 C17        20.4333  -29.4719  -47.1329 C.3       10 UNK        -0.0983 
     18 CA         21.2429  -28.4400  -46.3076 C.3       3 UNK         0.0876 
     19 N          20.5547  -28.0095  -45.0815 N.am      3 UNK        -0.4424 
     20 C          20.9060  -26.9298  -44.3685 C.2       2 UNK         0.4918 
     21 O          21.8112  -26.1610  -44.6962 O.2       2 UNK        -0.4875 
     22 CA         20.0656  -26.6385  -43.1199 C.3       2 UNK         0.0481 
     23 CB         20.6753  -25.5187  -42.2482 C.3       2 UNK        -0.1831 
     24 N          18.7213  -26.2951  -43.5708 N.am      2 UNK        -0.4498 
     25 C          17.6285  -26.1333  -42.8177 C.2       1 UNK         0.5027 
     26 O          17.6279  -26.2084  -41.5878 O.2       1 UNK        -0.4969 
     27 C          22.6740  -28.9573  -46.0325 C.2       3 UNK         0.5005 
     28 O          23.5251  -28.8661  -46.9193 O.2       3 UNK        -0.5279 
     29 N          22.9192  -29.4641  -44.8164 N.am      4 UNK        -0.4463 
     30 CA         24.2412  -29.7968  -44.2885 C.3       4 UNK         0.0283 
     31 CB         24.1950  -31.1940  -43.6524 C.3       4 UNK        -0.1875 
     32 C          24.6375  -28.7552  -43.2333 C.2       4 UNK         0.4949 
     33 O          23.7652  -28.1090  -42.6441 O.2       4 UNK        -0.5039 
     34 N          25.9509  -28.6348  -42.9970 N.am      5 UNK        -0.4663 
     35 CA         26.5598  -27.7216  -42.0248 C.3       5 UNK         0.0242 
     36 CB         28.0867  -27.8958  -42.0516 C.3       5 UNK        -0.1982 
     37 C          26.0195  -27.9340  -40.6006 C.2       5 UNK         0.5017 
     38 O          25.9140  -29.0787  -40.1543 O.2       5 UNK        -0.5012 
     39 N          25.6536  -26.8267  -39.9378 N.am      6 UNK        -0.4439 
     40 CA         25.0440  -26.7539  -38.6007 C.3       6 UNK         0.0297 
     41 CB         26.0606  -27.1859  -37.5219 C.3       6 UNK        -0.2006 
     42 C          23.7016  -27.5092  -38.4688 C.2       6 UNK         0.4892 
     43 O          23.2968  -27.8222  -37.3483 O.2       6 UNK        -0.5089 
     44 N          23.0476  -27.7976  -39.6067 N.am      7 UNK        -0.4243 
     45 CA         21.8423  -28.6196  -39.7575 C.3       7 UNK         0.0196 
     46 CB         20.6225  -27.9564  -39.0830 C.3       7 UNK        -0.2007 
     47 C          22.0410  -30.0887  -39.3279 C.2       7 UNK         0.5020 
     48 O          21.0635  -30.7639  -39.0002 O.2       7 UNK        -0.5147 
     49 N          23.2855  -30.5902  -39.3704 N.am      8 UNK        -0.4734 
     50 CA         23.6456  -31.9804  -39.0663 C.3       8 UNK         0.0238 
     51 CB         25.1131  -32.0239  -38.6019 C.3       8 UNK        -0.1912 
     52 C          23.3762  -32.9006  -40.2737 C.2       8 UNK         0.5038 
     53 O          24.2952  -33.5441  -40.7836 O.2       8 UNK        -0.5046 
     54 N          22.1229  -32.8984  -40.7388 N.am      9 UNK        -0.4200 
     55 CA         21.6726  -33.5262  -41.9912 C.3       9 UNK         0.0839 
     56 C          21.4424  -35.0622  -41.9081 C.2       9 UNK         0.5513 
     57 N          21.5256  -35.6869  -40.7398 N.am      9 UNK        -0.7519 
     58 O          21.1887  -35.7001  -42.9265 O.2       9 UNK        -0.4960 
     59 C59        20.4359  -32.7979  -42.5874 C.3       10 UNK        -0.0876 
     60 S60        20.6290  -30.9782  -42.6235 S.3       10 UNK        -0.2414 
     61 C61        18.9863  -30.4197  -42.0506 C.3       10 UNK         0.0169 
     62 H62        16.6965  -22.9003  -47.0144 H         1 UNK         0.0903 
     63 H63        16.6011  -22.2103  -45.3931 H         1 UNK         0.0903 
     64 H64        18.1746  -22.5694  -46.1075 H         1 UNK         0.0903 
     65 H65        16.0504  -23.7182  -43.8342 H         1 UNK         0.3096 
     66 H66        16.2147  -26.5660  -44.3540 H         1 UNK         0.1121 
     67 H67        14.1971  -25.4700  -43.3350 H         1 UNK         0.0849 
     68 H68        15.1272  -25.0640  -41.9242 H         1 UNK         0.0849 
     69 H69        13.8007  -29.3669  -43.1190 H         1 UNK         0.0865 
     70 H70        14.0133  -28.0416  -44.2336 H         1 UNK         0.0865 
     71 H71        16.5327  -29.3844  -41.7536 H         1 UNK         0.1346 
     72 H72        19.1604  -30.8171  -44.8186 H         1 UNK         0.1412 
     73 H73        15.4206  -29.0566  -45.8857 H         1 UNK         0.1426 
     74 H74        16.7529  -30.1562  -47.5608 H         1 UNK         0.0716 
     75 H75        18.1157  -31.1457  -47.1175 H         1 UNK         0.0716 
     76 H76        20.9643  -29.7017  -48.0588 H         1 UNK         0.0695 
     77 H77        20.3554  -30.4205  -46.6030 H         1 UNK         0.0695 
     78 H78        21.3586  -27.5513  -46.9327 H         1 UNK         0.0983 
     79 H79        19.7578  -28.5589  -44.7910 H         1 UNK         0.3095 
     80 H80        20.0159  -27.5538  -42.5289 H         1 UNK         0.0454 
     81 H81        20.1189  -25.3745  -41.3231 H         1 UNK         0.0851 
     82 H82        20.6979  -24.5648  -42.7761 H         1 UNK         0.0851 
     83 H83        21.7008  -25.7632  -41.9673 H         1 UNK         0.0851 
     84 H84        18.6140  -26.1549  -44.5734 H         1 UNK         0.2976 
     85 H85        22.1754  -29.4417  -44.1321 H         1 UNK         0.3116 
     86 H86        24.9860  -29.7960  -45.0870 H         1 UNK         0.0646 
     87 H87        23.8155  -31.9397  -44.3508 H         1 UNK         0.0847 
     88 H88        23.5616  -31.2067  -42.7661 H         1 UNK         0.0847 
     89 H89        25.1884  -31.5173  -43.3390 H         1 UNK         0.0847 
     90 H90        26.5868  -29.2339  -43.5033 H         1 UNK         0.3040 
     91 H91        26.3219  -26.7052  -42.3456 H         1 UNK         0.1015 
     92 H92        28.5705  -27.2113  -41.3533 H         1 UNK         0.0786 
     93 H93        28.4947  -27.6882  -43.0410 H         1 UNK         0.0786 
     94 H94        28.3811  -28.9082  -41.7710 H         1 UNK         0.0786 
     95 H95        25.7677  -25.9366  -40.4044 H         1 UNK         0.3172 
     96 H96        24.8114  -25.7015  -38.4318 H         1 UNK         0.0595 
     97 H97        26.2862  -28.2512  -37.5825 H         1 UNK         0.0839 
     98 H98        25.6765  -26.9931  -36.5194 H         1 UNK         0.0839 
     99 H99        26.9983  -26.6384  -37.6165 H         1 UNK         0.0839 
    100 H100       23.4838  -27.5277  -40.4809 H         1 UNK         0.2998 
    101 H101       21.6431  -28.6525  -40.8293 H         1 UNK         0.0822 
    102 H102       20.4970  -26.9258  -39.4132 H         1 UNK         0.0787 
    103 H103       19.7015  -28.4861  -39.3279 H         1 UNK         0.0787 
    104 H104       20.7120  -27.9528  -37.9965 H         1 UNK         0.0787 
    105 H105       24.0451  -29.9878  -39.6717 H         1 UNK         0.3055 
    106 H106       23.0254  -32.3379  -38.2411 H         1 UNK         0.1106 
    107 H107       25.7956  -31.7043  -39.3905 H         1 UNK         0.0828 
    108 H108       25.4015  -33.0346  -38.3104 H         1 UNK         0.0828 
    109 H109       25.2757  -31.3782  -37.7387 H         1 UNK         0.0828 
    110 H110       21.4447  -32.3159  -40.2598 H         1 UNK         0.2931 
    111 H111       22.4813  -33.4030  -42.7131 H         1 UNK         0.0412 
    112 H112       21.3783  -36.6834  -40.6984 H         1 UNK         0.3472 
    113 H113       21.7384  -35.1713  -39.9009 H         1 UNK         0.3472 
    114 H114       20.2521  -33.1378  -43.6082 H         1 UNK         0.0970 
    115 H115       19.5423  -33.0613  -42.0197 H         1 UNK         0.0970 
    116 H116       19.1384  -29.5088  -41.4715 H         1 UNK         0.0612 
    117 H117       18.5598  -31.1438  -41.3559 H         1 UNK         0.0612 
@<TRIPOS>BOND
     1    1    2 1    
     2    1   62 1    
     3    1   63 1    
     4    1   64 1    
     5    2    3 2    
     6    2    4 am   BACKBONE|DICT|INTERRES
     7    4    5 1    
     8    4   65 1    
     9    5    6 1    
    10    5   25 1    
    11    5   66 1    
    12    6    7 1    
    13    6   67 1    
    14    6   68 1    
    15    7    8 1    
    16    8    9 1    
    17    8   69 1    
    18    8   70 1    
    19    9   10 ar   
    20    9   14 ar   
    21   10   11 ar   
    22   10   71 1    
    23   11   12 ar   
    24   11   61 1    
    25   12   13 ar   
    26   12   72 1    
    27   13   14 ar   
    28   13   15 1    
    29   14   73 1    
    30   15   16 1    
    31   15   74 1    
    32   15   75 1    
    33   16   17 1    
    34   17   18 1    
    35   17   76 1    
    36   17   77 1    
    37   18   19 1    
    38   18   27 1    
    39   18   78 1    
    40   19   20 am   BACKBONE|DICT|INTERRES
    41   19   79 1    
    42   20   21 2    
    43   20   22 1    
    44   22   23 1    
    45   22   24 1    
    46   22   80 1    
    47   23   81 1    
    48   23   82 1    
    49   23   83 1    
    50   24   25 am   BACKBONE|DICT|INTERRES
    51   24   84 1    
    52   25   26 2    
    53   27   28 2    
    54   27   29 am   BACKBONE|DICT|INTERRES
    55   29   30 1    
    56   29   85 1    
    57   30   31 1    
    58   30   32 1    
    59   30   86 1    
    60   31   87 1    
    61   31   88 1    
    62   31   89 1    
    63   32   33 2    
    64   32   34 am   BACKBONE|DICT|INTERRES
    65   34   35 1    
    66   34   90 1    
    67   35   36 1    
    68   35   37 1    
    69   35   91 1    
    70   36   92 1    
    71   36   93 1    
    72   36   94 1    
    73   37   38 2    
    74   37   39 am   BACKBONE|DICT|INTERRES
    75   39   40 1    
    76   39   95 1    
    77   40   41 1    
    78   40   42 1    
    79   40   96 1    
    80   41   97 1    
    81   41   98 1    
    82   41   99 1    
    83   42   43 2    
    84   42   44 am   BACKBONE|DICT|INTERRES
    85   44   45 1    
    86   44  100 1    
    87   45   46 1    
    88   45   47 1    
    89   45  101 1    
    90   46  102 1    
    91   46  103 1    
    92   46  104 1    
    93   47   48 2    
    94   47   49 am   BACKBONE|DICT|INTERRES
    95   49   50 1    
    96   49  105 1    
    97   50   51 1    
    98   50   52 1    
    99   50  106 1    
   100   51  107 1    
   101   51  108 1    
   102   51  109 1    
   103   52   53 2    
   104   52   54 am   BACKBONE|DICT|INTERRES
   105   54   55 1    
   106   54  110 1    
   107   55   56 1    
   108   55   59 1    
   109   55  111 1    
   110   56   57 am   BACKBONE|DICT|INTERRES
   111   56   58 2    
   112   57  112 1    
   113   57  113 1    
   114   59   60 1    
   115   59  114 1    
   116   59  115 1    
   117   60   61 1    
   118   61  116 1    
   119   61  117 1    
@<TRIPOS>SUBSTRUCTURE
     1 UNK         1 GROUP             0       ****    0 ROOT    
