@<TRIPOS>MOLECULE
3R8
117   119    1
SMALL
USER_CHARGES


@<TRIPOS>ATOM
      1 CA         19.9488  -23.3404  -45.6299 C.3       0 UNK        -0.2013 
      2 C          19.4721  -24.7839  -45.6716 C.2       0 UNK         0.4866 
      3 O          19.1029  -25.3348  -44.6345 O.2       0 UNK        -0.5176 
      4 N          19.5051  -25.4127  -46.8577 N.am      1 UNK        -0.4884 
      5 CA         19.0342  -26.7834  -47.1348 C.3       1 UNK         0.0853 
      6 C6         17.4943  -26.8998  -46.9484 C.3       10 UNK        -0.0849 
      7 S7         16.7332  -28.1973  -47.9862 S.3       10 UNK        -0.2776 
      8 C8         15.3373  -28.7555  -46.9508 C.3       10 UNK         0.0316 
      9 C9         15.7772  -29.2660  -45.5835 C.ar      10 UNK        -0.0863 
     10 C10        16.5420  -30.4304  -45.4732 C.ar      10 UNK        -0.1009 
     11 C11        16.9709  -30.8930  -44.2246 C.ar      10 UNK        -0.0712 
     12 C12        16.5852  -30.1923  -43.0736 C.ar      10 UNK        -0.0894 
     13 C13        15.8361  -29.0151  -43.1693 C.ar      10 UNK        -0.0745 
     14 C14        15.4285  -28.5635  -44.4272 C.ar      10 UNK        -0.0972 
     15 C15        15.4673  -28.2144  -41.9242 C.3       10 UNK         0.0209 
     16 S16        16.8801  -27.8739  -40.8173 S.3       10 UNK        -0.2568 
     17 C17        18.1210  -27.1269  -41.9336 C.3       10 UNK        -0.0983 
     18 CA         19.4492  -27.9284  -41.9241 C.3       3 UNK         0.0876 
     19 N          20.1903  -27.7601  -43.1743 N.am      3 UNK        -0.4424 
     20 C          21.1899  -28.5652  -43.5646 C.2       2 UNK         0.4918 
     21 O          21.5920  -29.5076  -42.8827 O.2       2 UNK        -0.4875 
     22 CA         21.8569  -28.2785  -44.9296 C.3       2 UNK         0.0481 
     23 CB         22.4053  -29.5559  -45.6021 C.3       2 UNK        -0.1831 
     24 N          21.0104  -27.5093  -45.8482 N.am      2 UNK        -0.4498 
     25 C          19.8322  -27.8787  -46.3754 C.2       1 UNK         0.5027 
     26 O          19.3785  -29.0170  -46.2713 O.2       1 UNK        -0.4969 
     27 C          20.3144  -27.5576  -40.6998 C.2       3 UNK         0.5005 
     28 O          21.0875  -26.5959  -40.7609 O.2       3 UNK        -0.5279 
     29 N          20.1139  -28.2953  -39.5967 N.am      4 UNK        -0.4463 
     30 CA         20.6516  -28.0560  -38.2531 C.3       4 UNK         0.0283 
     31 CB         19.8897  -26.8863  -37.5889 C.3       4 UNK        -0.1875 
     32 C          22.1837  -27.8922  -38.2392 C.2       4 UNK         0.4949 
     33 O          22.8943  -28.8650  -38.4890 O.2       4 UNK        -0.5039 
     34 N          22.6669  -26.6753  -37.9560 N.am      5 UNK        -0.4663 
     35 CA         24.0867  -26.3269  -37.8695 C.3       5 UNK         0.0242 
     36 CB         24.2188  -24.8955  -37.3250 C.3       5 UNK        -0.1982 
     37 C          24.8619  -26.4711  -39.1912 C.2       5 UNK         0.5017 
     38 O          26.0821  -26.6335  -39.1463 O.2       5 UNK        -0.5012 
     39 N          24.1680  -26.4365  -40.3385 N.am      6 UNK        -0.4439 
     40 CA         24.7546  -26.5750  -41.6749 C.3       6 UNK         0.0297 
     41 CB         23.8606  -25.8462  -42.6946 C.3       6 UNK        -0.2006 
     42 C          25.0309  -28.0480  -42.0466 C.2       6 UNK         0.4892 
     43 O          24.6040  -28.5061  -43.1044 O.2       6 UNK        -0.5089 
     44 N          25.7628  -28.7520  -41.1723 N.am      7 UNK        -0.4243 
     45 CA         26.2106  -30.1466  -41.2871 C.3       7 UNK         0.0196 
     46 CB         27.0989  -30.3522  -42.5342 C.3       7 UNK        -0.2007 
     47 C          25.0891  -31.2006  -41.1718 C.2       7 UNK         0.5020 
     48 O          25.2762  -32.3237  -41.6432 O.2       7 UNK        -0.5147 
     49 N          23.9779  -30.8471  -40.5057 N.am      8 UNK        -0.4734 
     50 CA         22.8853  -31.7193  -40.0437 C.3       8 UNK         0.0238 
     51 CB         23.3154  -32.4234  -38.7400 C.3       8 UNK        -0.1912 
     52 C          22.3451  -32.7081  -41.0963 C.2       8 UNK         0.5038 
     53 O          22.2180  -33.9016  -40.8127 O.2       8 UNK        -0.5046 
     54 N          22.0513  -32.1893  -42.2933 N.am      9 UNK        -0.4200 
     55 CA         21.5338  -32.9209  -43.4610 C.3       9 UNK         0.0839 
     56 C          22.5342  -33.9353  -44.0940 C.2       9 UNK         0.5513 
     57 N          23.8146  -33.9256  -43.7406 N.am      9 UNK        -0.7519 
     58 O          22.1517  -34.7267  -44.9523 O.2       9 UNK        -0.4960 
     59 C59        20.1218  -33.5317  -43.2181 C.3       10 UNK        -0.0876 
     60 S60        18.9093  -32.2716  -42.6891 S.3       10 UNK        -0.2414 
     61 C61        17.8527  -32.1416  -44.1722 C.3       10 UNK         0.0169 
     62 H62        20.7906  -23.2433  -44.9448 H         1 UNK         0.0903 
     63 H63        20.2654  -22.9854  -46.6105 H         1 UNK         0.0903 
     64 H64        19.1467  -22.6927  -45.2773 H         1 UNK         0.0903 
     65 H65        19.8449  -24.9086  -47.6666 H         1 UNK         0.3096 
     66 H66        19.2552  -26.9514  -48.1904 H         1 UNK         0.1121 
     67 H67        17.0120  -25.9619  -47.2282 H         1 UNK         0.0849 
     68 H68        17.2545  -27.0462  -45.8949 H         1 UNK         0.0849 
     69 H69        14.6251  -27.9352  -46.8482 H         1 UNK         0.0865 
     70 H70        14.8072  -29.5526  -47.4741 H         1 UNK         0.0865 
     71 H71        16.8310  -30.9601  -46.3708 H         1 UNK         0.1346 
     72 H72        16.8882  -30.5385  -42.0961 H         1 UNK         0.1412 
     73 H73        14.8472  -27.6549  -44.5080 H         1 UNK         0.1426 
     74 H74        14.7083  -28.7634  -41.3657 H         1 UNK         0.0716 
     75 H75        15.0157  -27.2602  -42.2000 H         1 UNK         0.0716 
     76 H76        18.2783  -26.0828  -41.6550 H         1 UNK         0.0695 
     77 H77        17.7097  -27.0950  -42.9433 H         1 UNK         0.0695 
     78 H78        19.2060  -28.9923  -41.8629 H         1 UNK         0.0983 
     79 H79        19.9167  -26.9753  -43.7565 H         1 UNK         0.3095 
     80 H80        22.7098  -27.6347  -44.7211 H         1 UNK         0.0454 
     81 H81        22.8905  -29.3282  -46.5507 H         1 UNK         0.0851 
     82 H82        21.6191  -30.2861  -45.7920 H         1 UNK         0.0851 
     83 H83        23.1498  -30.0397  -44.9683 H         1 UNK         0.0851 
     84 H84        21.2926  -26.5512  -46.0012 H         1 UNK         0.2976 
     85 H85        19.4653  -29.0674  -39.6639 H         1 UNK         0.3116 
     86 H86        20.4417  -28.9550  -37.6718 H         1 UNK         0.0646 
     87 H87        19.9901  -25.9555  -38.1485 H         1 UNK         0.0847 
     88 H88        20.2427  -26.7080  -36.5721 H         1 UNK         0.0847 
     89 H89        18.8245  -27.1076  -37.5186 H         1 UNK         0.0847 
     90 H90        22.0067  -25.9283  -37.7954 H         1 UNK         0.3040 
     91 H91        24.5501  -27.0102  -37.1542 H         1 UNK         0.1015 
     92 H92        23.7511  -24.1667  -37.9883 H         1 UNK         0.0786 
     93 H93        25.2673  -24.6129  -37.2183 H         1 UNK         0.0786 
     94 H94        23.7592  -24.7999  -36.3410 H         1 UNK         0.0786 
     95 H95        23.1551  -26.3695  -40.2935 H         1 UNK         0.3172 
     96 H96        25.7222  -26.0686  -41.6846 H         1 UNK         0.0595 
     97 H97        22.8573  -26.2680  -42.7240 H         1 UNK         0.0839 
     98 H98        24.2769  -25.9102  -43.7007 H         1 UNK         0.0839 
     99 H99        23.7673  -24.7876  -42.4522 H         1 UNK         0.0839 
    100 H100       26.0614  -28.2591  -40.3360 H         1 UNK         0.2998 
    101 H101       26.8457  -30.3140  -40.4160 H         1 UNK         0.0822 
    102 H102       27.8901  -29.6045  -42.5875 H         1 UNK         0.0787 
    103 H103       27.5815  -31.3301  -42.5144 H         1 UNK         0.0787 
    104 H104       26.5208  -30.2978  -43.4571 H         1 UNK         0.0787 
    105 H105       23.9128  -29.8922  -40.1729 H         1 UNK         0.3055 
    106 H106       22.0485  -31.0618  -39.8024 H         1 UNK         0.1106 
    107 H107       22.4958  -33.0060  -38.3174 H         1 UNK         0.0828 
    108 H108       24.1502  -33.1047  -38.9084 H         1 UNK         0.0828 
    109 H109       23.6185  -31.7003  -37.9826 H         1 UNK         0.0828 
    110 H110       22.1440  -31.1844  -42.4283 H         1 UNK         0.2931 
    111 H111       21.4134  -32.1564  -44.2284 H         1 UNK         0.0412 
    112 H112       24.1541  -33.2964  -43.0200 H         1 UNK         0.3472 
    113 H113       24.4483  -34.5803  -44.1702 H         1 UNK         0.3472 
    114 H114       20.1659  -34.3117  -42.4568 H         1 UNK         0.0970 
    115 H115       19.7531  -34.0223  -44.1204 H         1 UNK         0.0970 
    116 H116       17.2206  -33.0279  -44.2375 H         1 UNK         0.0612 
    117 H117       18.5018  -32.1490  -45.0498 H         1 UNK         0.0612 
@<TRIPOS>BOND
     1    1    2 1    
     2    1   62 1    
     3    1   63 1    
     4    1   64 1    
     5    2    3 2    
     6    2    4 am   BACKBONE|DICT|INTERRES
     7    4    5 1    
     8    4   65 1    
     9    5    6 1    
    10    5   25 1    
    11    5   66 1    
    12    6    7 1    
    13    6   67 1    
    14    6   68 1    
    15    7    8 1    
    16    8    9 1    
    17    8   69 1    
    18    8   70 1    
    19    9   10 ar   
    20    9   14 ar   
    21   10   11 ar   
    22   10   71 1    
    23   11   12 ar   
    24   11   61 1    
    25   12   13 ar   
    26   12   72 1    
    27   13   14 ar   
    28   13   15 1    
    29   14   73 1    
    30   15   16 1    
    31   15   74 1    
    32   15   75 1    
    33   16   17 1    
    34   17   18 1    
    35   17   76 1    
    36   17   77 1    
    37   18   19 1    
    38   18   27 1    
    39   18   78 1    
    40   19   20 am   BACKBONE|DICT|INTERRES
    41   19   79 1    
    42   20   21 2    
    43   20   22 1    
    44   22   23 1    
    45   22   24 1    
    46   22   80 1    
    47   23   81 1    
    48   23   82 1    
    49   23   83 1    
    50   24   25 am   BACKBONE|DICT|INTERRES
    51   24   84 1    
    52   25   26 2    
    53   27   28 2    
    54   27   29 am   BACKBONE|DICT|INTERRES
    55   29   30 1    
    56   29   85 1    
    57   30   31 1    
    58   30   32 1    
    59   30   86 1    
    60   31   87 1    
    61   31   88 1    
    62   31   89 1    
    63   32   33 2    
    64   32   34 am   BACKBONE|DICT|INTERRES
    65   34   35 1    
    66   34   90 1    
    67   35   36 1    
    68   35   37 1    
    69   35   91 1    
    70   36   92 1    
    71   36   93 1    
    72   36   94 1    
    73   37   38 2    
    74   37   39 am   BACKBONE|DICT|INTERRES
    75   39   40 1    
    76   39   95 1    
    77   40   41 1    
    78   40   42 1    
    79   40   96 1    
    80   41   97 1    
    81   41   98 1    
    82   41   99 1    
    83   42   43 2    
    84   42   44 am   BACKBONE|DICT|INTERRES
    85   44   45 1    
    86   44  100 1    
    87   45   46 1    
    88   45   47 1    
    89   45  101 1    
    90   46  102 1    
    91   46  103 1    
    92   46  104 1    
    93   47   48 2    
    94   47   49 am   BACKBONE|DICT|INTERRES
    95   49   50 1    
    96   49  105 1    
    97   50   51 1    
    98   50   52 1    
    99   50  106 1    
   100   51  107 1    
   101   51  108 1    
   102   51  109 1    
   103   52   53 2    
   104   52   54 am   BACKBONE|DICT|INTERRES
   105   54   55 1    
   106   54  110 1    
   107   55   56 1    
   108   55   59 1    
   109   55  111 1    
   110   56   57 am   BACKBONE|DICT|INTERRES
   111   56   58 2    
   112   57  112 1    
   113   57  113 1    
   114   59   60 1    
   115   59  114 1    
   116   59  115 1    
   117   60   61 1    
   118   61  116 1    
   119   61  117 1    
@<TRIPOS>SUBSTRUCTURE
     1 UNK         1 GROUP             0       ****    0 ROOT    
