@<TRIPOS>MOLECULE
3R8
117   119    1
SMALL
USER_CHARGES


@<TRIPOS>ATOM
      1 CA         14.2946  -28.8816  -40.1407 C.3       0 UNK        -0.2013 
      2 C          14.4893  -28.1275  -41.4476 C.2       0 UNK         0.4866 
      3 O          13.6542  -27.2944  -41.8031 O.2       0 UNK        -0.5176 
      4 N          15.5759  -28.4205  -42.1708 N.am      1 UNK        -0.4884 
      5 CA         15.9421  -27.7638  -43.4305 C.3       1 UNK         0.0853 
      6 C6         16.9711  -28.5993  -44.2270 C.3       10 UNK        -0.0849 
      7 S7         16.2899  -30.1918  -44.8065 S.3       10 UNK        -0.2776 
      8 C8         17.2114  -30.4372  -46.3648 C.3       10 UNK         0.0316 
      9 C9         18.7109  -30.2810  -46.1538 C.ar      10 UNK        -0.0863 
     10 C10        19.4000  -31.1910  -45.3525 C.ar      10 UNK        -0.1009 
     11 C11        20.7495  -30.9938  -45.0537 C.ar      10 UNK        -0.0712 
     12 C12        21.4209  -29.8900  -45.5918 C.ar      10 UNK        -0.0894 
     13 C13        20.7495  -28.9796  -46.4172 C.ar      10 UNK        -0.0745 
     14 C14        19.3956  -29.1950  -46.7053 C.ar      10 UNK        -0.0972 
     15 C15        21.5011  -27.7846  -47.0046 C.3       10 UNK         0.0209 
     16 S16        20.4983  -26.2557  -47.0850 S.3       10 UNK        -0.2568 
     17 C17        21.2892  -25.1575  -45.8559 C.3       10 UNK        -0.0983 
     18 CA         20.6733  -25.1879  -44.4291 C.3       3 UNK         0.0876 
     19 N          19.2149  -25.1109  -44.4283 N.am      3 UNK        -0.4424 
     20 C          18.4861  -23.9972  -44.3165 C.2       2 UNK         0.4918 
     21 O          18.9784  -22.8707  -44.2375 O.2       2 UNK        -0.4875 
     22 CA         16.9492  -24.1418  -44.2971 C.3       2 UNK         0.0481 
     23 CB         16.3290  -23.4317  -45.5125 C.3       2 UNK        -0.1831 
     24 N          16.4679  -25.5283  -44.2688 N.am      2 UNK        -0.4498 
     25 C          16.4770  -26.3335  -43.1965 C.2       1 UNK         0.5027 
     26 O          16.9094  -25.9935  -42.0921 O.2       1 UNK        -0.4969 
     27 C          21.1031  -26.4195  -43.6167 C.2       3 UNK         0.5005 
     28 O          20.2757  -27.2905  -43.3398 O.2       3 UNK        -0.5279 
     29 N          22.3872  -26.4437  -43.2453 N.am      4 UNK        -0.4463 
     30 CA         23.0554  -27.5113  -42.5037 C.3       4 UNK         0.0283 
     31 CB         23.6385  -26.9089  -41.2125 C.3       4 UNK        -0.1875 
     32 C          24.1683  -28.1191  -43.3718 C.2       4 UNK         0.4949 
     33 O          24.4861  -27.5789  -44.4352 O.2       4 UNK        -0.5039 
     34 N          24.7559  -29.2200  -42.8967 N.am      5 UNK        -0.4663 
     35 CA         25.8725  -29.9151  -43.5346 C.3       5 UNK         0.0242 
     36 CB         25.3315  -31.0267  -44.4599 C.3       5 UNK        -0.1982 
     37 C          26.8252  -30.4009  -42.4320 C.2       5 UNK         0.5017 
     38 O          27.2596  -29.5868  -41.6153 O.2       5 UNK        -0.5012 
     39 N          27.1196  -31.7091  -42.4012 N.am      6 UNK        -0.4439 
     40 CA         27.8704  -32.3726  -41.3270 C.3       6 UNK         0.0297 
     41 CB         28.2910  -33.7752  -41.7954 C.3       6 UNK        -0.2006 
     42 C          27.0804  -32.4596  -40.0050 C.2       6 UNK         0.4892 
     43 O          27.6893  -32.6001  -38.9437 O.2       6 UNK        -0.5089 
     44 N          25.7502  -32.3624  -40.1003 N.am      7 UNK        -0.4243 
     45 CA         24.8072  -32.2125  -38.9981 C.3       7 UNK         0.0196 
     46 CB         23.8392  -33.4090  -39.0149 C.3       7 UNK        -0.2007 
     47 C          24.0440  -30.8934  -39.1903 C.2       7 UNK         0.5020 
     48 O          24.1556  -30.2615  -40.2443 O.2       7 UNK        -0.5147 
     49 N          23.2565  -30.5111  -38.1770 N.am      8 UNK        -0.4734 
     50 CA         22.4012  -29.3174  -38.1996 C.3       8 UNK         0.0238 
     51 CB         21.8823  -29.0390  -36.7792 C.3       8 UNK        -0.1912 
     52 C          21.2268  -29.4090  -39.1936 C.2       8 UNK         0.5038 
     53 O          20.7345  -28.3680  -39.6272 O.2       8 UNK        -0.5046 
     54 N          20.8096  -30.6404  -39.5243 N.am      9 UNK        -0.4200 
     55 CA         19.7645  -30.9780  -40.5079 C.3       9 UNK         0.0839 
     56 C          18.3332  -30.4855  -40.1272 C.2       9 UNK         0.5513 
     57 N          18.0366  -30.2698  -38.8509 N.am      9 UNK        -0.7519 
     58 O          17.4711  -30.3191  -40.9870 O.2       9 UNK        -0.4960 
     59 C59        20.1582  -30.5989  -41.9630 C.3       10 UNK        -0.0876 
     60 S60        21.7912  -31.2446  -42.4830 S.3       10 UNK        -0.2414 
     61 C61        21.4591  -31.9661  -44.1222 C.3       10 UNK         0.0169 
     62 H62        14.9852  -29.7193  -40.0492 H         1 UNK         0.0903 
     63 H63        14.4524  -28.2131  -39.2949 H         1 UNK         0.0903 
     64 H64        13.2804  -29.2756  -40.0807 H         1 UNK         0.0903 
     65 H65        16.2442  -29.1031  -41.8191 H         1 UNK         0.3096 
     66 H66        15.0351  -27.6729  -44.0331 H         1 UNK         0.1121 
     67 H67        17.8613  -28.7970  -43.6251 H         1 UNK         0.0849 
     68 H68        17.3152  -28.0442  -45.1013 H         1 UNK         0.0849 
     69 H69        16.9996  -31.4335  -46.7553 H         1 UNK         0.0865 
     70 H70        16.8466  -29.7297  -47.1112 H         1 UNK         0.0865 
     71 H71        18.8675  -32.0275  -44.9205 H         1 UNK         0.1346 
     72 H72        22.4629  -29.7332  -45.3516 H         1 UNK         0.1412 
     73 H73        18.8624  -28.4980  -47.3365 H         1 UNK         0.1426 
     74 H74        21.8147  -28.0434  -48.0164 H         1 UNK         0.0716 
     75 H75        22.4157  -27.5969  -46.4403 H         1 UNK         0.0716 
     76 H76        21.1913  -24.1434  -46.2459 H         1 UNK         0.0695 
     77 H77        22.3641  -25.3445  -45.8321 H         1 UNK         0.0695 
     78 H78        21.0598  -24.3263  -43.8793 H         1 UNK         0.0983 
     79 H79        18.7589  -26.0120  -44.4066 H         1 UNK         0.3095 
     80 H80        16.5921  -23.6392  -43.3959 H         1 UNK         0.0454 
     81 H81        16.6526  -23.8820  -46.4518 H         1 UNK         0.0851 
     82 H82        16.6163  -22.3797  -45.5415 H         1 UNK         0.0851 
     83 H83        15.2398  -23.4640  -45.4802 H         1 UNK         0.0851 
     84 H84        16.1051  -25.8861  -45.1414 H         1 UNK         0.2976 
     85 H85        23.0053  -25.7254  -43.5968 H         1 UNK         0.3116 
     86 H86        22.3507  -28.3031  -42.2435 H         1 UNK         0.0646 
     87 H87        22.8496  -26.5031  -40.5789 H         1 UNK         0.0847 
     88 H88        24.3471  -26.1072  -41.4232 H         1 UNK         0.0847 
     89 H89        24.1665  -27.6594  -40.6248 H         1 UNK         0.0847 
     90 H90        24.4811  -29.5715  -41.9790 H         1 UNK         0.3040 
     91 H91        26.4480  -29.2113  -44.1401 H         1 UNK         0.1015 
     92 H92        24.7395  -31.7606  -43.9118 H         1 UNK         0.0786 
     93 H93        26.1401  -31.5520  -44.9698 H         1 UNK         0.0786 
     94 H94        24.6941  -30.6078  -45.2382 H         1 UNK         0.0786 
     95 H95        26.7372  -32.3026  -43.1237 H         1 UNK         0.3172 
     96 H96        28.7744  -31.7915  -41.1326 H         1 UNK         0.0595 
     97 H97        27.4280  -34.4061  -42.0124 H         1 UNK         0.0839 
     98 H98        28.8786  -34.2817  -41.0282 H         1 UNK         0.0839 
     99 H99        28.9081  -33.7270  -42.6928 H         1 UNK         0.0839 
    100 H100       25.3613  -32.1651  -41.0113 H         1 UNK         0.2998 
    101 H101       25.3319  -32.1740  -38.0411 H         1 UNK         0.0822 
    102 H102       24.3792  -34.3529  -38.9374 H         1 UNK         0.0787 
    103 H103       23.1425  -33.3693  -38.1769 H         1 UNK         0.0787 
    104 H104       23.2488  -33.4376  -39.9322 H         1 UNK         0.0787 
    105 H105       23.2247  -31.0784  -37.3413 H         1 UNK         0.3055 
    106 H106       23.0157  -28.4697  -38.5105 H         1 UNK         0.1106 
    107 H107       21.2764  -29.8627  -36.3999 H         1 UNK         0.0828 
    108 H108       21.2611  -28.1422  -36.7599 H         1 UNK         0.0828 
    109 H109       22.7035  -28.8752  -36.0812 H         1 UNK         0.0828 
    110 H110       21.2797  -31.4253  -39.1006 H         1 UNK         0.2931 
    111 H111       19.6922  -32.0656  -40.4797 H         1 UNK         0.0412 
    112 H112       17.1115  -29.9595  -38.6021 H         1 UNK         0.3472 
    113 H113       18.7322  -30.4073  -38.1357 H         1 UNK         0.3472 
    114 H114       20.1660  -29.5157  -42.0812 H         1 UNK         0.0970 
    115 H115       19.3947  -30.9666  -42.6479 H         1 UNK         0.0970 
    116 H116       20.8716  -32.8761  -43.9913 H         1 UNK         0.0612 
    117 H117       22.4031  -32.2742  -44.5727 H         1 UNK         0.0612 
@<TRIPOS>BOND
     1    1    2 1    
     2    1   62 1    
     3    1   63 1    
     4    1   64 1    
     5    2    3 2    
     6    2    4 am   BACKBONE|DICT|INTERRES
     7    4    5 1    
     8    4   65 1    
     9    5    6 1    
    10    5   25 1    
    11    5   66 1    
    12    6    7 1    
    13    6   67 1    
    14    6   68 1    
    15    7    8 1    
    16    8    9 1    
    17    8   69 1    
    18    8   70 1    
    19    9   10 ar   
    20    9   14 ar   
    21   10   11 ar   
    22   10   71 1    
    23   11   12 ar   
    24   11   61 1    
    25   12   13 ar   
    26   12   72 1    
    27   13   14 ar   
    28   13   15 1    
    29   14   73 1    
    30   15   16 1    
    31   15   74 1    
    32   15   75 1    
    33   16   17 1    
    34   17   18 1    
    35   17   76 1    
    36   17   77 1    
    37   18   19 1    
    38   18   27 1    
    39   18   78 1    
    40   19   20 am   BACKBONE|DICT|INTERRES
    41   19   79 1    
    42   20   21 2    
    43   20   22 1    
    44   22   23 1    
    45   22   24 1    
    46   22   80 1    
    47   23   81 1    
    48   23   82 1    
    49   23   83 1    
    50   24   25 am   BACKBONE|DICT|INTERRES
    51   24   84 1    
    52   25   26 2    
    53   27   28 2    
    54   27   29 am   BACKBONE|DICT|INTERRES
    55   29   30 1    
    56   29   85 1    
    57   30   31 1    
    58   30   32 1    
    59   30   86 1    
    60   31   87 1    
    61   31   88 1    
    62   31   89 1    
    63   32   33 2    
    64   32   34 am   BACKBONE|DICT|INTERRES
    65   34   35 1    
    66   34   90 1    
    67   35   36 1    
    68   35   37 1    
    69   35   91 1    
    70   36   92 1    
    71   36   93 1    
    72   36   94 1    
    73   37   38 2    
    74   37   39 am   BACKBONE|DICT|INTERRES
    75   39   40 1    
    76   39   95 1    
    77   40   41 1    
    78   40   42 1    
    79   40   96 1    
    80   41   97 1    
    81   41   98 1    
    82   41   99 1    
    83   42   43 2    
    84   42   44 am   BACKBONE|DICT|INTERRES
    85   44   45 1    
    86   44  100 1    
    87   45   46 1    
    88   45   47 1    
    89   45  101 1    
    90   46  102 1    
    91   46  103 1    
    92   46  104 1    
    93   47   48 2    
    94   47   49 am   BACKBONE|DICT|INTERRES
    95   49   50 1    
    96   49  105 1    
    97   50   51 1    
    98   50   52 1    
    99   50  106 1    
   100   51  107 1    
   101   51  108 1    
   102   51  109 1    
   103   52   53 2    
   104   52   54 am   BACKBONE|DICT|INTERRES
   105   54   55 1    
   106   54  110 1    
   107   55   56 1    
   108   55   59 1    
   109   55  111 1    
   110   56   57 am   BACKBONE|DICT|INTERRES
   111   56   58 2    
   112   57  112 1    
   113   57  113 1    
   114   59   60 1    
   115   59  114 1    
   116   59  115 1    
   117   60   61 1    
   118   61  116 1    
   119   61  117 1    
@<TRIPOS>SUBSTRUCTURE
     1 UNK         1 GROUP             0       ****    0 ROOT    
