@<TRIPOS>MOLECULE
3R8
117   119    1
SMALL
USER_CHARGES


@<TRIPOS>ATOM
      1 CA         21.4518  -26.9302  -46.6538 C.3       0 UNK        -0.2013 
      2 C          20.3390  -26.8524  -45.6220 C.2       0 UNK         0.4866 
      3 O          20.6009  -27.0132  -44.4298 O.2       0 UNK        -0.5176 
      4 N          19.1004  -26.6120  -46.0672 N.am      1 UNK        -0.4884 
      5 CA         17.9215  -26.4582  -45.2103 C.3       1 UNK         0.0853 
      6 C6         16.6257  -26.7264  -46.0235 C.3       10 UNK        -0.0849 
      7 S7         15.1961  -27.2122  -44.9969 S.3       10 UNK        -0.2776 
      8 C8         15.3124  -29.0331  -44.9979 C.3       10 UNK         0.0316 
      9 C9         16.5570  -29.5215  -44.2693 C.ar      10 UNK        -0.0863 
     10 C10        17.6884  -29.9062  -44.9945 C.ar      10 UNK        -0.1009 
     11 C11        18.8463  -30.3131  -44.3298 C.ar      10 UNK        -0.0712 
     12 C12        18.8620  -30.3544  -42.9340 C.ar      10 UNK        -0.0894 
     13 C13        17.7383  -29.9735  -42.1883 C.ar      10 UNK        -0.0745 
     14 C14        16.5853  -29.5689  -42.8708 C.ar      10 UNK        -0.0972 
     15 C15        17.7242  -29.9787  -40.6549 C.3       10 UNK         0.0209 
     16 S16        19.3605  -30.1214  -39.8470 S.3       10 UNK        -0.2568 
     17 C17        19.9575  -28.3993  -39.6870 C.3       10 UNK        -0.0983 
     18 CA         20.2924  -27.7178  -41.0462 C.3       3 UNK         0.0876 
     19 N          19.0932  -27.2284  -41.7412 N.am      3 UNK        -0.4424 
     20 C          18.3074  -26.2090  -41.3651 C.2       2 UNK         0.4918 
     21 O          18.4993  -25.5121  -40.3678 O.2       2 UNK        -0.4875 
     22 CA         17.1240  -25.8953  -42.2881 C.3       2 UNK         0.0481 
     23 CB         15.9145  -25.3573  -41.5035 C.3       2 UNK        -0.1831 
     24 N          17.5352  -24.8920  -43.2709 N.am      2 UNK        -0.4498 
     25 C          17.9268  -25.0590  -44.5440 C.2       1 UNK         0.5027 
     26 O          18.2847  -24.0937  -45.2206 O.2       1 UNK        -0.4969 
     27 C          21.3784  -26.6164  -40.9716 C.2       3 UNK         0.5005 
     28 O          22.0679  -26.4671  -39.9611 O.2       3 UNK        -0.5279 
     29 N          21.4942  -25.8544  -42.0678 N.am      4 UNK        -0.4463 
     30 CA         22.4478  -24.7650  -42.2583 C.3       4 UNK         0.0283 
     31 CB         21.8635  -23.7555  -43.2597 C.3       4 UNK        -0.1875 
     32 C          23.8062  -25.2851  -42.7473 C.2       4 UNK         0.4949 
     33 O          24.8311  -24.6939  -42.4078 O.2       4 UNK        -0.5039 
     34 N          23.7955  -26.3816  -43.5219 N.am      5 UNK        -0.4663 
     35 CA         25.0030  -27.0913  -43.9551 C.3       5 UNK         0.0242 
     36 CB         24.6516  -28.0862  -45.0748 C.3       5 UNK        -0.1982 
     37 C          25.6860  -27.8066  -42.7789 C.2       5 UNK         0.5017 
     38 O          26.8911  -27.6487  -42.5825 O.2       5 UNK        -0.5012 
     39 N          24.8790  -28.5481  -42.0138 N.am      6 UNK        -0.4439 
     40 CA         25.2056  -29.2915  -40.8026 C.3       6 UNK         0.0297 
     41 CB         26.2871  -30.3602  -41.0689 C.3       6 UNK        -0.2006 
     42 C          23.9080  -29.9464  -40.3124 C.2       6 UNK         0.4892 
     43 O          22.9270  -30.0014  -41.0640 O.2       6 UNK        -0.5089 
     44 N          23.9326  -30.4509  -39.0720 N.am      7 UNK        -0.4243 
     45 CA         22.8574  -31.2489  -38.4815 C.3       7 UNK         0.0196 
     46 CB         23.1673  -31.5167  -36.9996 C.3       7 UNK        -0.2007 
     47 C          22.6753  -32.5634  -39.2586 C.2       7 UNK         0.5020 
     48 O          23.6282  -33.3377  -39.3617 O.2       7 UNK        -0.5147 
     49 N          21.4709  -32.7600  -39.8113 N.am      8 UNK        -0.4734 
     50 CA         21.0883  -33.8375  -40.7356 C.3       8 UNK         0.0238 
     51 CB         21.1754  -35.2220  -40.0568 C.3       8 UNK        -0.1912 
     52 C          21.8324  -33.7763  -42.0884 C.2       8 UNK         0.5038 
     53 O          22.0352  -34.8155  -42.7198 O.2       8 UNK        -0.5046 
     54 N          22.1821  -32.5545  -42.5161 N.am      9 UNK        -0.4200 
     55 CA         22.8577  -32.2030  -43.7759 C.3       9 UNK         0.0839 
     56 C          24.3689  -32.5697  -43.7991 C.2       9 UNK         0.5513 
     57 N          25.1011  -32.0957  -44.7990 N.am      9 UNK        -0.7519 
     58 O          24.8954  -33.2638  -42.9328 O.2       9 UNK        -0.4960 
     59 C59        22.1249  -32.6915  -45.0670 C.3       10 UNK        -0.0876 
     60 S60        20.3073  -32.5104  -45.0615 S.3       10 UNK        -0.2414 
     61 C61        20.0910  -30.7075  -45.1059 C.3       10 UNK         0.0169 
     62 H62        22.2270  -26.2000  -46.4233 H         1 UNK         0.0903 
     63 H63        21.8991  -27.9235  -46.6439 H         1 UNK         0.0903 
     64 H64        21.0883  -26.7318  -47.6617 H         1 UNK         0.0903 
     65 H65        18.9525  -26.4390  -47.0513 H         1 UNK         0.3096 
     66 H66        18.0204  -27.2243  -44.4469 H         1 UNK         0.1121 
     67 H67        16.7939  -27.5247  -46.7482 H         1 UNK         0.0849 
     68 H68        16.3498  -25.8531  -46.6180 H         1 UNK         0.0849 
     69 H69        14.4247  -29.4438  -44.5146 H         1 UNK         0.0865 
     70 H70        15.2936  -29.4012  -46.0250 H         1 UNK         0.0865 
     71 H71        17.6749  -29.8717  -46.0753 H         1 UNK         0.1346 
     72 H72        19.7642  -30.6877  -42.4426 H         1 UNK         0.1412 
     73 H73        15.7088  -29.2695  -42.3115 H         1 UNK         0.1426 
     74 H74        17.1165  -30.8239  -40.3298 H         1 UNK         0.0716 
     75 H75        17.2261  -29.0821  -40.2831 H         1 UNK         0.0716 
     76 H76        20.8476  -28.4668  -39.0599 H         1 UNK         0.0695 
     77 H77        19.2384  -27.8159  -39.1109 H         1 UNK         0.0695 
     78 H78        20.7329  -28.4768  -41.6942 H         1 UNK         0.0983 
     79 H79        18.8677  -27.7341  -42.5860 H         1 UNK         0.3095 
     80 H80        16.8002  -26.8202  -42.7544 H         1 UNK         0.0454 
     81 H81        15.6053  -26.0640  -40.7323 H         1 UNK         0.0851 
     82 H82        16.1324  -24.4096  -41.0095 H         1 UNK         0.0851 
     83 H83        15.0584  -25.2021  -42.1604 H         1 UNK         0.0851 
     84 H84        17.5884  -23.9533  -42.9024 H         1 UNK         0.2976 
     85 H85        20.9393  -26.1180  -42.8805 H         1 UNK         0.3116 
     86 H86        22.6017  -24.2546  -41.3051 H         1 UNK         0.0646 
     87 H87        22.5431  -22.9151  -43.4072 H         1 UNK         0.0847 
     88 H88        20.9168  -23.3480  -42.9044 H         1 UNK         0.0847 
     89 H89        21.6861  -24.2073  -44.2365 H         1 UNK         0.0847 
     90 H90        22.9022  -26.7860  -43.7686 H         1 UNK         0.3040 
     91 H91        25.7107  -26.3613  -44.3551 H         1 UNK         0.1015 
     92 H92        24.3178  -27.5655  -45.9717 H         1 UNK         0.0786 
     93 H93        23.8666  -28.7816  -44.7753 H         1 UNK         0.0786 
     94 H94        25.5230  -28.6792  -45.3567 H         1 UNK         0.0786 
     95 H95        23.8975  -28.6168  -42.2539 H         1 UNK         0.3172 
     96 H96        25.5519  -28.5887  -40.0426 H         1 UNK         0.0595 
     97 H97        26.4416  -31.0001  -40.1995 H         1 UNK         0.0839 
     98 H98        27.2518  -29.9101  -41.3009 H         1 UNK         0.0839 
     99 H99        26.0143  -31.0068  -41.9017 H         1 UNK         0.0839 
    100 H100       24.7860  -30.3821  -38.5370 H         1 UNK         0.2998 
    101 H101       21.9381  -30.6643  -38.5341 H         1 UNK         0.0822 
    102 H102       24.0951  -32.0767  -36.8745 H         1 UNK         0.0787 
    103 H103       23.2570  -30.5865  -36.4380 H         1 UNK         0.0787 
    104 H104       22.3701  -32.0992  -36.5358 H         1 UNK         0.0787 
    105 H105       20.7680  -32.0428  -39.6729 H         1 UNK         0.3055 
    106 H106       20.0383  -33.6631  -40.9776 H         1 UNK         0.1106 
    107 H107       22.2072  -35.5170  -39.8649 H         1 UNK         0.0828 
    108 H108       20.6393  -35.2343  -39.1079 H         1 UNK         0.0828 
    109 H109       20.7323  -35.9938  -40.6873 H         1 UNK         0.0828 
    110 H110       22.0605  -31.7776  -41.8778 H         1 UNK         0.2931 
    111 H111       22.8395  -31.1131  -43.7786 H         1 UNK         0.0412 
    112 H112       26.0826  -32.3235  -44.8314 H         1 UNK         0.3472 
    113 H113       24.6991  -31.5227  -45.5233 H         1 UNK         0.3472 
    114 H114       22.5121  -32.1718  -45.9447 H         1 UNK         0.0970 
    115 H115       22.3361  -33.7494  -45.2341 H         1 UNK         0.0970 
    116 H116       20.9520  -30.2003  -44.6709 H         1 UNK         0.0612 
    117 H117       20.0304  -30.3767  -46.1437 H         1 UNK         0.0612 
@<TRIPOS>BOND
     1    1    2 1    
     2    1   62 1    
     3    1   63 1    
     4    1   64 1    
     5    2    3 2    
     6    2    4 am   BACKBONE|DICT|INTERRES
     7    4    5 1    
     8    4   65 1    
     9    5    6 1    
    10    5   25 1    
    11    5   66 1    
    12    6    7 1    
    13    6   67 1    
    14    6   68 1    
    15    7    8 1    
    16    8    9 1    
    17    8   69 1    
    18    8   70 1    
    19    9   10 ar   
    20    9   14 ar   
    21   10   11 ar   
    22   10   71 1    
    23   11   12 ar   
    24   11   61 1    
    25   12   13 ar   
    26   12   72 1    
    27   13   14 ar   
    28   13   15 1    
    29   14   73 1    
    30   15   16 1    
    31   15   74 1    
    32   15   75 1    
    33   16   17 1    
    34   17   18 1    
    35   17   76 1    
    36   17   77 1    
    37   18   19 1    
    38   18   27 1    
    39   18   78 1    
    40   19   20 am   BACKBONE|DICT|INTERRES
    41   19   79 1    
    42   20   21 2    
    43   20   22 1    
    44   22   23 1    
    45   22   24 1    
    46   22   80 1    
    47   23   81 1    
    48   23   82 1    
    49   23   83 1    
    50   24   25 am   BACKBONE|DICT|INTERRES
    51   24   84 1    
    52   25   26 2    
    53   27   28 2    
    54   27   29 am   BACKBONE|DICT|INTERRES
    55   29   30 1    
    56   29   85 1    
    57   30   31 1    
    58   30   32 1    
    59   30   86 1    
    60   31   87 1    
    61   31   88 1    
    62   31   89 1    
    63   32   33 2    
    64   32   34 am   BACKBONE|DICT|INTERRES
    65   34   35 1    
    66   34   90 1    
    67   35   36 1    
    68   35   37 1    
    69   35   91 1    
    70   36   92 1    
    71   36   93 1    
    72   36   94 1    
    73   37   38 2    
    74   37   39 am   BACKBONE|DICT|INTERRES
    75   39   40 1    
    76   39   95 1    
    77   40   41 1    
    78   40   42 1    
    79   40   96 1    
    80   41   97 1    
    81   41   98 1    
    82   41   99 1    
    83   42   43 2    
    84   42   44 am   BACKBONE|DICT|INTERRES
    85   44   45 1    
    86   44  100 1    
    87   45   46 1    
    88   45   47 1    
    89   45  101 1    
    90   46  102 1    
    91   46  103 1    
    92   46  104 1    
    93   47   48 2    
    94   47   49 am   BACKBONE|DICT|INTERRES
    95   49   50 1    
    96   49  105 1    
    97   50   51 1    
    98   50   52 1    
    99   50  106 1    
   100   51  107 1    
   101   51  108 1    
   102   51  109 1    
   103   52   53 2    
   104   52   54 am   BACKBONE|DICT|INTERRES
   105   54   55 1    
   106   54  110 1    
   107   55   56 1    
   108   55   59 1    
   109   55  111 1    
   110   56   57 am   BACKBONE|DICT|INTERRES
   111   56   58 2    
   112   57  112 1    
   113   57  113 1    
   114   59   60 1    
   115   59  114 1    
   116   59  115 1    
   117   60   61 1    
   118   61  116 1    
   119   61  117 1    
@<TRIPOS>SUBSTRUCTURE
     1 UNK         1 GROUP             0       ****    0 ROOT    
