@<TRIPOS>MOLECULE
3R8
117   119    1
SMALL
USER_CHARGES


@<TRIPOS>ATOM
      1 CA         24.6307  -28.8187  -46.2190 C.3       0 UNK        -0.2013 
      2 C          23.2124  -28.2992  -46.4059 C.2       0 UNK         0.4866 
      3 O          23.0013  -27.3818  -47.1995 O.2       0 UNK        -0.5176 
      4 N          22.2471  -28.8821  -45.6817 N.am      1 UNK        -0.4884 
      5 CA         20.8237  -28.5233  -45.6707 C.3       1 UNK         0.0853 
      6 C6         20.0864  -28.8338  -47.0073 C.3       10 UNK        -0.0849 
      7 S7         19.9812  -30.6280  -47.3134 S.3       10 UNK        -0.2776 
      8 C8         18.1928  -30.9381  -47.0882 C.3       10 UNK         0.0316 
      9 C9         17.6828  -30.5736  -45.6958 C.ar      10 UNK        -0.0863 
     10 C10        18.3128  -31.0834  -44.5572 C.ar      10 UNK        -0.1009 
     11 C11        17.8531  -30.7538  -43.2800 C.ar      10 UNK        -0.0712 
     12 C12        16.7248  -29.9399  -43.1423 C.ar      10 UNK        -0.0894 
     13 C13        16.0717  -29.4333  -44.2708 C.ar      10 UNK        -0.0745 
     14 C14        16.5610  -29.7491  -45.5443 C.ar      10 UNK        -0.0972 
     15 C15        14.8091  -28.5894  -44.1192 C.3       10 UNK         0.0209 
     16 S16        15.0638  -26.8441  -44.5816 S.3       10 UNK        -0.2568 
     17 C17        15.6471  -26.0822  -43.0235 C.3       10 UNK        -0.0983 
     18 CA         17.1494  -26.3413  -42.7433 C.3       3 UNK         0.0876 
     19 N          18.0169  -26.0594  -43.8894 N.am      3 UNK        -0.4424 
     20 C          18.3994  -24.8706  -44.3758 C.2       2 UNK         0.4918 
     21 O          17.9905  -23.7891  -43.9519 O.2       2 UNK        -0.4875 
     22 CA         19.4196  -24.8924  -45.5369 C.3       2 UNK         0.0481 
     23 CB         20.5993  -23.9339  -45.2722 C.3       2 UNK        -0.1831 
     24 N          19.9024  -26.2382  -45.8955 N.am      2 UNK        -0.4498 
     25 C          20.6182  -27.0881  -45.1385 C.2       1 UNK         0.5027 
     26 O          21.0400  -26.8068  -44.0153 O.2       1 UNK        -0.4969 
     27 C          17.6775  -25.6981  -41.4413 C.2       3 UNK         0.5005 
     28 O          16.9012  -25.1835  -40.6334 O.2       3 UNK        -0.5279 
     29 N          19.0052  -25.7453  -41.2799 N.am      4 UNK        -0.4463 
     30 CA         19.7682  -25.2583  -40.1352 C.3       4 UNK         0.0283 
     31 CB         20.6483  -24.0862  -40.6086 C.3       4 UNK        -0.1875 
     32 C          20.6205  -26.4114  -39.5835 C.2       4 UNK         0.4949 
     33 O          20.5601  -27.5285  -40.1022 O.2       4 UNK        -0.5039 
     34 N          21.4298  -26.1291  -38.5550 N.am      5 UNK        -0.4663 
     35 CA         22.3576  -27.0747  -37.9193 C.3       5 UNK         0.0242 
     36 CB         22.7159  -26.5486  -36.5163 C.3       5 UNK        -0.1982 
     37 C          23.6071  -27.3722  -38.7806 C.2       5 UNK         0.5017 
     38 O          24.7358  -27.2328  -38.3046 O.2       5 UNK        -0.5012 
     39 N          23.3823  -27.7638  -40.0395 N.am      6 UNK        -0.4439 
     40 CA         24.3985  -28.2056  -40.9920 C.3       6 UNK         0.0297 
     41 CB         23.8056  -28.1373  -42.4090 C.3       6 UNK        -0.2006 
     42 C          24.8601  -29.6363  -40.6774 C.2       6 UNK         0.4892 
     43 O          24.0999  -30.4108  -40.0927 O.2       6 UNK        -0.5089 
     44 N          26.0752  -29.9834  -41.1245 N.am      7 UNK        -0.4243 
     45 CA         26.6862  -31.3083  -40.9473 C.3       7 UNK         0.0196 
     46 CB         28.1164  -31.2915  -41.5102 C.3       7 UNK        -0.2007 
     47 C          25.8753  -32.4588  -41.5722 C.2       7 UNK         0.5020 
     48 O          25.8523  -33.5569  -41.0164 O.2       7 UNK        -0.5147 
     49 N          25.1866  -32.1745  -42.6870 N.am      8 UNK        -0.4734 
     50 CA         24.2684  -33.0977  -43.3629 C.3       8 UNK         0.0238 
     51 CB         23.8782  -32.5121  -44.7300 C.3       8 UNK        -0.1912 
     52 C          23.0039  -33.4269  -42.5459 C.2       8 UNK         0.5038 
     53 O          22.3901  -34.4653  -42.7946 O.2       8 UNK        -0.5046 
     54 N          22.6411  -32.5519  -41.5989 N.am      9 UNK        -0.4200 
     55 CA         21.5120  -32.7279  -40.6752 C.3       9 UNK         0.0839 
     56 C          21.8943  -33.4870  -39.3712 C.2       9 UNK         0.5513 
     57 N          23.1431  -33.8943  -39.1689 N.am      9 UNK        -0.7519 
     58 O          21.0332  -33.7294  -38.5295 O.2       9 UNK        -0.4960 
     59 C59        20.8040  -31.3805  -40.3667 C.3       10 UNK        -0.0876 
     60 S60        20.2141  -30.5287  -41.8690 S.3       10 UNK        -0.2414 
     61 C61        18.5739  -31.2922  -42.0550 C.3       10 UNK         0.0169 
     62 H62        24.6834  -29.6147  -45.4778 H         1 UNK         0.0903 
     63 H63        25.0133  -29.2087  -47.1619 H         1 UNK         0.0903 
     64 H64        25.2855  -28.0104  -45.8944 H         1 UNK         0.0903 
     65 H65        22.4955  -29.6164  -45.0365 H         1 UNK         0.3096 
     66 H66        20.3725  -29.1527  -44.9018 H         1 UNK         0.1121 
     67 H67        19.0681  -28.4421  -47.0022 H         1 UNK         0.0849 
     68 H68        20.5890  -28.3641  -47.8542 H         1 UNK         0.0849 
     69 H69        17.9961  -31.9963  -47.2654 H         1 UNK         0.0865 
     70 H70        17.6430  -30.3936  -47.8576 H         1 UNK         0.0865 
     71 H71        19.1772  -31.7252  -44.6631 H         1 UNK         0.1346 
     72 H72        16.3518  -29.7046  -42.1548 H         1 UNK         0.1412 
     73 H73        16.0534  -29.3615  -46.4174 H         1 UNK         0.1426 
     74 H74        14.4152  -28.6483  -43.1035 H         1 UNK         0.0716 
     75 H75        14.0343  -29.0055  -44.7647 H         1 UNK         0.0716 
     76 H76        15.0320  -26.4483  -42.1996 H         1 UNK         0.0695 
     77 H77        15.4600  -25.0090  -43.0894 H         1 UNK         0.0695 
     78 H78        17.2578  -27.4083  -42.5627 H         1 UNK         0.0983 
     79 H79        18.4002  -26.8758  -44.3389 H         1 UNK         0.3095 
     80 H80        18.8856  -24.5241  -46.4138 H         1 UNK         0.0454 
     81 H81        21.3163  -23.9500  -46.0928 H         1 UNK         0.0851 
     82 H82        21.1324  -24.1869  -44.3553 H         1 UNK         0.0851 
     83 H83        20.2512  -22.9057  -45.1676 H         1 UNK         0.0851 
     84 H84        19.6121  -26.5600  -46.8085 H         1 UNK         0.2976 
     85 H85        19.5523  -26.2513  -41.9660 H         1 UNK         0.3116 
     86 H86        19.1005  -24.9187  -39.3409 H         1 UNK         0.0646 
     87 H87        21.1873  -23.6276  -39.7793 H         1 UNK         0.0847 
     88 H88        20.0455  -23.3027  -41.0687 H         1 UNK         0.0847 
     89 H89        21.3877  -24.4089  -41.3434 H         1 UNK         0.0847 
     90 H90        21.4451  -25.1840  -38.1989 H         1 UNK         0.3040 
     91 H91        21.8393  -28.0277  -37.7894 H         1 UNK         0.1015 
     92 H92        21.8242  -26.4073  -35.9052 H         1 UNK         0.0786 
     93 H93        23.2451  -25.5961  -36.5651 H         1 UNK         0.0786 
     94 H94        23.3587  -27.2528  -35.9860 H         1 UNK         0.0786 
     95 H95        22.4101  -27.8720  -40.3186 H         1 UNK         0.3172 
     96 H96        25.2564  -27.5326  -40.9313 H         1 UNK         0.0595 
     97 H97        22.9416  -28.7950  -42.5183 H         1 UNK         0.0839 
     98 H98        24.5405  -28.4293  -43.1591 H         1 UNK         0.0839 
     99 H99        23.4819  -27.1255  -42.6546 H         1 UNK         0.0839 
    100 H100       26.6328  -29.2895  -41.6022 H         1 UNK         0.2998 
    101 H101       26.7429  -31.5001  -39.8736 H         1 UNK         0.0822 
    102 H102       28.1287  -31.0714  -42.5785 H         1 UNK         0.0787 
    103 H103       28.7335  -30.5477  -41.0057 H         1 UNK         0.0787 
    104 H104       28.6014  -32.2590  -41.3713 H         1 UNK         0.0787 
    105 H105       25.2728  -31.2464  -43.0733 H         1 UNK         0.3055 
    106 H106       24.7994  -34.0380  -43.5284 H         1 UNK         0.1106 
    107 H107       23.2462  -33.2076  -45.2845 H         1 UNK         0.0828 
    108 H108       24.7553  -32.3144  -45.3465 H         1 UNK         0.0828 
    109 H109       23.3181  -31.5834  -44.6241 H         1 UNK         0.0828 
    110 H110       23.2318  -31.7518  -41.4062 H         1 UNK         0.2931 
    111 H111       20.7713  -33.3630  -41.1643 H         1 UNK         0.0412 
    112 H112       23.3678  -34.3897  -38.3206 H         1 UNK         0.3472 
    113 H113       23.8660  -33.7081  -39.8501 H         1 UNK         0.3472 
    114 H114       19.9567  -31.5312  -39.6953 H         1 UNK         0.0970 
    115 H115       21.4811  -30.7054  -39.8409 H         1 UNK         0.0970 
    116 H116       18.6845  -32.3735  -42.1475 H         1 UNK         0.0612 
    117 H117       17.9886  -31.1122  -41.1520 H         1 UNK         0.0612 
@<TRIPOS>BOND
     1    1    2 1    
     2    1   62 1    
     3    1   63 1    
     4    1   64 1    
     5    2    3 2    
     6    2    4 am   BACKBONE|DICT|INTERRES
     7    4    5 1    
     8    4   65 1    
     9    5    6 1    
    10    5   25 1    
    11    5   66 1    
    12    6    7 1    
    13    6   67 1    
    14    6   68 1    
    15    7    8 1    
    16    8    9 1    
    17    8   69 1    
    18    8   70 1    
    19    9   10 ar   
    20    9   14 ar   
    21   10   11 ar   
    22   10   71 1    
    23   11   12 ar   
    24   11   61 1    
    25   12   13 ar   
    26   12   72 1    
    27   13   14 ar   
    28   13   15 1    
    29   14   73 1    
    30   15   16 1    
    31   15   74 1    
    32   15   75 1    
    33   16   17 1    
    34   17   18 1    
    35   17   76 1    
    36   17   77 1    
    37   18   19 1    
    38   18   27 1    
    39   18   78 1    
    40   19   20 am   BACKBONE|DICT|INTERRES
    41   19   79 1    
    42   20   21 2    
    43   20   22 1    
    44   22   23 1    
    45   22   24 1    
    46   22   80 1    
    47   23   81 1    
    48   23   82 1    
    49   23   83 1    
    50   24   25 am   BACKBONE|DICT|INTERRES
    51   24   84 1    
    52   25   26 2    
    53   27   28 2    
    54   27   29 am   BACKBONE|DICT|INTERRES
    55   29   30 1    
    56   29   85 1    
    57   30   31 1    
    58   30   32 1    
    59   30   86 1    
    60   31   87 1    
    61   31   88 1    
    62   31   89 1    
    63   32   33 2    
    64   32   34 am   BACKBONE|DICT|INTERRES
    65   34   35 1    
    66   34   90 1    
    67   35   36 1    
    68   35   37 1    
    69   35   91 1    
    70   36   92 1    
    71   36   93 1    
    72   36   94 1    
    73   37   38 2    
    74   37   39 am   BACKBONE|DICT|INTERRES
    75   39   40 1    
    76   39   95 1    
    77   40   41 1    
    78   40   42 1    
    79   40   96 1    
    80   41   97 1    
    81   41   98 1    
    82   41   99 1    
    83   42   43 2    
    84   42   44 am   BACKBONE|DICT|INTERRES
    85   44   45 1    
    86   44  100 1    
    87   45   46 1    
    88   45   47 1    
    89   45  101 1    
    90   46  102 1    
    91   46  103 1    
    92   46  104 1    
    93   47   48 2    
    94   47   49 am   BACKBONE|DICT|INTERRES
    95   49   50 1    
    96   49  105 1    
    97   50   51 1    
    98   50   52 1    
    99   50  106 1    
   100   51  107 1    
   101   51  108 1    
   102   51  109 1    
   103   52   53 2    
   104   52   54 am   BACKBONE|DICT|INTERRES
   105   54   55 1    
   106   54  110 1    
   107   55   56 1    
   108   55   59 1    
   109   55  111 1    
   110   56   57 am   BACKBONE|DICT|INTERRES
   111   56   58 2    
   112   57  112 1    
   113   57  113 1    
   114   59   60 1    
   115   59  114 1    
   116   59  115 1    
   117   60   61 1    
   118   61  116 1    
   119   61  117 1    
@<TRIPOS>SUBSTRUCTURE
     1 UNK         1 GROUP             0       ****    0 ROOT    
