@<TRIPOS>MOLECULE
3R8
117   119    1
SMALL
USER_CHARGES


@<TRIPOS>ATOM
      1 CA         17.7119  -23.7482  -40.0658 C.3       0 UNK        -0.2013 
      2 C          17.2336  -24.2231  -41.4298 C.2       0 UNK         0.4866 
      3 O          16.0307  -24.2264  -41.6916 O.2       0 UNK        -0.5176 
      4 N          18.1660  -24.6223  -42.2992 N.am      1 UNK        -0.4884 
      5 CA         17.9251  -25.0977  -43.6593 C.3       1 UNK         0.0853 
      6 C6         17.3504  -26.5398  -43.6986 C.3       10 UNK        -0.0849 
      7 S7         16.3584  -26.8361  -45.1994 S.3       10 UNK        -0.2776 
      8 C8         15.5768  -28.4347  -44.7994 C.3       10 UNK         0.0316 
      9 C9         16.6028  -29.5485  -44.6402 C.ar      10 UNK        -0.0863 
     10 C10        16.7367  -30.2242  -43.4231 C.ar      10 UNK        -0.1009 
     11 C11        17.6957  -31.2310  -43.2736 C.ar      10 UNK        -0.0712 
     12 C12        18.5347  -31.5499  -44.3465 C.ar      10 UNK        -0.0894 
     13 C13        18.4054  -30.8858  -45.5701 C.ar      10 UNK        -0.0745 
     14 C14        17.4247  -29.9002  -45.7142 C.ar      10 UNK        -0.0972 
     15 C15        19.3140  -31.2406  -46.7402 C.3       10 UNK         0.0209 
     16 S16        20.1878  -29.7899  -47.4141 S.3       10 UNK        -0.2568 
     17 C17        21.3491  -29.4077  -46.0633 C.3       10 UNK        -0.0983 
     18 CA         22.0547  -28.0490  -46.2885 C.3       3 UNK         0.0876 
     19 N          21.1102  -26.9254  -46.2748 N.am      3 UNK        -0.4424 
     20 C          21.3955  -25.6890  -46.7053 C.2       2 UNK         0.4918 
     21 O          22.5033  -25.3511  -47.1234 O.2       2 UNK        -0.4875 
     22 CA         20.2604  -24.6475  -46.6944 C.3       2 UNK         0.0481 
     23 CB         19.6927  -24.4714  -48.1123 C.3       2 UNK        -0.1831 
     24 N          19.1541  -24.9260  -45.7718 N.am      2 UNK        -0.4498 
     25 C          19.2479  -24.9677  -44.4367 C.2       1 UNK         0.5027 
     26 O          20.3173  -24.9067  -43.8216 O.2       1 UNK        -0.4969 
     27 C          23.2319  -27.8749  -45.3060 C.2       3 UNK         0.5005 
     28 O          24.3224  -28.3653  -45.6026 O.2       3 UNK        -0.5279 
     29 N          23.0063  -27.1882  -44.1763 N.am      4 UNK        -0.4463 
     30 CA         23.9993  -26.8983  -43.1379 C.3       4 UNK         0.0283 
     31 CB         24.6781  -28.1614  -42.5644 C.3       4 UNK        -0.1875 
     32 C          23.4163  -25.9978  -42.0334 C.2       4 UNK         0.4949 
     33 O          23.9507  -24.9085  -41.8398 O.2       4 UNK        -0.5039 
     34 N          22.3426  -26.3697  -41.3158 N.am      5 UNK        -0.4663 
     35 CA         21.6082  -27.6406  -41.3179 C.3       5 UNK         0.0242 
     36 CB         20.1286  -27.3439  -41.0428 C.3       5 UNK        -0.1982 
     37 C          22.1302  -28.6514  -40.2867 C.2       5 UNK         0.5017 
     38 O          21.9672  -29.8488  -40.5089 O.2       5 UNK        -0.5012 
     39 N          22.7635  -28.1813  -39.2018 N.am      6 UNK        -0.4439 
     40 CA         23.1792  -28.9977  -38.0505 C.3       6 UNK         0.0297 
     41 CB         23.8585  -28.1014  -37.0026 C.3       6 UNK        -0.2006 
     42 C          24.0786  -30.1994  -38.3968 C.2       6 UNK         0.4892 
     43 O          23.8809  -31.2842  -37.8489 O.2       6 UNK        -0.5089 
     44 N          25.0225  -29.9916  -39.3239 N.am      7 UNK        -0.4243 
     45 CA         25.9306  -31.0263  -39.8264 C.3       7 UNK         0.0196 
     46 CB         27.1518  -30.3514  -40.4733 C.3       7 UNK        -0.2007 
     47 C          25.2715  -32.0074  -40.8155 C.2       7 UNK         0.5020 
     48 O          25.8384  -33.0737  -41.0557 O.2       7 UNK        -0.5147 
     49 N          24.1147  -31.6409  -41.3840 N.am      8 UNK        -0.4734 
     50 CA         23.3665  -32.4597  -42.3389 C.3       8 UNK         0.0238 
     51 CB         22.7347  -31.5593  -43.4162 C.3       8 UNK        -0.1912 
     52 C          22.2922  -33.2918  -41.6279 C.2       8 UNK         0.5038 
     53 O          22.1809  -34.4880  -41.8998 O.2       8 UNK        -0.5046 
     54 N          21.5205  -32.6474  -40.7432 N.am      9 UNK        -0.4200 
     55 CA         20.4057  -33.2675  -40.0103 C.3       9 UNK         0.0839 
     56 C          20.8471  -34.1665  -38.8221 C.2       9 UNK         0.5513 
     57 N          22.0553  -34.0187  -38.2915 N.am      9 UNK        -0.7519 
     58 O          20.0785  -35.0153  -38.3777 O.2       9 UNK        -0.4960 
     59 C59        19.3405  -32.2345  -39.5493 C.3       10 UNK        -0.0876 
     60 S60        18.8864  -31.0070  -40.8203 S.3       10 UNK        -0.2414 
     61 C61        17.8392  -31.9639  -41.9490 C.3       10 UNK         0.0169 
     62 H62        17.2675  -24.3582  -39.2798 H         1 UNK         0.0903 
     63 H63        18.7958  -23.8094  -39.9696 H         1 UNK         0.0903 
     64 H64        17.4144  -22.7126  -39.9032 H         1 UNK         0.0903 
     65 H65        19.1520  -24.5525  -42.0744 H         1 UNK         0.3096 
     66 H66        17.2096  -24.4069  -44.1123 H         1 UNK         0.1121 
     67 H67        18.1369  -27.2934  -43.6221 H         1 UNK         0.0849 
     68 H68        16.6947  -26.7102  -42.8434 H         1 UNK         0.0849 
     69 H69        14.9740  -28.3236  -43.8966 H         1 UNK         0.0865 
     70 H70        14.8845  -28.7009  -45.5992 H         1 UNK         0.0865 
     71 H71        16.1032  -29.9634  -42.5863 H         1 UNK         0.1346 
     72 H72        19.2878  -32.3167  -44.2257 H         1 UNK         0.1412 
     73 H73        17.3197  -29.3834  -46.6587 H         1 UNK         0.1426 
     74 H74        18.7078  -31.6835  -47.5315 H         1 UNK         0.0716 
     75 H75        20.0480  -31.9956  -46.4539 H         1 UNK         0.0716 
     76 H76        20.8175  -29.4134  -45.1096 H         1 UNK         0.0695 
     77 H77        22.0768  -30.2203  -46.0211 H         1 UNK         0.0695 
     78 H78        22.5020  -28.0737  -47.2852 H         1 UNK         0.0983 
     79 H79        20.1662  -27.1316  -45.9841 H         1 UNK         0.3095 
     80 H80        20.7044  -23.6977  -46.3894 H         1 UNK         0.0454 
     81 H81        20.4833  -24.2281  -48.8238 H         1 UNK         0.0851 
     82 H82        19.2048  -25.3802  -48.4671 H         1 UNK         0.0851 
     83 H83        18.9656  -23.6603  -48.1529 H         1 UNK         0.0851 
     84 H84        18.2390  -25.0310  -46.1888 H         1 UNK         0.2976 
     85 H85        22.1010  -26.7525  -44.0454 H         1 UNK         0.3116 
     86 H86        24.7828  -26.3103  -43.6207 H         1 UNK         0.0646 
     87 H87        25.1641  -27.9514  -41.6115 H         1 UNK         0.0847 
     88 H88        25.4544  -28.5287  -43.2353 H         1 UNK         0.0847 
     89 H89        23.9738  -28.9761  -42.4155 H         1 UNK         0.0847 
     90 H90        21.9993  -25.6899  -40.6531 H         1 UNK         0.3040 
     91 H91        21.6587  -28.1312  -42.2878 H         1 UNK         0.1015 
     92 H92        19.7103  -26.7277  -41.8327 H         1 UNK         0.0786 
     93 H93        19.9796  -26.8288  -40.0930 H         1 UNK         0.0786 
     94 H94        19.5378  -28.2580  -41.0142 H         1 UNK         0.0786 
     95 H95        22.8820  -27.1825  -39.1162 H         1 UNK         0.3172 
     96 H96        22.2676  -29.4018  -37.6053 H         1 UNK         0.0595 
     97 H97        24.1627  -28.6822  -36.1304 H         1 UNK         0.0839 
     98 H98        23.1841  -27.3217  -36.6482 H         1 UNK         0.0839 
     99 H99        24.7524  -27.6186  -37.3995 H         1 UNK         0.0839 
    100 H100       25.1186  -29.0651  -39.7109 H         1 UNK         0.2998 
    101 H101       26.2821  -31.6147  -38.9757 H         1 UNK         0.0822 
    102 H102       27.6579  -29.6870  -39.7725 H         1 UNK         0.0787 
    103 H103       27.8821  -31.0955  -40.7945 H         1 UNK         0.0787 
    104 H104       26.8768  -29.7693  -41.3528 H         1 UNK         0.0787 
    105 H105       23.6576  -30.7960  -41.0620 H         1 UNK         0.3055 
    106 H106       24.0445  -33.1530  -42.8424 H         1 UNK         0.1106 
    107 H107       22.1959  -32.1565  -44.1531 H         1 UNK         0.0828 
    108 H108       22.0227  -30.8485  -42.9957 H         1 UNK         0.0828 
    109 H109       23.4959  -30.9936  -43.9538 H         1 UNK         0.0828 
    110 H110       21.6537  -31.6494  -40.5976 H         1 UNK         0.2931 
    111 H111       19.9043  -33.9367  -40.7119 H         1 UNK         0.0412 
    112 H112       22.6728  -33.2874  -38.6132 H         1 UNK         0.3472 
    113 H113       22.3323  -34.6077  -37.5222 H         1 UNK         0.3472 
    114 H114       19.7125  -31.6749  -38.6888 H         1 UNK         0.0970 
    115 H115       18.4353  -32.7424  -39.2112 H         1 UNK         0.0970 
    116 H116       16.8613  -32.1238  -41.4928 H         1 UNK         0.0612 
    117 H117       18.2739  -32.9504  -42.1137 H         1 UNK         0.0612 
@<TRIPOS>BOND
     1    1    2 1    
     2    1   62 1    
     3    1   63 1    
     4    1   64 1    
     5    2    3 2    
     6    2    4 am   BACKBONE|DICT|INTERRES
     7    4    5 1    
     8    4   65 1    
     9    5    6 1    
    10    5   25 1    
    11    5   66 1    
    12    6    7 1    
    13    6   67 1    
    14    6   68 1    
    15    7    8 1    
    16    8    9 1    
    17    8   69 1    
    18    8   70 1    
    19    9   10 ar   
    20    9   14 ar   
    21   10   11 ar   
    22   10   71 1    
    23   11   12 ar   
    24   11   61 1    
    25   12   13 ar   
    26   12   72 1    
    27   13   14 ar   
    28   13   15 1    
    29   14   73 1    
    30   15   16 1    
    31   15   74 1    
    32   15   75 1    
    33   16   17 1    
    34   17   18 1    
    35   17   76 1    
    36   17   77 1    
    37   18   19 1    
    38   18   27 1    
    39   18   78 1    
    40   19   20 am   BACKBONE|DICT|INTERRES
    41   19   79 1    
    42   20   21 2    
    43   20   22 1    
    44   22   23 1    
    45   22   24 1    
    46   22   80 1    
    47   23   81 1    
    48   23   82 1    
    49   23   83 1    
    50   24   25 am   BACKBONE|DICT|INTERRES
    51   24   84 1    
    52   25   26 2    
    53   27   28 2    
    54   27   29 am   BACKBONE|DICT|INTERRES
    55   29   30 1    
    56   29   85 1    
    57   30   31 1    
    58   30   32 1    
    59   30   86 1    
    60   31   87 1    
    61   31   88 1    
    62   31   89 1    
    63   32   33 2    
    64   32   34 am   BACKBONE|DICT|INTERRES
    65   34   35 1    
    66   34   90 1    
    67   35   36 1    
    68   35   37 1    
    69   35   91 1    
    70   36   92 1    
    71   36   93 1    
    72   36   94 1    
    73   37   38 2    
    74   37   39 am   BACKBONE|DICT|INTERRES
    75   39   40 1    
    76   39   95 1    
    77   40   41 1    
    78   40   42 1    
    79   40   96 1    
    80   41   97 1    
    81   41   98 1    
    82   41   99 1    
    83   42   43 2    
    84   42   44 am   BACKBONE|DICT|INTERRES
    85   44   45 1    
    86   44  100 1    
    87   45   46 1    
    88   45   47 1    
    89   45  101 1    
    90   46  102 1    
    91   46  103 1    
    92   46  104 1    
    93   47   48 2    
    94   47   49 am   BACKBONE|DICT|INTERRES
    95   49   50 1    
    96   49  105 1    
    97   50   51 1    
    98   50   52 1    
    99   50  106 1    
   100   51  107 1    
   101   51  108 1    
   102   51  109 1    
   103   52   53 2    
   104   52   54 am   BACKBONE|DICT|INTERRES
   105   54   55 1    
   106   54  110 1    
   107   55   56 1    
   108   55   59 1    
   109   55  111 1    
   110   56   57 am   BACKBONE|DICT|INTERRES
   111   56   58 2    
   112   57  112 1    
   113   57  113 1    
   114   59   60 1    
   115   59  114 1    
   116   59  115 1    
   117   60   61 1    
   118   61  116 1    
   119   61  117 1    
@<TRIPOS>SUBSTRUCTURE
     1 UNK         1 GROUP             0       ****    0 ROOT    
