@<TRIPOS>MOLECULE
3R8
117   119    1
SMALL
USER_CHARGES


@<TRIPOS>ATOM
      1 CA         21.8263  -29.9092  -46.4539 C.3       0 UNK        -0.2013 
      2 C          20.6413  -29.1984  -45.8189 C.2       0 UNK         0.4866 
      3 O          20.5240  -29.1906  -44.5951 O.2       0 UNK        -0.5176 
      4 N          19.7710  -28.5873  -46.6387 N.am      1 UNK        -0.4884 
      5 CA         18.5547  -27.8834  -46.2002 C.3       1 UNK         0.0853 
      6 C6         17.5650  -27.6787  -47.3788 C.3       10 UNK        -0.0849 
      7 S7         15.8938  -27.1143  -46.8908 S.3       10 UNK        -0.2776 
      8 C8         15.0139  -28.6730  -46.5392 C.3       10 UNK         0.0316 
      9 C9         15.6196  -29.4336  -45.3661 C.ar      10 UNK        -0.0863 
     10 C10        16.2272  -30.6745  -45.5779 C.ar      10 UNK        -0.1009 
     11 C11        16.8041  -31.3751  -44.5152 C.ar      10 UNK        -0.0712 
     12 C12        16.7709  -30.8258  -43.2297 C.ar      10 UNK        -0.0894 
     13 C13        16.1706  -29.5828  -43.0025 C.ar      10 UNK        -0.0745 
     14 C14        15.5879  -28.8962  -44.0736 C.ar      10 UNK        -0.0972 
     15 C15        16.1270  -28.9970  -41.5954 C.3       10 UNK         0.0209 
     16 S16        17.3150  -27.6344  -41.3540 S.3       10 UNK        -0.2568 
     17 C17        18.9148  -28.5154  -41.4066 C.3       10 UNK        -0.0983 
     18 CA         20.1533  -27.5848  -41.5003 C.3       3 UNK         0.0876 
     19 N          20.0191  -26.6128  -42.5901 N.am      3 UNK        -0.4424 
     20 C          20.9995  -25.9004  -43.1569 C.2       2 UNK         0.4918 
     21 O          22.1394  -25.8422  -42.6975 O.2       2 UNK        -0.4875 
     22 CA         20.6475  -25.1573  -44.4659 C.3       2 UNK         0.0481 
     23 CB         21.8669  -24.4490  -45.0837 C.3       2 UNK        -0.1831 
     24 N          20.0826  -26.0872  -45.4500 N.am      2 UNK        -0.4498 
     25 C          18.8432  -26.5968  -45.3906 C.2       1 UNK         0.5027 
     26 O          17.9835  -26.1454  -44.6326 O.2       1 UNK        -0.4969 
     27 C          20.5538  -26.9697  -40.1424 C.2       3 UNK         0.5005 
     28 O          20.9837  -27.7046  -39.2525 O.2       3 UNK        -0.5279 
     29 N          20.4476  -25.6399  -40.0115 N.am      4 UNK        -0.4463 
     30 CA         20.9882  -24.8710  -38.8893 C.3       4 UNK         0.0283 
     31 CB         20.2890  -23.5030  -38.8344 C.3       4 UNK        -0.1875 
     32 C          22.5174  -24.6869  -38.9680 C.2       4 UNK         0.4949 
     33 O          23.1416  -24.4685  -37.9294 O.2       4 UNK        -0.5039 
     34 N          23.0885  -24.7532  -40.1797 N.am      5 UNK        -0.4663 
     35 CA         24.5167  -24.5652  -40.4475 C.3       5 UNK         0.0242 
     36 CB         24.6839  -23.5479  -41.5891 C.3       5 UNK        -0.1982 
     37 C          25.2130  -25.8868  -40.8059 C.2       5 UNK         0.5017 
     38 O          26.3482  -26.0992  -40.3773 O.2       5 UNK        -0.5012 
     39 N          24.5386  -26.7418  -41.5887 N.am      6 UNK        -0.4439 
     40 CA         25.0154  -28.0624  -42.0061 C.3       6 UNK         0.0297 
     41 CB         24.0617  -28.6352  -43.0690 C.3       6 UNK        -0.2006 
     42 C          25.1448  -29.0315  -40.8189 C.2       6 UNK         0.4892 
     43 O          24.3444  -28.9686  -39.8833 O.2       6 UNK        -0.5089 
     44 N          26.1440  -29.9205  -40.8918 N.am      7 UNK        -0.4243 
     45 CA         26.4577  -30.9022  -39.8487 C.3       7 UNK         0.0196 
     46 CB         27.8379  -31.5185  -40.1303 C.3       7 UNK        -0.2007 
     47 C          25.3985  -32.0077  -39.6960 C.2       7 UNK         0.5020 
     48 O          25.2183  -32.5165  -38.5891 O.2       7 UNK        -0.5147 
     49 N          24.7237  -32.3626  -40.7951 N.am      8 UNK        -0.4734 
     50 CA         23.6729  -33.3746  -40.8557 C.3       8 UNK         0.0238 
     51 CB         24.2903  -34.7871  -40.7962 C.3       8 UNK        -0.1912 
     52 C          22.8687  -33.1905  -42.1479 C.2       8 UNK         0.5038 
     53 O          23.3548  -32.5558  -43.0882 O.2       8 UNK        -0.5046 
     54 N          21.6734  -33.7839  -42.1742 N.am      9 UNK        -0.4200 
     55 CA         20.7836  -33.8925  -43.3317 C.3       9 UNK         0.0839 
     56 C          19.8358  -35.0989  -43.1081 C.2       9 UNK         0.5513 
     57 N          19.5538  -35.8759  -44.1439 N.am      9 UNK        -0.7519 
     58 O          19.3450  -35.3260  -42.0035 O.2       9 UNK        -0.4960 
     59 C59        20.0206  -32.5694  -43.6111 C.3       10 UNK        -0.0876 
     60 S60        19.1952  -32.5689  -45.2408 S.3       10 UNK        -0.2414 
     61 C61        17.4461  -32.7313  -44.7659 C.3       10 UNK         0.0169 
     62 H62        21.8396  -30.9553  -46.1479 H         1 UNK         0.0903 
     63 H63        21.7901  -29.8742  -47.5425 H         1 UNK         0.0903 
     64 H64        22.7581  -29.4489  -46.1266 H         1 UNK         0.0903 
     65 H65        19.9246  -28.6221  -47.6370 H         1 UNK         0.3096 
     66 H66        18.0833  -28.5525  -45.4809 H         1 UNK         0.1121 
     67 H67        17.9731  -26.9573  -48.0889 H         1 UNK         0.0849 
     68 H68        17.4532  -28.6115  -47.9340 H         1 UNK         0.0849 
     69 H69        14.9998  -29.2873  -47.4410 H         1 UNK         0.0865 
     70 H70        13.9717  -28.4447  -46.3117 H         1 UNK         0.0865 
     71 H71        16.2599  -31.0964  -46.5733 H         1 UNK         0.1346 
     72 H72        17.2104  -31.3664  -42.4034 H         1 UNK         0.1412 
     73 H73        15.1275  -27.9319  -43.9050 H         1 UNK         0.1426 
     74 H74        16.3126  -29.7699  -40.8479 H         1 UNK         0.0716 
     75 H75        15.1222  -28.6211  -41.3974 H         1 UNK         0.0716 
     76 H76        18.9089  -29.1659  -42.2825 H         1 UNK         0.0695 
     77 H77        18.9852  -29.1827  -40.5456 H         1 UNK         0.0695 
     78 H78        20.9949  -28.2242  -41.7723 H         1 UNK         0.0983 
     79 H79        19.1044  -26.5807  -43.0296 H         1 UNK         0.3095 
     80 H80        19.9045  -24.3951  -44.2234 H         1 UNK         0.0454 
     81 H81        22.6626  -25.1533  -45.3299 H         1 UNK         0.0851 
     82 H82        22.2840  -23.7158  -44.3922 H         1 UNK         0.0851 
     83 H83        21.5967  -23.9148  -45.9946 H         1 UNK         0.0851 
     84 H84        20.7405  -26.5477  -46.0623 H         1 UNK         0.2976 
     85 H85        20.0550  -25.1194  -40.7824 H         1 UNK         0.3116 
     86 H86        20.7657  -25.4033  -37.9619 H         1 UNK         0.0646 
     87 H87        19.2108  -23.6119  -38.7167 H         1 UNK         0.0847 
     88 H88        20.4726  -22.9171  -39.7359 H         1 UNK         0.0847 
     89 H89        20.6476  -22.9164  -37.9873 H         1 UNK         0.0847 
     90 H90        22.5125  -24.9881  -40.9808 H         1 UNK         0.3040 
     91 H91        25.0177  -24.1625  -39.5641 H         1 UNK         0.1015 
     92 H92        24.2489  -22.5837  -41.3254 H         1 UNK         0.0786 
     93 H93        24.2088  -23.8886  -42.5100 H         1 UNK         0.0786 
     94 H94        25.7388  -23.3780  -41.8091 H         1 UNK         0.0786 
     95 H95        23.6195  -26.4656  -41.9271 H         1 UNK         0.3172 
     96 H96        25.9996  -27.9288  -42.4602 H         1 UNK         0.0595 
     97 H97        23.0650  -28.8119  -42.6653 H         1 UNK         0.0839 
     98 H98        24.4261  -29.5894  -43.4520 H         1 UNK         0.0839 
     99 H99        23.9609  -27.9618  -43.9204 H         1 UNK         0.0839 
    100 H100       26.7501  -29.9082  -41.6999 H         1 UNK         0.2998 
    101 H101       26.5112  -30.3705  -38.8959 H         1 UNK         0.0822 
    102 H102       28.6170  -30.7562  -40.1521 H         1 UNK         0.0787 
    103 H103       28.1105  -32.2350  -39.3539 H         1 UNK         0.0787 
    104 H104       27.8574  -32.0487  -41.0834 H         1 UNK         0.0787 
    105 H105       24.8918  -31.8807  -41.6699 H         1 UNK         0.3055 
    106 H106       22.9984  -33.2307  -40.0083 H         1 UNK         0.1106 
    107 H107       23.5221  -35.5589  -40.8578 H         1 UNK         0.0828 
    108 H108       24.9873  -34.9544  -41.6184 H         1 UNK         0.0828 
    109 H109       24.8301  -34.9511  -39.8636 H         1 UNK         0.0828 
    110 H110       21.3528  -34.3009  -41.3655 H         1 UNK         0.2931 
    111 H111       21.4119  -34.1183  -44.1964 H         1 UNK         0.0412 
    112 H112       19.9337  -35.6791  -45.0571 H         1 UNK         0.3472 
    113 H113       18.9356  -36.6619  -44.0162 H         1 UNK         0.3472 
    114 H114       20.7191  -31.7316  -43.6124 H         1 UNK         0.0970 
    115 H115       19.3084  -32.3551  -42.8140 H         1 UNK         0.0970 
    116 H116       16.9163  -33.2437  -45.5703 H         1 UNK         0.0612 
    117 H117       17.3503  -33.3726  -43.8885 H         1 UNK         0.0612 
@<TRIPOS>BOND
     1    1    2 1    
     2    1   62 1    
     3    1   63 1    
     4    1   64 1    
     5    2    3 2    
     6    2    4 am   BACKBONE|DICT|INTERRES
     7    4    5 1    
     8    4   65 1    
     9    5    6 1    
    10    5   25 1    
    11    5   66 1    
    12    6    7 1    
    13    6   67 1    
    14    6   68 1    
    15    7    8 1    
    16    8    9 1    
    17    8   69 1    
    18    8   70 1    
    19    9   10 ar   
    20    9   14 ar   
    21   10   11 ar   
    22   10   71 1    
    23   11   12 ar   
    24   11   61 1    
    25   12   13 ar   
    26   12   72 1    
    27   13   14 ar   
    28   13   15 1    
    29   14   73 1    
    30   15   16 1    
    31   15   74 1    
    32   15   75 1    
    33   16   17 1    
    34   17   18 1    
    35   17   76 1    
    36   17   77 1    
    37   18   19 1    
    38   18   27 1    
    39   18   78 1    
    40   19   20 am   BACKBONE|DICT|INTERRES
    41   19   79 1    
    42   20   21 2    
    43   20   22 1    
    44   22   23 1    
    45   22   24 1    
    46   22   80 1    
    47   23   81 1    
    48   23   82 1    
    49   23   83 1    
    50   24   25 am   BACKBONE|DICT|INTERRES
    51   24   84 1    
    52   25   26 2    
    53   27   28 2    
    54   27   29 am   BACKBONE|DICT|INTERRES
    55   29   30 1    
    56   29   85 1    
    57   30   31 1    
    58   30   32 1    
    59   30   86 1    
    60   31   87 1    
    61   31   88 1    
    62   31   89 1    
    63   32   33 2    
    64   32   34 am   BACKBONE|DICT|INTERRES
    65   34   35 1    
    66   34   90 1    
    67   35   36 1    
    68   35   37 1    
    69   35   91 1    
    70   36   92 1    
    71   36   93 1    
    72   36   94 1    
    73   37   38 2    
    74   37   39 am   BACKBONE|DICT|INTERRES
    75   39   40 1    
    76   39   95 1    
    77   40   41 1    
    78   40   42 1    
    79   40   96 1    
    80   41   97 1    
    81   41   98 1    
    82   41   99 1    
    83   42   43 2    
    84   42   44 am   BACKBONE|DICT|INTERRES
    85   44   45 1    
    86   44  100 1    
    87   45   46 1    
    88   45   47 1    
    89   45  101 1    
    90   46  102 1    
    91   46  103 1    
    92   46  104 1    
    93   47   48 2    
    94   47   49 am   BACKBONE|DICT|INTERRES
    95   49   50 1    
    96   49  105 1    
    97   50   51 1    
    98   50   52 1    
    99   50  106 1    
   100   51  107 1    
   101   51  108 1    
   102   51  109 1    
   103   52   53 2    
   104   52   54 am   BACKBONE|DICT|INTERRES
   105   54   55 1    
   106   54  110 1    
   107   55   56 1    
   108   55   59 1    
   109   55  111 1    
   110   56   57 am   BACKBONE|DICT|INTERRES
   111   56   58 2    
   112   57  112 1    
   113   57  113 1    
   114   59   60 1    
   115   59  114 1    
   116   59  115 1    
   117   60   61 1    
   118   61  116 1    
   119   61  117 1    
@<TRIPOS>SUBSTRUCTURE
     1 UNK         1 GROUP             0       ****    0 ROOT    
