@<TRIPOS>MOLECULE
3R8
117   119    1
SMALL
USER_CHARGES


@<TRIPOS>ATOM
      1 CA         13.7344  -23.4508  -45.0266 C.3       0 UNK        -0.2013 
      2 C          14.8429  -24.2412  -44.3473 C.2       0 UNK         0.4866 
      3 O          15.0618  -24.0708  -43.1479 O.2       0 UNK        -0.5176 
      4 N          15.5378  -25.0971  -45.1110 N.am      1 UNK        -0.4884 
      5 CA         16.6416  -25.9671  -44.6760 C.3       1 UNK         0.0853 
      6 C6         16.2136  -27.0840  -43.6828 C.3       10 UNK        -0.0849 
      7 S7         14.8944  -28.1909  -44.2889 S.3       10 UNK        -0.2776 
      8 C8         15.6932  -29.1208  -45.6444 C.3       10 UNK         0.0316 
      9 C9         17.0988  -29.6183  -45.3203 C.ar      10 UNK        -0.0863 
     10 C10        17.3160  -30.5421  -44.2929 C.ar      10 UNK        -0.1009 
     11 C11        18.6051  -31.0160  -44.0264 C.ar      10 UNK        -0.0712 
     12 C12        19.6826  -30.5472  -44.7852 C.ar      10 UNK        -0.0894 
     13 C13        19.4824  -29.6269  -45.8191 C.ar      10 UNK        -0.0745 
     14 C14        18.1833  -29.1762  -46.0835 C.ar      10 UNK        -0.0972 
     15 C15        20.6683  -29.1892  -46.6783 C.3       10 UNK         0.0209 
     16 S16        20.5677  -27.4531  -47.2385 S.3       10 UNK        -0.2568 
     17 C17        22.1284  -26.7391  -46.6108 C.3       10 UNK        -0.0983 
     18 CA         21.9998  -26.0550  -45.2237 C.3       3 UNK         0.0876 
     19 N          20.8615  -25.1368  -45.1922 N.am      3 UNK        -0.4424 
     20 C          20.7577  -24.0171  -44.4688 C.2       2 UNK         0.4918 
     21 O          21.6487  -23.5887  -43.7359 O.2       2 UNK        -0.4875 
     22 CA         19.4133  -23.2640  -44.5630 C.3       2 UNK         0.0481 
     23 CB         19.5099  -22.1240  -45.5887 C.3       2 UNK        -0.1831 
     24 N          18.2638  -24.1215  -44.8955 N.am      2 UNK        -0.4498 
     25 C          17.8512  -25.1597  -44.1512 C.2       1 UNK         0.5027 
     26 O          18.4086  -25.4879  -43.1037 O.2       1 UNK        -0.4969 
     27 C          22.0049  -27.0852  -44.0699 C.2       3 UNK         0.5005 
     28 O          22.9198  -27.9092  -44.0320 O.2       3 UNK        -0.5279 
     29 N          21.0337  -27.0385  -43.1395 N.am      4 UNK        -0.4463 
     30 CA         20.8744  -27.9935  -42.0276 C.3       4 UNK         0.0283 
     31 CB         19.5924  -27.6786  -41.2413 C.3       4 UNK        -0.1875 
     32 C          22.0652  -28.1158  -41.0574 C.2       4 UNK         0.4949 
     33 O          22.1110  -29.0691  -40.2819 O.2       4 UNK        -0.5039 
     34 N          23.0202  -27.1788  -41.1211 N.am      5 UNK        -0.4663 
     35 CA         24.3131  -27.2628  -40.4405 C.3       5 UNK         0.0242 
     36 CB         25.0588  -25.9300  -40.6112 C.3       5 UNK        -0.1982 
     37 C          25.1878  -28.4360  -40.9269 C.2       5 UNK         0.5017 
     38 O          26.0288  -28.8998  -40.1560 O.2       5 UNK        -0.5012 
     39 N          24.9760  -28.9045  -42.1693 N.am      6 UNK        -0.4439 
     40 CA         25.6599  -30.0475  -42.7815 C.3       6 UNK         0.0297 
     41 CB         25.2103  -30.1888  -44.2457 C.3       6 UNK        -0.2006 
     42 C          25.4036  -31.3433  -41.9935 C.2       6 UNK         0.4892 
     43 O          24.3123  -31.9108  -42.0836 O.2       6 UNK        -0.5089 
     44 N          26.3990  -31.7363  -41.1833 N.am      7 UNK        -0.4243 
     45 CA         26.3974  -32.8671  -40.2428 C.3       7 UNK         0.0196 
     46 CB         26.3972  -34.2035  -41.0154 C.3       7 UNK        -0.2007 
     47 C          25.2691  -32.8072  -39.1900 C.2       7 UNK         0.5020 
     48 O          24.8977  -33.8468  -38.6441 O.2       7 UNK        -0.5147 
     49 N          24.7109  -31.6083  -38.9548 N.am      8 UNK        -0.4734 
     50 CA         23.5073  -31.3308  -38.1562 C.3       8 UNK         0.0238 
     51 CB         23.8123  -31.5062  -36.6532 C.3       8 UNK        -0.1912 
     52 C          22.2649  -32.1356  -38.6093 C.2       8 UNK         0.5038 
     53 O          21.4292  -32.4781  -37.7702 O.2       8 UNK        -0.5046 
     54 N          22.1897  -32.4601  -39.9104 N.am      9 UNK        -0.4200 
     55 CA         21.2257  -33.3915  -40.5248 C.3       9 UNK         0.0839 
     56 C          21.3847  -34.8786  -40.0753 C.2       9 UNK         0.5513 
     57 N          22.4761  -35.2792  -39.4337 N.am      9 UNK        -0.7519 
     58 O          20.5160  -35.7043  -40.3455 O.2       9 UNK        -0.4960 
     59 C59        19.7475  -32.9011  -40.4552 C.3       10 UNK        -0.0876 
     60 S60        19.4646  -31.3734  -41.4090 S.3       10 UNK        -0.2414 
     61 C61        18.8313  -32.0780  -42.9606 C.3       10 UNK         0.0169 
     62 H62        13.6445  -23.6972  -46.0844 H         1 UNK         0.0903 
     63 H63        12.7781  -23.6604  -44.5481 H         1 UNK         0.0903 
     64 H64        13.9302  -22.3821  -44.9430 H         1 UNK         0.0903 
     65 H65        15.2893  -25.1810  -46.0874 H         1 UNK         0.3096 
     66 H66        17.0064  -26.4616  -45.5767 H         1 UNK         0.1121 
     67 H67        15.8734  -26.6439  -42.7439 H         1 UNK         0.0849 
     68 H68        17.0675  -27.7078  -43.4190 H         1 UNK         0.0849 
     69 H69        15.0658  -29.9769  -45.8965 H         1 UNK         0.0865 
     70 H70        15.7040  -28.4889  -46.5337 H         1 UNK         0.0865 
     71 H71        16.4777  -30.9013  -43.7114 H         1 UNK         0.1346 
     72 H72        20.6773  -30.9200  -44.5811 H         1 UNK         0.1412 
     73 H73        18.0115  -28.4885  -46.8996 H         1 UNK         0.1426 
     74 H74        21.6004  -29.3492  -46.1346 H         1 UNK         0.0716 
     75 H75        20.7144  -29.8332  -47.5571 H         1 UNK         0.0716 
     76 H76        22.4422  -25.9895  -47.3388 H         1 UNK         0.0695 
     77 H77        22.9211  -27.4897  -46.6245 H         1 UNK         0.0695 
     78 H78        22.9069  -25.4641  -45.0778 H         1 UNK         0.0983 
     79 H79        20.0812  -25.4068  -45.7732 H         1 UNK         0.3095 
     80 H80        19.2197  -22.8233  -43.5829 H         1 UNK         0.0454 
     81 H81        18.6028  -21.5195  -45.5986 H         1 UNK         0.0851 
     82 H82        19.6750  -22.5010  -46.5988 H         1 UNK         0.0851 
     83 H83        20.3386  -21.4550  -45.3519 H         1 UNK         0.0851 
     84 H84        17.7481  -23.8925  -45.7334 H         1 UNK         0.2976 
     85 H85        20.3055  -26.3376  -43.2267 H         1 UNK         0.3116 
     86 H86        20.7562  -28.9774  -42.4830 H         1 UNK         0.0646 
     87 H87        18.7086  -27.8275  -41.8577 H         1 UNK         0.0847 
     88 H88        19.4834  -28.3381  -40.3790 H         1 UNK         0.0847 
     89 H89        19.5847  -26.6529  -40.8716 H         1 UNK         0.0847 
     90 H90        22.8964  -26.4240  -41.7798 H         1 UNK         0.3040 
     91 H91        24.1228  -27.4196  -39.3764 H         1 UNK         0.1015 
     92 H92        25.2615  -25.7119  -41.6606 H         1 UNK         0.0786 
     93 H93        26.0177  -25.9503  -40.0912 H         1 UNK         0.0786 
     94 H94        24.4866  -25.0987  -40.1987 H         1 UNK         0.0786 
     95 H95        24.2315  -28.4863  -42.7231 H         1 UNK         0.3172 
     96 H96        26.7313  -29.8367  -42.7791 H         1 UNK         0.0595 
     97 H97        24.1375  -30.3721  -44.3229 H         1 UNK         0.0839 
     98 H98        25.7190  -31.0220  -44.7321 H         1 UNK         0.0839 
     99 H99        25.4353  -29.2896  -44.8195 H         1 UNK         0.0839 
    100 H100       27.2228  -31.1506  -41.1461 H         1 UNK         0.2998 
    101 H101       27.3326  -32.8040  -39.6846 H         1 UNK         0.0822 
    102 H102       26.5410  -35.0485  -40.3407 H         1 UNK         0.0787 
    103 H103       25.4555  -34.3651  -41.5414 H         1 UNK         0.0787 
    104 H104       27.2021  -34.2383  -41.7495 H         1 UNK         0.0787 
    105 H105       25.0996  -30.8127  -39.4486 H         1 UNK         0.3055 
    106 H106       23.2627  -30.2809  -38.3191 H         1 UNK         0.1106 
    107 H107       24.6807  -30.9200  -36.3532 H         1 UNK         0.0828 
    108 H108       22.9730  -31.1735  -36.0413 H         1 UNK         0.0828 
    109 H109       24.0064  -32.5487  -36.3994 H         1 UNK         0.0828 
    110 H110       22.9260  -32.1375  -40.5294 H         1 UNK         0.2931 
    111 H111       21.5027  -33.4116  -41.5794 H         1 UNK         0.0412 
    112 H112       23.2241  -34.6335  -39.1990 H         1 UNK         0.3472 
    113 H113       22.5566  -36.2476  -39.1678 H         1 UNK         0.3472 
    114 H114       19.4435  -32.7285  -39.4225 H         1 UNK         0.0970 
    115 H115       19.0624  -33.6623  -40.8320 H         1 UNK         0.0970 
    116 H116       19.5398  -32.8197  -43.3328 H         1 UNK         0.0612 
    117 H117       17.9026  -32.6137  -42.7579 H         1 UNK         0.0612 
@<TRIPOS>BOND
     1    1    2 1    
     2    1   62 1    
     3    1   63 1    
     4    1   64 1    
     5    2    3 2    
     6    2    4 am   BACKBONE|DICT|INTERRES
     7    4    5 1    
     8    4   65 1    
     9    5    6 1    
    10    5   25 1    
    11    5   66 1    
    12    6    7 1    
    13    6   67 1    
    14    6   68 1    
    15    7    8 1    
    16    8    9 1    
    17    8   69 1    
    18    8   70 1    
    19    9   10 ar   
    20    9   14 ar   
    21   10   11 ar   
    22   10   71 1    
    23   11   12 ar   
    24   11   61 1    
    25   12   13 ar   
    26   12   72 1    
    27   13   14 ar   
    28   13   15 1    
    29   14   73 1    
    30   15   16 1    
    31   15   74 1    
    32   15   75 1    
    33   16   17 1    
    34   17   18 1    
    35   17   76 1    
    36   17   77 1    
    37   18   19 1    
    38   18   27 1    
    39   18   78 1    
    40   19   20 am   BACKBONE|DICT|INTERRES
    41   19   79 1    
    42   20   21 2    
    43   20   22 1    
    44   22   23 1    
    45   22   24 1    
    46   22   80 1    
    47   23   81 1    
    48   23   82 1    
    49   23   83 1    
    50   24   25 am   BACKBONE|DICT|INTERRES
    51   24   84 1    
    52   25   26 2    
    53   27   28 2    
    54   27   29 am   BACKBONE|DICT|INTERRES
    55   29   30 1    
    56   29   85 1    
    57   30   31 1    
    58   30   32 1    
    59   30   86 1    
    60   31   87 1    
    61   31   88 1    
    62   31   89 1    
    63   32   33 2    
    64   32   34 am   BACKBONE|DICT|INTERRES
    65   34   35 1    
    66   34   90 1    
    67   35   36 1    
    68   35   37 1    
    69   35   91 1    
    70   36   92 1    
    71   36   93 1    
    72   36   94 1    
    73   37   38 2    
    74   37   39 am   BACKBONE|DICT|INTERRES
    75   39   40 1    
    76   39   95 1    
    77   40   41 1    
    78   40   42 1    
    79   40   96 1    
    80   41   97 1    
    81   41   98 1    
    82   41   99 1    
    83   42   43 2    
    84   42   44 am   BACKBONE|DICT|INTERRES
    85   44   45 1    
    86   44  100 1    
    87   45   46 1    
    88   45   47 1    
    89   45  101 1    
    90   46  102 1    
    91   46  103 1    
    92   46  104 1    
    93   47   48 2    
    94   47   49 am   BACKBONE|DICT|INTERRES
    95   49   50 1    
    96   49  105 1    
    97   50   51 1    
    98   50   52 1    
    99   50  106 1    
   100   51  107 1    
   101   51  108 1    
   102   51  109 1    
   103   52   53 2    
   104   52   54 am   BACKBONE|DICT|INTERRES
   105   54   55 1    
   106   54  110 1    
   107   55   56 1    
   108   55   59 1    
   109   55  111 1    
   110   56   57 am   BACKBONE|DICT|INTERRES
   111   56   58 2    
   112   57  112 1    
   113   57  113 1    
   114   59   60 1    
   115   59  114 1    
   116   59  115 1    
   117   60   61 1    
   118   61  116 1    
   119   61  117 1    
@<TRIPOS>SUBSTRUCTURE
     1 UNK         1 GROUP             0       ****    0 ROOT    
