@<TRIPOS>MOLECULE
3R8
117   119    1
SMALL
USER_CHARGES


@<TRIPOS>ATOM
      1 CA         17.6891  -25.7632  -48.7612 C.3       0 UNK        -0.2013 
      2 C          17.9408  -26.6246  -47.5327 C.2       0 UNK         0.4866 
      3 O          18.6685  -27.6133  -47.6186 O.2       0 UNK        -0.5176 
      4 N          17.3387  -26.2601  -46.3940 N.am      1 UNK        -0.4884 
      5 CA         17.4869  -26.9393  -45.1031 C.3       1 UNK         0.0853 
      6 C6         16.3767  -26.5180  -44.1089 C.3       10 UNK        -0.0849 
      7 S7         14.7429  -27.1047  -44.6745 S.3       10 UNK        -0.2776 
      8 C8         14.3126  -28.3587  -43.4199 C.3       10 UNK         0.0316 
      9 C9         15.4199  -29.3772  -43.1657 C.ar      10 UNK        -0.0863 
     10 C10        15.9646  -30.1246  -44.2166 C.ar      10 UNK        -0.1009 
     11 C11        16.9809  -31.0530  -43.9725 C.ar      10 UNK        -0.0712 
     12 C12        17.4268  -31.2572  -42.6647 C.ar      10 UNK        -0.0894 
     13 C13        16.8816  -30.5290  -41.6045 C.ar      10 UNK        -0.0745 
     14 C14        15.8860  -29.5831  -41.8626 C.ar      10 UNK        -0.0972 
     15 C15        17.3325  -30.8055  -40.1774 C.3       10 UNK         0.0209 
     16 S16        19.1186  -30.5519  -39.9491 S.3       10 UNK        -0.2568 
     17 C17        19.2299  -28.7421  -39.8018 C.3       10 UNK        -0.0983 
     18 CA         20.5376  -28.2120  -40.4394 C.3       3 UNK         0.0876 
     19 N          20.4384  -28.1046  -41.9019 N.am      3 UNK        -0.4424 
     20 C          21.4476  -27.7389  -42.7067 C.2       2 UNK         0.4918 
     21 O          22.5880  -27.5229  -42.3011 O.2       2 UNK        -0.4875 
     22 CA         21.1731  -27.5886  -44.2126 C.3       2 UNK         0.0481 
     23 CB         21.9673  -28.6314  -45.0101 C.3       2 UNK        -0.1831 
     24 N          19.7601  -27.6881  -44.5820 N.am      2 UNK        -0.4498 
     25 C          18.8904  -26.6712  -44.5309 C.2       1 UNK         0.5027 
     26 O          19.1622  -25.5526  -44.0903 O.2       1 UNK        -0.4969 
     27 C          20.9646  -26.8801  -39.7851 C.2       3 UNK         0.5005 
     28 O          20.6201  -25.8052  -40.2824 O.2       3 UNK        -0.5279 
     29 N          21.7333  -26.9893  -38.6921 N.am      4 UNK        -0.4463 
     30 CA         22.3905  -25.9273  -37.9146 C.3       4 UNK         0.0283 
     31 CB         21.3982  -24.8581  -37.4158 C.3       4 UNK        -0.1875 
     32 C          23.5961  -25.2914  -38.6305 C.2       4 UNK         0.4949 
     33 O          24.6051  -25.0297  -37.9755 O.2       4 UNK        -0.5039 
     34 N          23.4994  -25.0841  -39.9504 N.am      5 UNK        -0.4663 
     35 CA         24.6117  -24.6662  -40.8093 C.3       5 UNK         0.0242 
     36 CB         24.0595  -24.1744  -42.1571 C.3       5 UNK        -0.1982 
     37 C          25.6371  -25.7954  -41.0190 C.2       5 UNK         0.5017 
     38 O          26.8375  -25.5259  -41.0733 O.2       5 UNK        -0.5012 
     39 N          25.1413  -27.0324  -41.1151 N.am      6 UNK        -0.4439 
     40 CA         25.8930  -28.2738  -41.2436 C.3       6 UNK         0.0297 
     41 CB         26.0490  -28.6131  -42.7378 C.3       6 UNK        -0.2006 
     42 C          25.1435  -29.3853  -40.4935 C.2       6 UNK         0.4892 
     43 O          24.0260  -29.1715  -40.0106 O.2       6 UNK        -0.5089 
     44 N          25.7619  -30.5706  -40.4241 N.am      7 UNK        -0.4243 
     45 CA         25.2035  -31.7859  -39.8232 C.3       7 UNK         0.0196 
     46 CB         26.3610  -32.7310  -39.4481 C.3       7 UNK        -0.2007 
     47 C          24.1609  -32.4557  -40.7437 C.2       7 UNK         0.5020 
     48 O          24.3589  -33.5933  -41.1744 O.2       7 UNK        -0.5147 
     49 N          23.0759  -31.7208  -41.0225 N.am      8 UNK        -0.4734 
     50 CA         21.9499  -32.0504  -41.9067 C.3       8 UNK         0.0238 
     51 CB         21.2213  -33.3254  -41.4255 C.3       8 UNK        -0.1912 
     52 C          22.3338  -32.1132  -43.3987 C.2       8 UNK         0.5038 
     53 O          23.4778  -31.8373  -43.7681 O.2       8 UNK        -0.5046 
     54 N          21.3337  -32.4035  -44.2394 N.am      9 UNK        -0.4200 
     55 CA         21.4459  -32.4499  -45.7045 C.3       9 UNK         0.0839 
     56 C          22.2525  -33.6806  -46.1974 C.2       9 UNK         0.5513 
     57 N          22.9956  -33.5394  -47.2863 N.am      9 UNK        -0.7519 
     58 O          22.1731  -34.7692  -45.6314 O.2       9 UNK        -0.4960 
     59 C59        20.0555  -32.3854  -46.3936 C.3       10 UNK        -0.0876 
     60 S60        19.0347  -30.9830  -45.8101 S.3       10 UNK        -0.2414 
     61 C61        17.5958  -31.8504  -45.1096 C.3       10 UNK         0.0169 
     62 H62        17.0202  -24.9300  -48.5461 H         1 UNK         0.0903 
     63 H63        18.6292  -25.3564  -49.1327 H         1 UNK         0.0903 
     64 H64        17.2403  -26.3622  -49.5532 H         1 UNK         0.0903 
     65 H65        16.7554  -25.4355  -46.3834 H         1 UNK         0.3096 
     66 H66        17.3960  -28.0132  -45.2783 H         1 UNK         0.1121 
     67 H67        16.3410  -25.4319  -44.0048 H         1 UNK         0.0849 
     68 H68        16.5792  -26.9046  -43.1084 H         1 UNK         0.0849 
     69 H69        14.0441  -27.8416  -42.4972 H         1 UNK         0.0865 
     70 H70        13.4150  -28.8872  -43.7436 H         1 UNK         0.0865 
     71 H71        15.6074  -29.9718  -45.2261 H         1 UNK         0.1346 
     72 H72        18.1969  -31.9893  -42.4665 H         1 UNK         0.1412 
     73 H73        15.4588  -29.0208  -41.0432 H         1 UNK         0.1426 
     74 H74        17.0958  -31.8422  -39.9343 H         1 UNK         0.0716 
     75 H75        16.7856  -30.1911  -39.4604 H         1 UNK         0.0716 
     76 H76        19.1819  -28.5171  -38.7342 H         1 UNK         0.0695 
     77 H77        18.3567  -28.2656  -40.2514 H         1 UNK         0.0695 
     78 H78        21.3389  -28.9263  -40.2384 H         1 UNK         0.0983 
     79 H79        19.5273  -28.2554  -42.3057 H         1 UNK         0.3095 
     80 H80        21.5416  -26.6027  -44.5042 H         1 UNK         0.0454 
     81 H81        21.6457  -29.6388  -44.7593 H         1 UNK         0.0851 
     82 H82        23.0352  -28.5665  -44.7969 H         1 UNK         0.0851 
     83 H83        21.8410  -28.4947  -46.0842 H         1 UNK         0.0851 
     84 H84        19.4639  -28.5630  -44.9964 H         1 UNK         0.2976 
     85 H85        21.9906  -27.9251  -38.4057 H         1 UNK         0.3116 
     86 H86        22.7890  -26.4291  -37.0313 H         1 UNK         0.0646 
     87 H87        20.9978  -24.2546  -38.2305 H         1 UNK         0.0847 
     88 H88        21.8874  -24.1729  -36.7224 H         1 UNK         0.0847 
     89 H89        20.5590  -25.3097  -36.8870 H         1 UNK         0.0847 
     90 H90        22.6158  -25.3036  -40.3988 H         1 UNK         0.3040 
     91 H91        25.1285  -23.8342  -40.3254 H         1 UNK         0.1015 
     92 H92        23.5183  -24.9607  -42.6849 H         1 UNK         0.0786 
     93 H93        24.8669  -23.8397  -42.8098 H         1 UNK         0.0786 
     94 H94        23.3804  -23.3322  -42.0236 H         1 UNK         0.0786 
     95 H95        24.1329  -27.1634  -41.0920 H         1 UNK         0.3172 
     96 H96        26.8768  -28.1586  -40.7841 H         1 UNK         0.0595 
     97 H97        26.6498  -29.5111  -42.8844 H         1 UNK         0.0839 
     98 H98        26.5427  -27.8053  -43.2784 H         1 UNK         0.0839 
     99 H99        25.0809  -28.7874  -43.2101 H         1 UNK         0.0839 
    100 H100       26.6616  -30.6700  -40.8718 H         1 UNK         0.2998 
    101 H101       24.6885  -31.5140  -38.8990 H         1 UNK         0.0822 
    102 H102       25.9861  -33.6353  -38.9667 H         1 UNK         0.0787 
    103 H103       26.9314  -33.0404  -40.3249 H         1 UNK         0.0787 
    104 H104       27.0501  -32.2567  -38.7490 H         1 UNK         0.0787 
    105 H105       23.0828  -30.7729  -40.6564 H         1 UNK         0.3055 
    106 H106       21.2575  -31.2127  -41.8175 H         1 UNK         0.1106 
    107 H107       21.8097  -34.2245  -41.6109 H         1 UNK         0.0828 
    108 H108       21.0095  -33.2787  -40.3572 H         1 UNK         0.0828 
    109 H109       20.2638  -33.4555  -41.9296 H         1 UNK         0.0828 
    110 H110       20.4255  -32.6280  -43.8655 H         1 UNK         0.2931 
    111 H111       21.9987  -31.5597  -46.0103 H         1 UNK         0.0412 
    112 H112       23.0593  -32.6534  -47.7639 H         1 UNK         0.3472 
    113 H113       23.5137  -34.3322  -47.6326 H         1 UNK         0.3472 
    114 H114       19.5164  -33.3243  -46.2559 H         1 UNK         0.0970 
    115 H115       20.1802  -32.2749  -47.4723 H         1 UNK         0.0970 
    116 H116       17.8884  -32.8338  -44.7389 H         1 UNK         0.0612 
    117 H117       16.8614  -32.0239  -45.8976 H         1 UNK         0.0612 
@<TRIPOS>BOND
     1    1    2 1    
     2    1   62 1    
     3    1   63 1    
     4    1   64 1    
     5    2    3 2    
     6    2    4 am   BACKBONE|DICT|INTERRES
     7    4    5 1    
     8    4   65 1    
     9    5    6 1    
    10    5   25 1    
    11    5   66 1    
    12    6    7 1    
    13    6   67 1    
    14    6   68 1    
    15    7    8 1    
    16    8    9 1    
    17    8   69 1    
    18    8   70 1    
    19    9   10 ar   
    20    9   14 ar   
    21   10   11 ar   
    22   10   71 1    
    23   11   12 ar   
    24   11   61 1    
    25   12   13 ar   
    26   12   72 1    
    27   13   14 ar   
    28   13   15 1    
    29   14   73 1    
    30   15   16 1    
    31   15   74 1    
    32   15   75 1    
    33   16   17 1    
    34   17   18 1    
    35   17   76 1    
    36   17   77 1    
    37   18   19 1    
    38   18   27 1    
    39   18   78 1    
    40   19   20 am   BACKBONE|DICT|INTERRES
    41   19   79 1    
    42   20   21 2    
    43   20   22 1    
    44   22   23 1    
    45   22   24 1    
    46   22   80 1    
    47   23   81 1    
    48   23   82 1    
    49   23   83 1    
    50   24   25 am   BACKBONE|DICT|INTERRES
    51   24   84 1    
    52   25   26 2    
    53   27   28 2    
    54   27   29 am   BACKBONE|DICT|INTERRES
    55   29   30 1    
    56   29   85 1    
    57   30   31 1    
    58   30   32 1    
    59   30   86 1    
    60   31   87 1    
    61   31   88 1    
    62   31   89 1    
    63   32   33 2    
    64   32   34 am   BACKBONE|DICT|INTERRES
    65   34   35 1    
    66   34   90 1    
    67   35   36 1    
    68   35   37 1    
    69   35   91 1    
    70   36   92 1    
    71   36   93 1    
    72   36   94 1    
    73   37   38 2    
    74   37   39 am   BACKBONE|DICT|INTERRES
    75   39   40 1    
    76   39   95 1    
    77   40   41 1    
    78   40   42 1    
    79   40   96 1    
    80   41   97 1    
    81   41   98 1    
    82   41   99 1    
    83   42   43 2    
    84   42   44 am   BACKBONE|DICT|INTERRES
    85   44   45 1    
    86   44  100 1    
    87   45   46 1    
    88   45   47 1    
    89   45  101 1    
    90   46  102 1    
    91   46  103 1    
    92   46  104 1    
    93   47   48 2    
    94   47   49 am   BACKBONE|DICT|INTERRES
    95   49   50 1    
    96   49  105 1    
    97   50   51 1    
    98   50   52 1    
    99   50  106 1    
   100   51  107 1    
   101   51  108 1    
   102   51  109 1    
   103   52   53 2    
   104   52   54 am   BACKBONE|DICT|INTERRES
   105   54   55 1    
   106   54  110 1    
   107   55   56 1    
   108   55   59 1    
   109   55  111 1    
   110   56   57 am   BACKBONE|DICT|INTERRES
   111   56   58 2    
   112   57  112 1    
   113   57  113 1    
   114   59   60 1    
   115   59  114 1    
   116   59  115 1    
   117   60   61 1    
   118   61  116 1    
   119   61  117 1    
@<TRIPOS>SUBSTRUCTURE
     1 UNK         1 GROUP             0       ****    0 ROOT    
