@<TRIPOS>MOLECULE
3R8
117   119    1
SMALL
USER_CHARGES


@<TRIPOS>ATOM
      1 CA         18.5215  -25.9625  -39.1322 C.3       0 UNK        -0.2013 
      2 C          17.5862  -25.9545  -40.3329 C.2       0 UNK         0.4866 
      3 O          16.3768  -26.1173  -40.1702 O.2       0 UNK        -0.5176 
      4 N          18.1374  -25.7672  -41.5356 N.am      1 UNK        -0.4884 
      5 CA         17.4291  -25.7300  -42.8134 C.3       1 UNK         0.0853 
      6 C6         16.9722  -27.1408  -43.2690 C.3       10 UNK        -0.0849 
      7 S7         15.6141  -27.0944  -44.4859 S.3       10 UNK        -0.2776 
      8 C8         15.3231  -28.8755  -44.7476 C.3       10 UNK         0.0316 
      9 C9         16.5839  -29.5900  -45.2138 C.ar      10 UNK        -0.0863 
     10 C10        17.2503  -30.4761  -44.3634 C.ar      10 UNK        -0.1009 
     11 C11        18.4331  -31.1006  -44.7708 C.ar      10 UNK        -0.0712 
     12 C12        18.9484  -30.8288  -46.0437 C.ar      10 UNK        -0.0894 
     13 C13        18.2836  -29.9545  -46.9125 C.ar      10 UNK        -0.0745 
     14 C14        17.0938  -29.3497  -46.4911 C.ar      10 UNK        -0.0972 
     15 C15        18.8246  -29.7124  -48.3204 C.3       10 UNK         0.0209 
     16 S16        18.7307  -27.9642  -48.8423 S.3       10 UNK        -0.2568 
     17 C17        20.4354  -27.3569  -48.5859 C.3       10 UNK        -0.0983 
     18 CA         20.7486  -26.7957  -47.1693 C.3       3 UNK         0.0876 
     19 N          19.6871  -25.9328  -46.6455 N.am      3 UNK        -0.4424 
     20 C          19.6859  -24.5968  -46.6851 C.2       2 UNK         0.4918 
     21 O          20.5836  -23.9236  -47.1925 O.2       2 UNK        -0.4875 
     22 CA         18.4851  -23.8768  -46.0401 C.3       2 UNK         0.0481 
     23 CB         17.4567  -23.4987  -47.1183 C.3       2 UNK        -0.1831 
     24 N          17.8046  -24.6199  -44.9706 N.am      2 UNK        -0.4498 
     25 C          18.3664  -25.0603  -43.8363 C.2       1 UNK         0.5027 
     26 O          19.5744  -24.9744  -43.5912 O.2       1 UNK        -0.4969 
     27 C          21.1594  -27.8647  -46.1367 C.2       3 UNK         0.5005 
     28 O          21.6601  -28.9239  -46.5216 O.2       3 UNK        -0.5279 
     29 N          20.9689  -27.5727  -44.8396 N.am      4 UNK        -0.4463 
     30 CA         21.3867  -28.4458  -43.7414 C.3       4 UNK         0.0283 
     31 CB         20.7815  -27.9521  -42.4170 C.3       4 UNK        -0.1875 
     32 C          22.9148  -28.5296  -43.6122 C.2       4 UNK         0.4949 
     33 O          23.6122  -27.5437  -43.8649 O.2       4 UNK        -0.5039 
     34 N          23.3955  -29.6974  -43.1711 N.am      5 UNK        -0.4663 
     35 CA         24.7885  -29.9242  -42.7817 C.3       5 UNK         0.0242 
     36 CB         25.0332  -31.4402  -42.6841 C.3       5 UNK        -0.1982 
     37 C          25.1071  -29.2433  -41.4390 C.2       5 UNK         0.5017 
     38 O          24.1905  -28.9657  -40.6614 O.2       5 UNK        -0.5012 
     39 N          26.4038  -29.0536  -41.1554 N.am      6 UNK        -0.4439 
     40 CA         26.9230  -28.4539  -39.9154 C.3       6 UNK         0.0297 
     41 CB         28.4498  -28.3096  -40.0230 C.3       6 UNK        -0.2006 
     42 C          26.5463  -29.2142  -38.6267 C.2       6 UNK         0.4892 
     43 O          26.5049  -28.6069  -37.5565 O.2       6 UNK        -0.5089 
     44 N          26.2445  -30.5129  -38.7592 N.am      7 UNK        -0.4243 
     45 CA         25.7195  -31.3835  -37.7048 C.3       7 UNK         0.0196 
     46 CB         26.1363  -32.8320  -38.0229 C.3       7 UNK        -0.2007 
     47 C          24.1886  -31.2745  -37.5246 C.2       7 UNK         0.5020 
     48 O          23.6128  -32.1248  -36.8457 O.2       7 UNK        -0.5147 
     49 N          23.5432  -30.2815  -38.1594 N.am      8 UNK        -0.4734 
     50 CA         22.0915  -30.0476  -38.2137 C.3       8 UNK         0.0238 
     51 CB         21.5315  -29.6817  -36.8221 C.3       8 UNK        -0.1912 
     52 C          21.3522  -31.2227  -38.8803 C.2       8 UNK         0.5038 
     53 O          20.3553  -31.7152  -38.3481 O.2       8 UNK        -0.5046 
     54 N          21.9064  -31.6683  -40.0165 N.am      9 UNK        -0.4200 
     55 CA         21.5180  -32.8659  -40.7847 C.3       9 UNK         0.0839 
     56 C          21.8767  -34.2223  -40.0997 C.2       9 UNK         0.5513 
     57 N          22.5433  -34.2473  -38.9509 N.am      9 UNK        -0.7519 
     58 O          21.5762  -35.2831  -40.6437 O.2       9 UNK        -0.4960 
     59 C59        20.0442  -32.8421  -41.2879 C.3       10 UNK        -0.0876 
     60 S60        19.6378  -31.3580  -42.2727 S.3       10 UNK        -0.2414 
     61 C61        19.1183  -32.1043  -43.8511 C.3       10 UNK         0.0169 
     62 H62        18.4397  -26.9098  -38.5995 H         1 UNK         0.0903 
     63 H63        19.5627  -25.8289  -39.4256 H         1 UNK         0.0903 
     64 H64        18.2565  -25.1601  -38.4439 H         1 UNK         0.0903 
     65 H65        19.1281  -25.5740  -41.6301 H         1 UNK         0.3096 
     66 H66        16.5567  -25.0844  -42.6856 H         1 UNK         0.1121 
     67 H67        16.6139  -27.7201  -42.4166 H         1 UNK         0.0849 
     68 H68        17.8104  -27.7049  -43.6808 H         1 UNK         0.0849 
     69 H69        14.9447  -29.3162  -43.8238 H         1 UNK         0.0865 
     70 H70        14.5362  -29.0038  -45.4923 H         1 UNK         0.0865 
     71 H71        16.8549  -30.6779  -43.3771 H         1 UNK         0.1346 
     72 H72        19.8619  -31.3100  -46.3660 H         1 UNK         0.1412 
     73 H73        16.5651  -28.6768  -47.1524 H         1 UNK         0.1426 
     74 H74        18.2337  -30.3093  -49.0164 H         1 UNK         0.0716 
     75 H75        19.8521  -30.0682  -48.4097 H         1 UNK         0.0716 
     76 H76        20.5741  -26.5479  -49.3046 H         1 UNK         0.0695 
     77 H77        21.1521  -28.1212  -48.8917 H         1 UNK         0.0695 
     78 H78        21.6581  -26.1992  -47.2717 H         1 UNK         0.0983 
     79 H79        18.8951  -26.4088  -46.2379 H         1 UNK         0.3095 
     80 H80        18.8660  -22.9545  -45.5969 H         1 UNK         0.0454 
     81 H81        17.0083  -24.3823  -47.5749 H         1 UNK         0.0851 
     82 H82        17.9222  -22.9206  -47.9180 H         1 UNK         0.0851 
     83 H83        16.6535  -22.8871  -46.7069 H         1 UNK         0.0851 
     84 H84        16.8150  -24.7835  -45.1013 H         1 UNK         0.2976 
     85 H85        20.6249  -26.6539  -44.5871 H         1 UNK         0.3116 
     86 H86        21.0023  -29.4449  -43.9521 H         1 UNK         0.0646 
     87 H87        19.6961  -28.0239  -42.4250 H         1 UNK         0.0847 
     88 H88        21.0589  -26.9188  -42.2062 H         1 UNK         0.0847 
     89 H89        21.1293  -28.5573  -41.5783 H         1 UNK         0.0847 
     90 H90        22.7418  -30.4408  -42.9751 H         1 UNK         0.3040 
     91 H91        25.4387  -29.5033  -43.5522 H         1 UNK         0.1015 
     92 H92        26.0825  -31.6576  -42.4794 H         1 UNK         0.0786 
     93 H93        24.7809  -31.9431  -43.6182 H         1 UNK         0.0786 
     94 H94        24.4466  -31.8993  -41.8879 H         1 UNK         0.0786 
     95 H95        27.0927  -29.3253  -41.8433 H         1 UNK         0.3172 
     96 H96        26.4916  -27.4537  -39.8339 H         1 UNK         0.0595 
     97 H97        28.9409  -29.2771  -40.1384 H         1 UNK         0.0839 
     98 H98        28.8620  -27.8408  -39.1278 H         1 UNK         0.0839 
     99 H99        28.7324  -27.6843  -40.8703 H         1 UNK         0.0839 
    100 H100       26.3175  -30.9188  -39.6805 H         1 UNK         0.2998 
    101 H101       26.1738  -31.1002  -36.7525 H         1 UNK         0.0822 
    102 H102       27.2175  -32.9193  -38.1346 H         1 UNK         0.0787 
    103 H103       25.8434  -33.5120  -37.2215 H         1 UNK         0.0787 
    104 H104       25.6724  -33.1935  -38.9423 H         1 UNK         0.0787 
    105 H105       24.0891  -29.6664  -38.7547 H         1 UNK         0.3055 
    106 H106       21.9398  -29.1852  -38.8657 H         1 UNK         0.1106 
    107 H107       21.5958  -30.5165  -36.1236 H         1 UNK         0.0828 
    108 H108       20.4807  -29.3966  -36.8888 H         1 UNK         0.0828 
    109 H109       22.0687  -28.8385  -36.3879 H         1 UNK         0.0828 
    110 H110       22.7336  -31.1902  -40.3421 H         1 UNK         0.2931 
    111 H111       22.1514  -32.8389  -41.6726 H         1 UNK         0.0412 
    112 H112       22.7694  -33.3962  -38.4523 H         1 UNK         0.3472 
    113 H113       22.7716  -35.1405  -38.5420 H         1 UNK         0.3472 
    114 H114       19.3484  -32.8971  -40.4488 H         1 UNK         0.0970 
    115 H115       19.8413  -33.7290  -41.8910 H         1 UNK         0.0970 
    116 H116       19.9895  -32.5479  -44.3354 H         1 UNK         0.0612 
    117 H117       18.4206  -32.9192  -43.6529 H         1 UNK         0.0612 
@<TRIPOS>BOND
     1    1    2 1    
     2    1   62 1    
     3    1   63 1    
     4    1   64 1    
     5    2    3 2    
     6    2    4 am   BACKBONE|DICT|INTERRES
     7    4    5 1    
     8    4   65 1    
     9    5    6 1    
    10    5   25 1    
    11    5   66 1    
    12    6    7 1    
    13    6   67 1    
    14    6   68 1    
    15    7    8 1    
    16    8    9 1    
    17    8   69 1    
    18    8   70 1    
    19    9   10 ar   
    20    9   14 ar   
    21   10   11 ar   
    22   10   71 1    
    23   11   12 ar   
    24   11   61 1    
    25   12   13 ar   
    26   12   72 1    
    27   13   14 ar   
    28   13   15 1    
    29   14   73 1    
    30   15   16 1    
    31   15   74 1    
    32   15   75 1    
    33   16   17 1    
    34   17   18 1    
    35   17   76 1    
    36   17   77 1    
    37   18   19 1    
    38   18   27 1    
    39   18   78 1    
    40   19   20 am   BACKBONE|DICT|INTERRES
    41   19   79 1    
    42   20   21 2    
    43   20   22 1    
    44   22   23 1    
    45   22   24 1    
    46   22   80 1    
    47   23   81 1    
    48   23   82 1    
    49   23   83 1    
    50   24   25 am   BACKBONE|DICT|INTERRES
    51   24   84 1    
    52   25   26 2    
    53   27   28 2    
    54   27   29 am   BACKBONE|DICT|INTERRES
    55   29   30 1    
    56   29   85 1    
    57   30   31 1    
    58   30   32 1    
    59   30   86 1    
    60   31   87 1    
    61   31   88 1    
    62   31   89 1    
    63   32   33 2    
    64   32   34 am   BACKBONE|DICT|INTERRES
    65   34   35 1    
    66   34   90 1    
    67   35   36 1    
    68   35   37 1    
    69   35   91 1    
    70   36   92 1    
    71   36   93 1    
    72   36   94 1    
    73   37   38 2    
    74   37   39 am   BACKBONE|DICT|INTERRES
    75   39   40 1    
    76   39   95 1    
    77   40   41 1    
    78   40   42 1    
    79   40   96 1    
    80   41   97 1    
    81   41   98 1    
    82   41   99 1    
    83   42   43 2    
    84   42   44 am   BACKBONE|DICT|INTERRES
    85   44   45 1    
    86   44  100 1    
    87   45   46 1    
    88   45   47 1    
    89   45  101 1    
    90   46  102 1    
    91   46  103 1    
    92   46  104 1    
    93   47   48 2    
    94   47   49 am   BACKBONE|DICT|INTERRES
    95   49   50 1    
    96   49  105 1    
    97   50   51 1    
    98   50   52 1    
    99   50  106 1    
   100   51  107 1    
   101   51  108 1    
   102   51  109 1    
   103   52   53 2    
   104   52   54 am   BACKBONE|DICT|INTERRES
   105   54   55 1    
   106   54  110 1    
   107   55   56 1    
   108   55   59 1    
   109   55  111 1    
   110   56   57 am   BACKBONE|DICT|INTERRES
   111   56   58 2    
   112   57  112 1    
   113   57  113 1    
   114   59   60 1    
   115   59  114 1    
   116   59  115 1    
   117   60   61 1    
   118   61  116 1    
   119   61  117 1    
@<TRIPOS>SUBSTRUCTURE
     1 UNK         1 GROUP             0       ****    0 ROOT    
