@<TRIPOS>MOLECULE
3R8
117   119    1
SMALL
USER_CHARGES


@<TRIPOS>ATOM
      1 CA         14.8670  -26.9144  -46.9356 C.3       0 UNK        -0.2013 
      2 C          15.9316  -25.8276  -46.9757 C.2       0 UNK         0.4866 
      3 O          15.6016  -24.6554  -47.1601 O.2       0 UNK        -0.5176 
      4 N          17.2032  -26.2138  -46.8140 N.am      1 UNK        -0.4884 
      5 CA         18.3601  -25.3200  -46.7249 C.3       1 UNK         0.0853 
      6 C6         19.5770  -25.8958  -47.5124 C.3       10 UNK        -0.0849 
      7 S7         20.5772  -27.1952  -46.6985 S.3       10 UNK        -0.2776 
      8 C8         19.6619  -28.7337  -47.0290 C.3       10 UNK         0.0316 
      9 C9         19.3329  -29.4227  -45.7136 C.ar      10 UNK        -0.0863 
     10 C10        20.3103  -30.1742  -45.0548 C.ar      10 UNK        -0.1009 
     11 C11        20.0491  -30.7385  -43.8027 C.ar      10 UNK        -0.0712 
     12 C12        18.7920  -30.5675  -43.2175 C.ar      10 UNK        -0.0894 
     13 C13        17.8151  -29.8021  -43.8589 C.ar      10 UNK        -0.0745 
     14 C14        18.0811  -29.2558  -45.1165 C.ar      10 UNK        -0.0972 
     15 C15        16.4993  -29.4899  -43.1658 C.3       10 UNK         0.0209 
     16 S16        16.4633  -27.7543  -42.6054 S.3       10 UNK        -0.2568 
     17 C17        17.6107  -27.7762  -41.1844 C.3       10 UNK        -0.0983 
     18 CA         19.0854  -27.4512  -41.5425 C.3       3 UNK         0.0876 
     19 N          19.2393  -26.1855  -42.2691 N.am      3 UNK        -0.4424 
     20 C          20.3995  -25.6838  -42.7160 C.2       2 UNK         0.4918 
     21 O          21.4925  -26.2305  -42.5490 O.2       2 UNK        -0.4875 
     22 CA         20.3142  -24.3714  -43.5194 C.3       2 UNK         0.0481 
     23 CB         21.6611  -23.6273  -43.5693 C.3       2 UNK        -0.1831 
     24 N          19.8722  -24.6372  -44.8888 N.am      2 UNK        -0.4498 
     25 C          18.6136  -24.9198  -45.2486 C.2       1 UNK         0.5027 
     26 O          17.6700  -24.8623  -44.4548 O.2       1 UNK        -0.4969 
     27 C          19.9630  -27.5044  -40.2747 C.2       3 UNK         0.5005 
     28 O          20.0586  -26.5056  -39.5577 O.2       3 UNK        -0.5279 
     29 N          20.6096  -28.6570  -40.0465 N.am      4 UNK        -0.4463 
     30 CA         21.5722  -28.9761  -38.9783 C.3       4 UNK         0.0283 
     31 CB         20.9544  -28.7934  -37.5780 C.3       4 UNK        -0.1875 
     32 C          22.9325  -28.2577  -39.0851 C.2       4 UNK         0.4949 
     33 O          23.9294  -28.8036  -38.6127 O.2       4 UNK        -0.5039 
     34 N          22.9720  -27.0700  -39.7006 N.am      5 UNK        -0.4663 
     35 CA         24.1969  -26.3194  -39.9761 C.3       5 UNK         0.0242 
     36 CB         23.8570  -24.8316  -40.1546 C.3       5 UNK        -0.1982 
     37 C          24.9360  -26.8637  -41.2083 C.2       5 UNK         0.5017 
     38 O          26.1637  -26.9552  -41.1805 O.2       5 UNK        -0.5012 
     39 N          24.1808  -27.2086  -42.2621 N.am      6 UNK        -0.4439 
     40 CA         24.6993  -27.7194  -43.5338 C.3       6 UNK         0.0297 
     41 CB         23.5640  -27.7534  -44.5704 C.3       6 UNK        -0.2006 
     42 C          25.3671  -29.1013  -43.4275 C.2       6 UNK         0.4892 
     43 O          26.3808  -29.3284  -44.0892 O.2       6 UNK        -0.5089 
     44 N          24.7913  -29.9900  -42.6094 N.am      7 UNK        -0.4243 
     45 CA         25.2186  -31.3697  -42.3818 C.3       7 UNK         0.0196 
     46 CB         25.0654  -32.2126  -43.6678 C.3       7 UNK        -0.2007 
     47 C          24.3903  -31.9566  -41.2306 C.2       7 UNK         0.5020 
     48 O          23.4395  -31.3190  -40.7684 O.2       7 UNK        -0.5147 
     49 N          24.7475  -33.1723  -40.7973 N.am      8 UNK        -0.4734 
     50 CA         24.0962  -33.9298  -39.7214 C.3       8 UNK         0.0238 
     51 CB         25.0681  -35.0168  -39.2240 C.3       8 UNK        -0.1912 
     52 C          22.7239  -34.5078  -40.1331 C.2       8 UNK         0.5038 
     53 O          22.5386  -35.7266  -40.1420 O.2       8 UNK        -0.5046 
     54 N          21.7930  -33.6117  -40.4643 N.am      9 UNK        -0.4200 
     55 CA         20.4028  -33.8859  -40.8615 C.3       9 UNK         0.0839 
     56 C          19.3761  -32.9064  -40.2244 C.2       9 UNK         0.5513 
     57 N          19.7681  -32.0473  -39.2910 N.am      9 UNK        -0.7519 
     58 O          18.1961  -32.9370  -40.5615 O.2       9 UNK        -0.4960 
     59 C59        20.2174  -34.0907  -42.4016 C.3       10 UNK        -0.0876 
     60 S60        21.3465  -33.1865  -43.5246 S.3       10 UNK        -0.2414 
     61 C61        21.1613  -31.4424  -43.0472 C.3       10 UNK         0.0169 
     62 H62        15.3007  -27.9140  -46.9282 H         1 UNK         0.0903 
     63 H63        14.2538  -26.8030  -46.0416 H         1 UNK         0.0903 
     64 H64        14.2171  -26.8367  -47.8068 H         1 UNK         0.0903 
     65 H65        17.4046  -27.1834  -46.6326 H         1 UNK         0.3096 
     66 H66        18.0995  -24.3823  -47.2214 H         1 UNK         0.1121 
     67 H67        20.2616  -25.0788  -47.7466 H         1 UNK         0.0849 
     68 H68        19.2503  -26.2636  -48.4866 H         1 UNK         0.0849 
     69 H69        18.7567  -28.5364  -47.6040 H         1 UNK         0.0865 
     70 H70        20.2771  -29.3892  -47.6474 H         1 UNK         0.0865 
     71 H71        21.2908  -30.2834  -45.4982 H         1 UNK         0.1346 
     72 H72        18.5907  -30.9755  -42.2383 H         1 UNK         0.1412 
     73 H73        17.3201  -28.6622  -45.5976 H         1 UNK         0.1426 
     74 H74        16.3274  -30.1582  -42.3205 H         1 UNK         0.0716 
     75 H75        15.6760  -29.6552  -43.8622 H         1 UNK         0.0716 
     76 H76        17.5414  -28.7518  -40.6991 H         1 UNK         0.0695 
     77 H77        17.2362  -27.0538  -40.4565 H         1 UNK         0.0695 
     78 H78        19.4556  -28.2128  -42.2266 H         1 UNK         0.0983 
     79 H79        18.3828  -25.7104  -42.5250 H         1 UNK         0.3095 
     80 H80        19.5907  -23.7169  -43.0288 H         1 UNK         0.0454 
     81 H81        22.4450  -24.2295  -44.0306 H         1 UNK         0.0851 
     82 H82        21.9962  -23.3656  -42.5658 H         1 UNK         0.0851 
     83 H83        21.5795  -22.6971  -44.1315 H         1 UNK         0.0851 
     84 H84        20.6018  -24.7731  -45.5744 H         1 UNK         0.2976 
     85 H85        20.4743  -29.4042  -40.7119 H         1 UNK         0.3116 
     86 H86        21.7895  -30.0377  -39.0958 H         1 UNK         0.0646 
     87 H87        20.7552  -27.7459  -37.3512 H         1 UNK         0.0847 
     88 H88        21.6299  -29.1649  -36.8064 H         1 UNK         0.0847 
     89 H89        20.0184  -29.3428  -37.4803 H         1 UNK         0.0847 
     90 H90        22.0955  -26.6675  -40.0135 H         1 UNK         0.3040 
     91 H91        24.8676  -26.4119  -39.1186 H         1 UNK         0.1015 
     92 H92        23.1722  -24.6724  -40.9868 H         1 UNK         0.0786 
     93 H93        24.7559  -24.2465  -40.3537 H         1 UNK         0.0786 
     94 H94        23.3942  -24.4207  -39.2572 H         1 UNK         0.0786 
     95 H95        23.1813  -27.0205  -42.2226 H         1 UNK         0.3172 
     96 H96        25.4561  -27.0160  -43.8873 H         1 UNK         0.0595 
     97 H97        22.7349  -28.3825  -44.2442 H         1 UNK         0.0839 
     98 H98        23.9138  -28.1439  -45.5270 H         1 UNK         0.0839 
     99 H99        23.1675  -26.7552  -44.7568 H         1 UNK         0.0839 
    100 H100       23.9920  -29.7137  -42.0522 H         1 UNK         0.2998 
    101 H101       26.2650  -31.3613  -42.0708 H         1 UNK         0.0822 
    102 H102       25.7567  -31.8870  -44.4446 H         1 UNK         0.0787 
    103 H103       25.2736  -33.2679  -43.4892 H         1 UNK         0.0787 
    104 H104       24.0582  -32.1445  -44.0768 H         1 UNK         0.0787 
    105 H105       25.5184  -33.6351  -41.2576 H         1 UNK         0.3055 
    106 H106       23.9127  -33.2478  -38.8877 H         1 UNK         0.1106 
    107 H107       24.6357  -35.5782  -38.3945 H         1 UNK         0.0828 
    108 H108       25.3116  -35.7327  -40.0100 H         1 UNK         0.0828 
    109 H109       26.0008  -34.5819  -38.8642 H         1 UNK         0.0828 
    110 H110       22.0840  -32.6392  -40.4997 H         1 UNK         0.2931 
    111 H111       20.1261  -34.8336  -40.3954 H         1 UNK         0.0412 
    112 H112       19.0799  -31.4450  -38.8685 H         1 UNK         0.3472 
    113 H113       20.7069  -32.0696  -38.9294 H         1 UNK         0.3472 
    114 H114       20.3749  -35.1481  -42.6184 H         1 UNK         0.0970 
    115 H115       19.1916  -33.8974  -42.7200 H         1 UNK         0.0970 
    116 H116       21.0131  -31.3468  -41.9736 H         1 UNK         0.0612 
    117 H117       22.1018  -30.9325  -43.2567 H         1 UNK         0.0612 
@<TRIPOS>BOND
     1    1    2 1    
     2    1   62 1    
     3    1   63 1    
     4    1   64 1    
     5    2    3 2    
     6    2    4 am   BACKBONE|DICT|INTERRES
     7    4    5 1    
     8    4   65 1    
     9    5    6 1    
    10    5   25 1    
    11    5   66 1    
    12    6    7 1    
    13    6   67 1    
    14    6   68 1    
    15    7    8 1    
    16    8    9 1    
    17    8   69 1    
    18    8   70 1    
    19    9   10 ar   
    20    9   14 ar   
    21   10   11 ar   
    22   10   71 1    
    23   11   12 ar   
    24   11   61 1    
    25   12   13 ar   
    26   12   72 1    
    27   13   14 ar   
    28   13   15 1    
    29   14   73 1    
    30   15   16 1    
    31   15   74 1    
    32   15   75 1    
    33   16   17 1    
    34   17   18 1    
    35   17   76 1    
    36   17   77 1    
    37   18   19 1    
    38   18   27 1    
    39   18   78 1    
    40   19   20 am   BACKBONE|DICT|INTERRES
    41   19   79 1    
    42   20   21 2    
    43   20   22 1    
    44   22   23 1    
    45   22   24 1    
    46   22   80 1    
    47   23   81 1    
    48   23   82 1    
    49   23   83 1    
    50   24   25 am   BACKBONE|DICT|INTERRES
    51   24   84 1    
    52   25   26 2    
    53   27   28 2    
    54   27   29 am   BACKBONE|DICT|INTERRES
    55   29   30 1    
    56   29   85 1    
    57   30   31 1    
    58   30   32 1    
    59   30   86 1    
    60   31   87 1    
    61   31   88 1    
    62   31   89 1    
    63   32   33 2    
    64   32   34 am   BACKBONE|DICT|INTERRES
    65   34   35 1    
    66   34   90 1    
    67   35   36 1    
    68   35   37 1    
    69   35   91 1    
    70   36   92 1    
    71   36   93 1    
    72   36   94 1    
    73   37   38 2    
    74   37   39 am   BACKBONE|DICT|INTERRES
    75   39   40 1    
    76   39   95 1    
    77   40   41 1    
    78   40   42 1    
    79   40   96 1    
    80   41   97 1    
    81   41   98 1    
    82   41   99 1    
    83   42   43 2    
    84   42   44 am   BACKBONE|DICT|INTERRES
    85   44   45 1    
    86   44  100 1    
    87   45   46 1    
    88   45   47 1    
    89   45  101 1    
    90   46  102 1    
    91   46  103 1    
    92   46  104 1    
    93   47   48 2    
    94   47   49 am   BACKBONE|DICT|INTERRES
    95   49   50 1    
    96   49  105 1    
    97   50   51 1    
    98   50   52 1    
    99   50  106 1    
   100   51  107 1    
   101   51  108 1    
   102   51  109 1    
   103   52   53 2    
   104   52   54 am   BACKBONE|DICT|INTERRES
   105   54   55 1    
   106   54  110 1    
   107   55   56 1    
   108   55   59 1    
   109   55  111 1    
   110   56   57 am   BACKBONE|DICT|INTERRES
   111   56   58 2    
   112   57  112 1    
   113   57  113 1    
   114   59   60 1    
   115   59  114 1    
   116   59  115 1    
   117   60   61 1    
   118   61  116 1    
   119   61  117 1    
@<TRIPOS>SUBSTRUCTURE
     1 UNK         1 GROUP             0       ****    0 ROOT    
