@<TRIPOS>MOLECULE
3R8
117   119    1
SMALL
USER_CHARGES


@<TRIPOS>ATOM
      1 CA         23.1075  -29.2372  -44.2992 C.3       0 UNK        -0.2013 
      2 C          21.7574  -28.5985  -44.5864 C.2       0 UNK         0.4866 
      3 O          21.1267  -28.0680  -43.6709 O.2       0 UNK        -0.5176 
      4 N          21.2978  -28.6672  -45.8417 N.am      1 UNK        -0.4884 
      5 CA         19.9959  -28.1527  -46.2754 C.3       1 UNK         0.0853 
      6 C6         19.5245  -28.8472  -47.5801 C.3       10 UNK        -0.0849 
      7 S7         17.7353  -28.6707  -47.9204 S.3       10 UNK        -0.2776 
      8 C8         17.0074  -30.0694  -47.0045 C.3       10 UNK         0.0316 
      9 C9         17.0540  -29.8370  -45.5013 C.ar      10 UNK        -0.0863 
     10 C10        18.0102  -30.4889  -44.7187 C.ar      10 UNK        -0.1009 
     11 C11        18.0992  -30.2337  -43.3479 C.ar      10 UNK        -0.0712 
     12 C12        17.1895  -29.3576  -42.7487 C.ar      10 UNK        -0.0894 
     13 C13        16.2194  -28.7052  -43.5195 C.ar      10 UNK        -0.0745 
     14 C14        16.1599  -28.9487  -44.8958 C.ar      10 UNK        -0.0972 
     15 C15        15.2068  -27.7669  -42.8711 C.3       10 UNK         0.0209 
     16 S16        15.9669  -26.5000  -41.8034 S.3       10 UNK        -0.2568 
     17 C17        16.8199  -25.4132  -43.0041 C.3       10 UNK        -0.0983 
     18 CA         18.3672  -25.5706  -43.0989 C.3       3 UNK         0.0876 
     19 N          19.0235  -24.3917  -43.6650 N.am      3 UNK        -0.4424 
     20 C          19.0957  -23.9284  -44.9206 C.2       2 UNK         0.4918 
     21 O          19.7349  -22.9069  -45.1706 O.2       2 UNK        -0.4875 
     22 CA         18.3758  -24.6626  -46.0772 C.3       2 UNK         0.0481 
     23 CB         18.5593  -23.9598  -47.4395 C.3       2 UNK        -0.1831 
     24 N          18.7395  -26.0756  -46.1909 N.am      2 UNK        -0.4498 
     25 C          19.9586  -26.6129  -46.3469 C.2       1 UNK         0.5027 
     26 O          20.9953  -25.9686  -46.5234 O.2       1 UNK        -0.4969 
     27 C          19.0734  -25.7709  -41.7464 C.2       3 UNK         0.5005 
     28 O          19.2631  -24.7904  -41.0200 O.2       3 UNK        -0.5279 
     29 N          19.4821  -27.0169  -41.4614 N.am      4 UNK        -0.4463 
     30 CA         20.2987  -27.4369  -40.3148 C.3       4 UNK         0.0283 
     31 CB         19.5187  -27.2850  -38.9924 C.3       4 UNK        -0.1875 
     32 C          21.6756  -26.7423  -40.2937 C.2       4 UNK         0.4949 
     33 O          22.1794  -26.3885  -39.2269 O.2       4 UNK        -0.5039 
     34 N          22.2573  -26.5564  -41.4875 N.am      5 UNK        -0.4663 
     35 CA         23.5458  -25.8896  -41.7001 C.3       5 UNK         0.0242 
     36 CB         23.6102  -25.3711  -43.1466 C.3       5 UNK        -0.1982 
     37 C          24.7550  -26.7842  -41.3693 C.2       5 UNK         0.5017 
     38 O          25.8707  -26.2734  -41.2645 O.2       5 UNK        -0.5012 
     39 N          24.5136  -28.0875  -41.1948 N.am      6 UNK        -0.4439 
     40 CA         25.4520  -29.0769  -40.6840 C.3       6 UNK         0.0297 
     41 CB         26.0431  -29.8885  -41.8492 C.3       6 UNK        -0.2006 
     42 C          24.6677  -29.9817  -39.7311 C.2       6 UNK         0.4892 
     43 O          23.4995  -30.2728  -40.0035 O.2       6 UNK        -0.5089 
     44 N          25.3246  -30.4364  -38.6558 N.am      7 UNK        -0.4243 
     45 CA         24.7404  -31.2980  -37.6183 C.3       7 UNK         0.0196 
     46 CB         25.7354  -31.4355  -36.4545 C.3       7 UNK        -0.2007 
     47 C          24.3115  -32.6871  -38.1253 C.2       7 UNK         0.5020 
     48 O          23.4100  -33.2928  -37.5463 O.2       7 UNK        -0.5147 
     49 N          24.9451  -33.1544  -39.2088 N.am      8 UNK        -0.4734 
     50 CA         24.6001  -34.3889  -39.9173 C.3       8 UNK         0.0238 
     51 CB         25.8173  -34.8359  -40.7454 C.3       8 UNK        -0.1912 
     52 C          23.3550  -34.2582  -40.8180 C.2       8 UNK         0.5038 
     53 O          22.8978  -35.2773  -41.3375 O.2       8 UNK        -0.5046 
     54 N          22.8401  -33.0325  -41.0039 N.am      9 UNK        -0.4200 
     55 CA         21.7550  -32.6802  -41.9301 C.3       9 UNK         0.0839 
     56 C          22.1706  -32.8896  -43.4209 C.2       9 UNK         0.5513 
     57 N          21.2382  -33.1703  -44.3204 N.am      9 UNK        -0.7519 
     58 O          23.3371  -32.7440  -43.7803 O.2       9 UNK        -0.4960 
     59 C59        20.3970  -33.3311  -41.5118 C.3       10 UNK        -0.0876 
     60 S60        18.8389  -32.6211  -42.1732 S.3       10 UNK        -0.2414 
     61 C61        19.2114  -30.8779  -42.5388 C.3       10 UNK         0.0169 
     62 H62        23.8833  -28.4784  -44.2127 H         1 UNK         0.0903 
     63 H63        23.0653  -29.7903  -43.3616 H         1 UNK         0.0903 
     64 H64        23.3984  -29.9361  -45.0833 H         1 UNK         0.0903 
     65 H65        21.8774  -29.0707  -46.5637 H         1 UNK         0.3096 
     66 H66        19.3019  -28.4113  -45.4800 H         1 UNK         0.1121 
     67 H67        19.7488  -29.9144  -47.5370 H         1 UNK         0.0849 
     68 H68        20.0810  -28.4643  -48.4376 H         1 UNK         0.0849 
     69 H69        17.5179  -30.9951  -47.2754 H         1 UNK         0.0865 
     70 H70        15.9695  -30.1942  -47.3171 H         1 UNK         0.0865 
     71 H71        18.7156  -31.1658  -45.1819 H         1 UNK         0.1346 
     72 H72        17.2412  -29.1739  -41.6840 H         1 UNK         0.1412 
     73 H73        15.4159  -28.4483  -45.5013 H         1 UNK         0.1426 
     74 H74        14.5247  -28.3648  -42.2653 H         1 UNK         0.0716 
     75 H75        14.5914  -27.2711  -43.6235 H         1 UNK         0.0716 
     76 H76        16.5765  -24.3894  -42.7148 H         1 UNK         0.0695 
     77 H77        16.3682  -25.5555  -43.9854 H         1 UNK         0.0695 
     78 H78        18.5928  -26.4504  -43.6986 H         1 UNK         0.0983 
     79 H79        19.5133  -23.8729  -42.9462 H         1 UNK         0.3095 
     80 H80        17.3109  -24.6317  -45.8489 H         1 UNK         0.0454 
     81 H81        19.6066  -23.9251  -47.7414 H         1 UNK         0.0851 
     82 H82        18.1979  -22.9315  -47.4013 H         1 UNK         0.0851 
     83 H83        18.0017  -24.4681  -48.2260 H         1 UNK         0.0851 
     84 H84        17.9629  -26.7194  -46.1195 H         1 UNK         0.2976 
     85 H85        19.3566  -27.7249  -42.1736 H         1 UNK         0.3116 
     86 H86        20.5032  -28.4990  -40.4555 H         1 UNK         0.0646 
     87 H87        19.3351  -26.2385  -38.7474 H         1 UNK         0.0847 
     88 H88        20.0735  -27.7200  -38.1603 H         1 UNK         0.0847 
     89 H89        18.5552  -27.7922  -39.0398 H         1 UNK         0.0847 
     90 H90        21.7871  -26.9255  -42.3118 H         1 UNK         0.3040 
     91 H91        23.5996  -25.0272  -41.0317 H         1 UNK         0.1015 
     92 H92        23.5480  -26.1785  -43.8748 H         1 UNK         0.0786 
     93 H93        24.5443  -24.8383  -43.3300 H         1 UNK         0.0786 
     94 H94        22.7964  -24.6755  -43.3535 H         1 UNK         0.0786 
     95 H95        23.5536  -28.4056  -41.2317 H         1 UNK         0.3172 
     96 H96        26.2553  -28.5848  -40.1313 H         1 UNK         0.0595 
     97 H97        26.7793  -30.6085  -41.4900 H         1 UNK         0.0839 
     98 H98        26.5474  -29.2407  -42.5664 H         1 UNK         0.0839 
     99 H99        25.2758  -30.4480  -42.3863 H         1 UNK         0.0839 
    100 H100       26.2848  -30.1537  -38.5178 H         1 UNK         0.2998 
    101 H101       23.8423  -30.8014  -37.2444 H         1 UNK         0.0822 
    102 H102       25.3182  -32.0490  -35.6545 H         1 UNK         0.0787 
    103 H103       26.6672  -31.9051  -36.7726 H         1 UNK         0.0787 
    104 H104       25.9777  -30.4647  -36.0215 H         1 UNK         0.0787 
    105 H105       25.6818  -32.5908  -39.6078 H         1 UNK         0.3055 
    106 H106       24.3818  -35.1653  -39.1803 H         1 UNK         0.1106 
    107 H107       25.6199  -35.7815  -41.2526 H         1 UNK         0.0828 
    108 H108       26.0747  -34.1041  -41.5123 H         1 UNK         0.0828 
    109 H109       26.6938  -34.9875  -40.1152 H         1 UNK         0.0828 
    110 H110       23.2781  -32.2440  -40.5417 H         1 UNK         0.2931 
    111 H111       21.6746  -31.6033  -41.7959 H         1 UNK         0.0412 
    112 H112       20.2752  -33.2757  -44.0370 H         1 UNK         0.3472 
    113 H113       21.5021  -33.2947  -45.2849 H         1 UNK         0.3472 
    114 H114       20.3064  -33.2861  -40.4253 H         1 UNK         0.0970 
    115 H115       20.4039  -34.3956  -41.7519 H         1 UNK         0.0970 
    116 H116       19.3786  -30.3408  -41.6046 H         1 UNK         0.0612 
    117 H117       20.1265  -30.7915  -43.1223 H         1 UNK         0.0612 
@<TRIPOS>BOND
     1    1    2 1    
     2    1   62 1    
     3    1   63 1    
     4    1   64 1    
     5    2    3 2    
     6    2    4 am   BACKBONE|DICT|INTERRES
     7    4    5 1    
     8    4   65 1    
     9    5    6 1    
    10    5   25 1    
    11    5   66 1    
    12    6    7 1    
    13    6   67 1    
    14    6   68 1    
    15    7    8 1    
    16    8    9 1    
    17    8   69 1    
    18    8   70 1    
    19    9   10 ar   
    20    9   14 ar   
    21   10   11 ar   
    22   10   71 1    
    23   11   12 ar   
    24   11   61 1    
    25   12   13 ar   
    26   12   72 1    
    27   13   14 ar   
    28   13   15 1    
    29   14   73 1    
    30   15   16 1    
    31   15   74 1    
    32   15   75 1    
    33   16   17 1    
    34   17   18 1    
    35   17   76 1    
    36   17   77 1    
    37   18   19 1    
    38   18   27 1    
    39   18   78 1    
    40   19   20 am   BACKBONE|DICT|INTERRES
    41   19   79 1    
    42   20   21 2    
    43   20   22 1    
    44   22   23 1    
    45   22   24 1    
    46   22   80 1    
    47   23   81 1    
    48   23   82 1    
    49   23   83 1    
    50   24   25 am   BACKBONE|DICT|INTERRES
    51   24   84 1    
    52   25   26 2    
    53   27   28 2    
    54   27   29 am   BACKBONE|DICT|INTERRES
    55   29   30 1    
    56   29   85 1    
    57   30   31 1    
    58   30   32 1    
    59   30   86 1    
    60   31   87 1    
    61   31   88 1    
    62   31   89 1    
    63   32   33 2    
    64   32   34 am   BACKBONE|DICT|INTERRES
    65   34   35 1    
    66   34   90 1    
    67   35   36 1    
    68   35   37 1    
    69   35   91 1    
    70   36   92 1    
    71   36   93 1    
    72   36   94 1    
    73   37   38 2    
    74   37   39 am   BACKBONE|DICT|INTERRES
    75   39   40 1    
    76   39   95 1    
    77   40   41 1    
    78   40   42 1    
    79   40   96 1    
    80   41   97 1    
    81   41   98 1    
    82   41   99 1    
    83   42   43 2    
    84   42   44 am   BACKBONE|DICT|INTERRES
    85   44   45 1    
    86   44  100 1    
    87   45   46 1    
    88   45   47 1    
    89   45  101 1    
    90   46  102 1    
    91   46  103 1    
    92   46  104 1    
    93   47   48 2    
    94   47   49 am   BACKBONE|DICT|INTERRES
    95   49   50 1    
    96   49  105 1    
    97   50   51 1    
    98   50   52 1    
    99   50  106 1    
   100   51  107 1    
   101   51  108 1    
   102   51  109 1    
   103   52   53 2    
   104   52   54 am   BACKBONE|DICT|INTERRES
   105   54   55 1    
   106   54  110 1    
   107   55   56 1    
   108   55   59 1    
   109   55  111 1    
   110   56   57 am   BACKBONE|DICT|INTERRES
   111   56   58 2    
   112   57  112 1    
   113   57  113 1    
   114   59   60 1    
   115   59  114 1    
   116   59  115 1    
   117   60   61 1    
   118   61  116 1    
   119   61  117 1    
@<TRIPOS>SUBSTRUCTURE
     1 UNK         1 GROUP             0       ****    0 ROOT    
