@<TRIPOS>MOLECULE
3R8
117   119    1
SMALL
USER_CHARGES


@<TRIPOS>ATOM
      1 CA         16.5266  -27.7294  -42.5115 C.3       0 UNK        -0.2013 
      2 C          15.5797  -26.6112  -42.9404 C.2       0 UNK         0.4866 
      3 O          14.4918  -26.5296  -42.3733 O.2       0 UNK        -0.5176 
      4 N          15.8800  -25.7317  -43.9100 N.am      1 UNK        -0.4884 
      5 CA         17.0789  -25.5299  -44.7405 C.3       1 UNK         0.0853 
      6 C6         17.5177  -26.7526  -45.5935 C.3       10 UNK        -0.0849 
      7 S7         16.2302  -27.4051  -46.7113 S.3       10 UNK        -0.2776 
      8 C8         15.9329  -29.0989  -46.0802 C.3       10 UNK         0.0316 
      9 C9         17.1954  -29.9252  -45.8248 C.ar      10 UNK        -0.0863 
     10 C10        17.2683  -30.7281  -44.6823 C.ar      10 UNK        -0.1009 
     11 C11        18.4241  -31.4583  -44.3917 C.ar      10 UNK        -0.0712 
     12 C12        19.5185  -31.3883  -45.2584 C.ar      10 UNK        -0.0894 
     13 C13        19.4625  -30.5910  -46.4055 C.ar      10 UNK        -0.0745 
     14 C14        18.2905  -29.8832  -46.6963 C.ar      10 UNK        -0.0972 
     15 C15        20.6804  -30.4608  -47.3125 C.3       10 UNK         0.0209 
     16 S16        22.0359  -29.5105  -46.5386 S.3       10 UNK        -0.2568 
     17 C17        21.2182  -27.9245  -46.1466 C.3       10 UNK        -0.0983 
     18 CA         21.9513  -27.0214  -45.1202 C.3       3 UNK         0.0876 
     19 N          21.2203  -25.7560  -44.9905 N.am      3 UNK        -0.4424 
     20 C          21.4401  -24.7415  -44.1402 C.2       2 UNK         0.4918 
     21 O          22.3855  -24.6866  -43.3538 O.2       2 UNK        -0.4875 
     22 CA         20.3751  -23.6255  -44.1365 C.3       2 UNK         0.0481 
     23 CB         20.8414  -22.4365  -44.9907 C.3       2 UNK        -0.1831 
     24 N          19.0630  -24.0912  -44.6148 N.am      2 UNK        -0.4498 
     25 C          18.2813  -24.9614  -43.9548 C.2       1 UNK         0.5027 
     26 O          18.5400  -25.3673  -42.8210 O.2       1 UNK        -0.4969 
     27 C          22.1712  -27.7391  -43.7679 C.2       3 UNK         0.5005 
     28 O          23.2317  -28.3340  -43.5710 O.2       3 UNK        -0.5279 
     29 N          21.2094  -27.6211  -42.8369 N.am      4 UNK        -0.4463 
     30 CA         21.2482  -28.2048  -41.4915 C.3       4 UNK         0.0283 
     31 CB         19.9513  -27.8648  -40.7429 C.3       4 UNK        -0.1875 
     32 C          22.4695  -27.8152  -40.6437 C.2       4 UNK         0.4949 
     33 O          22.8694  -28.6053  -39.7894 O.2       4 UNK        -0.5039 
     34 N          23.0692  -26.6471  -40.9163 N.am      5 UNK        -0.4663 
     35 CA         24.3163  -26.1961  -40.2925 C.3       5 UNK         0.0242 
     36 CB         24.5623  -24.7254  -40.6648 C.3       5 UNK        -0.1982 
     37 C          25.5393  -27.0574  -40.6649 C.2       5 UNK         0.5017 
     38 O          26.4961  -27.0956  -39.8905 O.2       5 UNK        -0.5012 
     39 N          25.4884  -27.7254  -41.8257 N.am      6 UNK        -0.4439 
     40 CA         26.5151  -28.6477  -42.3095 C.3       6 UNK         0.0297 
     41 CB         26.8412  -28.3196  -43.7762 C.3       6 UNK        -0.2006 
     42 C          26.0573  -30.1078  -42.1763 C.2       6 UNK         0.4892 
     43 O          26.8566  -30.9523  -41.7713 O.2       6 UNK        -0.5089 
     44 N          24.7938  -30.3842  -42.5304 N.am      7 UNK        -0.4243 
     45 CA         24.2093  -31.7262  -42.5545 C.3       7 UNK         0.0196 
     46 CB         22.9167  -31.7043  -43.3865 C.3       7 UNK        -0.2007 
     47 C          23.9418  -32.3218  -41.1636 C.2       7 UNK         0.5020 
     48 O          23.9899  -33.5452  -41.0333 O.2       7 UNK        -0.5147 
     49 N          23.6596  -31.4672  -40.1653 N.am      8 UNK        -0.4734 
     50 CA         23.3101  -31.8158  -38.7797 C.3       8 UNK         0.0238 
     51 CB         24.5371  -32.3874  -38.0373 C.3       8 UNK        -0.1912 
     52 C          22.0736  -32.7351  -38.7079 C.2       8 UNK         0.5038 
     53 O          22.1434  -33.8237  -38.1333 O.2       8 UNK        -0.5046 
     54 N          20.9863  -32.2829  -39.3480 N.am      9 UNK        -0.4200 
     55 CA         19.7115  -32.9945  -39.5380 C.3       9 UNK         0.0839 
     56 C          19.0898  -33.5386  -38.2217 C.2       9 UNK         0.5513 
     57 N          18.5469  -34.7482  -38.2439 N.am      9 UNK        -0.7519 
     58 O          19.0495  -32.8521  -37.2026 O.2       9 UNK        -0.4960 
     59 C59        18.6721  -32.1096  -40.2770 C.3       10 UNK        -0.0876 
     60 S60        19.3088  -31.3350  -41.8022 S.3       10 UNK        -0.2414 
     61 C61        18.4972  -32.2873  -43.1189 C.3       10 UNK         0.0169 
     62 H62        17.5340  -27.6403  -42.8985 H         1 UNK         0.0903 
     63 H63        16.6042  -27.7406  -41.4248 H         1 UNK         0.0903 
     64 H64        16.1276  -28.6927  -42.8223 H         1 UNK         0.0903 
     65 H65        15.1674  -25.0395  -44.0952 H         1 UNK         0.3096 
     66 H66        16.7792  -24.7498  -45.4429 H         1 UNK         0.1121 
     67 H67        17.9191  -27.5515  -44.9759 H         1 UNK         0.0849 
     68 H68        18.3447  -26.4644  -46.2442 H         1 UNK         0.0849 
     69 H69        15.3422  -29.0161  -45.1670 H         1 UNK         0.0865 
     70 H70        15.3082  -29.6328  -46.7972 H         1 UNK         0.0865 
     71 H71        16.4286  -30.7746  -44.0026 H         1 UNK         0.1346 
     72 H72        20.4249  -31.9295  -45.0247 H         1 UNK         0.1412 
     73 H73        18.2460  -29.2639  -47.5816 H         1 UNK         0.1426 
     74 H74        21.0477  -31.4560  -47.5665 H         1 UNK         0.0716 
     75 H75        20.4101  -29.9847  -48.2563 H         1 UNK         0.0716 
     76 H76        21.0888  -27.3888  -47.0884 H         1 UNK         0.0695 
     77 H77        20.2147  -28.1296  -45.7763 H         1 UNK         0.0695 
     78 H78        22.9397  -26.7794  -45.5157 H         1 UNK         0.0983 
     79 H79        20.4347  -25.6531  -45.6126 H         1 UNK         0.3095 
     80 H80        20.2612  -23.2815  -43.1063 H         1 UNK         0.0454 
     81 H81        20.9662  -22.7119  -46.0386 H         1 UNK         0.0851 
     82 H82        20.1323  -21.6100  -44.9418 H         1 UNK         0.0851 
     83 H83        21.8015  -22.0569  -44.6379 H         1 UNK         0.0851 
     84 H84        18.7832  -23.7760  -45.5337 H         1 UNK         0.2976 
     85 H85        20.3917  -27.0711  -43.0601 H         1 UNK         0.3116 
     86 H86        21.2977  -29.2858  -41.6167 H         1 UNK         0.0646 
     87 H87        19.7938  -26.7878  -40.6717 H         1 UNK         0.0847 
     88 H88        19.0865  -28.3019  -41.2387 H         1 UNK         0.0847 
     89 H89        19.9673  -28.2622  -39.7270 H         1 UNK         0.0847 
     90 H90        22.6904  -26.0627  -41.6532 H         1 UNK         0.3040 
     91 H91        24.1922  -26.2612  -39.2091 H         1 UNK         0.1015 
     92 H92        24.6929  -24.5988  -41.7404 H         1 UNK         0.0786 
     93 H93        25.4621  -24.3444  -40.1796 H         1 UNK         0.0786 
     94 H94        23.7324  -24.0917  -40.3515 H         1 UNK         0.0786 
     95 H95        24.6399  -27.6666  -42.3813 H         1 UNK         0.3172 
     96 H96        27.4334  -28.5328  -41.7298 H         1 UNK         0.0595 
     97 H97        27.6047  -28.9940  -44.1663 H         1 UNK         0.0839 
     98 H98        27.2239  -27.3040  -43.8776 H         1 UNK         0.0839 
     99 H99        25.9646  -28.4119  -44.4191 H         1 UNK         0.0839 
    100 H100       24.2102  -29.6320  -42.8953 H         1 UNK         0.2998 
    101 H101       24.9182  -32.3883  -43.0565 H         1 UNK         0.0822 
    102 H102       22.4514  -32.6905  -43.4179 H         1 UNK         0.0787 
    103 H103       22.1821  -31.0109  -42.9780 H         1 UNK         0.0787 
    104 H104       23.1167  -31.4077  -44.4159 H         1 UNK         0.0787 
    105 H105       23.6310  -30.4748  -40.3739 H         1 UNK         0.3055 
    106 H106       23.0307  -30.8859  -38.2812 H         1 UNK         0.1106 
    107 H107       25.3794  -31.6968  -38.0758 H         1 UNK         0.0828 
    108 H108       24.3090  -32.5624  -36.9852 H         1 UNK         0.0828 
    109 H109       24.8637  -33.3376  -38.4609 H         1 UNK         0.0828 
    110 H110       21.0432  -31.3844  -39.8028 H         1 UNK         0.2931 
    111 H111       19.9400  -33.8467  -40.1813 H         1 UNK         0.0412 
    112 H112       18.1223  -35.1108  -37.4042 H         1 UNK         0.3472 
    113 H113       18.5657  -35.3135  -39.0790 H         1 UNK         0.3472 
    114 H114       17.7778  -32.6905  -40.5090 H         1 UNK         0.0970 
    115 H115       18.3368  -31.3007  -39.6246 H         1 UNK         0.0970 
    116 H116       19.0517  -33.2102  -43.2945 H         1 UNK         0.0612 
    117 H117       17.4927  -32.5784  -42.8087 H         1 UNK         0.0612 
@<TRIPOS>BOND
     1    1    2 1    
     2    1   62 1    
     3    1   63 1    
     4    1   64 1    
     5    2    3 2    
     6    2    4 am   BACKBONE|DICT|INTERRES
     7    4    5 1    
     8    4   65 1    
     9    5    6 1    
    10    5   25 1    
    11    5   66 1    
    12    6    7 1    
    13    6   67 1    
    14    6   68 1    
    15    7    8 1    
    16    8    9 1    
    17    8   69 1    
    18    8   70 1    
    19    9   10 ar   
    20    9   14 ar   
    21   10   11 ar   
    22   10   71 1    
    23   11   12 ar   
    24   11   61 1    
    25   12   13 ar   
    26   12   72 1    
    27   13   14 ar   
    28   13   15 1    
    29   14   73 1    
    30   15   16 1    
    31   15   74 1    
    32   15   75 1    
    33   16   17 1    
    34   17   18 1    
    35   17   76 1    
    36   17   77 1    
    37   18   19 1    
    38   18   27 1    
    39   18   78 1    
    40   19   20 am   BACKBONE|DICT|INTERRES
    41   19   79 1    
    42   20   21 2    
    43   20   22 1    
    44   22   23 1    
    45   22   24 1    
    46   22   80 1    
    47   23   81 1    
    48   23   82 1    
    49   23   83 1    
    50   24   25 am   BACKBONE|DICT|INTERRES
    51   24   84 1    
    52   25   26 2    
    53   27   28 2    
    54   27   29 am   BACKBONE|DICT|INTERRES
    55   29   30 1    
    56   29   85 1    
    57   30   31 1    
    58   30   32 1    
    59   30   86 1    
    60   31   87 1    
    61   31   88 1    
    62   31   89 1    
    63   32   33 2    
    64   32   34 am   BACKBONE|DICT|INTERRES
    65   34   35 1    
    66   34   90 1    
    67   35   36 1    
    68   35   37 1    
    69   35   91 1    
    70   36   92 1    
    71   36   93 1    
    72   36   94 1    
    73   37   38 2    
    74   37   39 am   BACKBONE|DICT|INTERRES
    75   39   40 1    
    76   39   95 1    
    77   40   41 1    
    78   40   42 1    
    79   40   96 1    
    80   41   97 1    
    81   41   98 1    
    82   41   99 1    
    83   42   43 2    
    84   42   44 am   BACKBONE|DICT|INTERRES
    85   44   45 1    
    86   44  100 1    
    87   45   46 1    
    88   45   47 1    
    89   45  101 1    
    90   46  102 1    
    91   46  103 1    
    92   46  104 1    
    93   47   48 2    
    94   47   49 am   BACKBONE|DICT|INTERRES
    95   49   50 1    
    96   49  105 1    
    97   50   51 1    
    98   50   52 1    
    99   50  106 1    
   100   51  107 1    
   101   51  108 1    
   102   51  109 1    
   103   52   53 2    
   104   52   54 am   BACKBONE|DICT|INTERRES
   105   54   55 1    
   106   54  110 1    
   107   55   56 1    
   108   55   59 1    
   109   55  111 1    
   110   56   57 am   BACKBONE|DICT|INTERRES
   111   56   58 2    
   112   57  112 1    
   113   57  113 1    
   114   59   60 1    
   115   59  114 1    
   116   59  115 1    
   117   60   61 1    
   118   61  116 1    
   119   61  117 1    
@<TRIPOS>SUBSTRUCTURE
     1 UNK         1 GROUP             0       ****    0 ROOT    
