@<TRIPOS>MOLECULE
3R8
117   119    1
SMALL
USER_CHARGES


@<TRIPOS>ATOM
      1 CA         16.5889  -22.3893  -46.7750 C.3       0 UNK        -0.2013 
      2 C          17.7189  -23.4079  -46.7625 C.2       0 UNK         0.4866 
      3 O          18.8741  -23.0430  -46.9804 O.2       0 UNK        -0.5176 
      4 N          17.3961  -24.6831  -46.5055 N.am      1 UNK        -0.4884 
      5 CA         18.3574  -25.7955  -46.4586 C.3       1 UNK         0.0853 
      6 C6         17.6541  -27.1531  -46.7291 C.3       10 UNK        -0.0849 
      7 S7         18.7429  -28.3324  -47.5961 S.3       10 UNK        -0.2776 
      8 C8         17.8337  -29.8968  -47.3878 C.3       10 UNK         0.0316 
      9 C9         17.8711  -30.4025  -45.9519 C.ar      10 UNK        -0.0863 
     10 C10        19.0748  -30.8465  -45.3960 C.ar      10 UNK        -0.1009 
     11 C11        19.1156  -31.3225  -44.0830 C.ar      10 UNK        -0.0712 
     12 C12        17.9362  -31.3913  -43.3388 C.ar      10 UNK        -0.0894 
     13 C13        16.7288  -30.9311  -43.8737 C.ar      10 UNK        -0.0745 
     14 C14        16.7030  -30.4401  -45.1831 C.ar      10 UNK        -0.0972 
     15 C15        15.4493  -30.9674  -43.0453 C.3       10 UNK         0.0209 
     16 S16        15.6574  -30.2682  -41.3726 S.3       10 UNK        -0.2568 
     17 C17        16.1359  -28.5419  -41.7300 C.3       10 UNK        -0.0983 
     18 CA         17.6496  -28.2612  -41.5332 C.3       3 UNK         0.0876 
     19 N          18.0022  -26.9391  -42.0578 N.am      3 UNK        -0.4424 
     20 C          19.2154  -26.3658  -42.0487 C.2       2 UNK         0.4918 
     21 O          20.2202  -26.8630  -41.5414 O.2       2 UNK        -0.4875 
     22 CA         19.3043  -25.0067  -42.7689 C.3       2 UNK         0.0481 
     23 CB         20.7329  -24.4193  -42.7827 C.3       2 UNK        -0.1831 
     24 N          18.7430  -25.0751  -44.1253 N.am      2 UNK        -0.4498 
     25 C          19.1804  -25.8300  -45.1485 C.2       1 UNK         0.5027 
     26 O          20.1869  -26.5368  -45.0927 O.2       1 UNK        -0.4969 
     27 C          18.0962  -28.4455  -40.0655 C.2       3 UNK         0.5005 
     28 O          17.5987  -27.7433  -39.1811 O.2       3 UNK        -0.5279 
     29 N          19.0301  -29.3777  -39.8529 N.am      4 UNK        -0.4463 
     30 CA         19.6533  -29.7342  -38.5825 C.3       4 UNK         0.0283 
     31 CB         20.5498  -28.5804  -38.0745 C.3       4 UNK        -0.1875 
     32 C          20.4125  -31.0525  -38.8136 C.2       4 UNK         0.4949 
     33 O          19.9356  -31.8943  -39.5791 O.2       4 UNK        -0.5039 
     34 N          21.5829  -31.2133  -38.1820 N.am      5 UNK        -0.4663 
     35 CA         22.5450  -32.2724  -38.4962 C.3       5 UNK         0.0242 
     36 CB         23.6085  -32.3324  -37.3879 C.3       5 UNK        -0.1982 
     37 C          23.2070  -32.0004  -39.8570 C.2       5 UNK         0.5017 
     38 O          23.4535  -30.8372  -40.1802 O.2       5 UNK        -0.5012 
     39 N          23.5167  -33.0664  -40.6083 N.am      6 UNK        -0.4439 
     40 CA         24.0075  -33.0265  -41.9949 C.3       6 UNK         0.0297 
     41 CB         24.2523  -34.4619  -42.4868 C.3       6 UNK        -0.2006 
     42 C          25.2548  -32.1563  -42.2447 C.2       6 UNK         0.4892 
     43 O          25.4038  -31.6277  -43.3461 O.2       6 UNK        -0.5089 
     44 N          26.1107  -32.0073  -41.2248 N.am      7 UNK        -0.4243 
     45 CA         27.2877  -31.1359  -41.2470 C.3       7 UNK         0.0196 
     46 CB         28.2122  -31.5152  -40.0785 C.3       7 UNK        -0.2007 
     47 C          26.9467  -29.6337  -41.1935 C.2       7 UNK         0.5020 
     48 O          27.7537  -28.8251  -41.6528 O.2       7 UNK        -0.5147 
     49 N          25.7852  -29.2795  -40.6267 N.am      8 UNK        -0.4734 
     50 CA         25.3044  -27.9006  -40.5070 C.3       8 UNK         0.0238 
     51 CB         24.5581  -27.7418  -39.1719 C.3       8 UNK        -0.1912 
     52 C          24.4012  -27.4903  -41.6818 C.2       8 UNK         0.5038 
     53 O          24.3099  -26.2949  -41.9658 O.2       8 UNK        -0.5046 
     54 N          23.7568  -28.4680  -42.3340 N.am      9 UNK        -0.4200 
     55 CA         22.8984  -28.2790  -43.5142 C.3       9 UNK         0.0839 
     56 C          23.6506  -27.6725  -44.7315 C.2       9 UNK         0.5513 
     57 N          22.9503  -26.9369  -45.5821 N.am      9 UNK        -0.7519 
     58 O          24.8413  -27.8992  -44.9385 O.2       9 UNK        -0.4960 
     59 C59        22.1863  -29.5919  -43.9287 C.3       10 UNK        -0.0876 
     60 S60        21.1935  -30.3250  -42.5880 S.3       10 UNK        -0.2414 
     61 C61        20.4314  -31.7347  -43.4464 C.3       10 UNK         0.0169 
     62 H62        16.5312  -21.9060  -47.7500 H         1 UNK         0.0903 
     63 H63        15.6223  -22.8478  -46.5669 H         1 UNK         0.0903 
     64 H64        16.7683  -21.6203  -46.0241 H         1 UNK         0.0903 
     65 H65        16.4288  -24.9260  -46.3397 H         1 UNK         0.3096 
     66 H66        19.0787  -25.6218  -47.2612 H         1 UNK         0.1121 
     67 H67        17.2743  -27.5968  -45.8066 H         1 UNK         0.0849 
     68 H68        16.7833  -27.0101  -47.3712 H         1 UNK         0.0849 
     69 H69        16.8067  -29.7665  -47.7328 H         1 UNK         0.0865 
     70 H70        18.2786  -30.6504  -48.0392 H         1 UNK         0.0865 
     71 H71        19.9821  -30.8029  -45.9826 H         1 UNK         0.1346 
     72 H72        17.9663  -31.7690  -42.3255 H         1 UNK         0.1412 
     73 H73        15.7709  -30.0917  -45.6072 H         1 UNK         0.1426 
     74 H74        14.6432  -30.4321  -43.5494 H         1 UNK         0.0716 
     75 H75        15.1218  -32.0037  -42.9538 H         1 UNK         0.0716 
     76 H76        15.5394  -27.8838  -41.0953 H         1 UNK         0.0695 
     77 H77        15.8437  -28.3090  -42.7553 H         1 UNK         0.0695 
     78 H78        18.2066  -28.9686  -42.1488 H         1 UNK         0.0983 
     79 H79        17.2470  -26.4254  -42.4850 H         1 UNK         0.3095 
     80 H80        18.6732  -24.3163  -42.2074 H         1 UNK         0.0454 
     81 H81        20.7616  -23.4557  -43.2908 H         1 UNK         0.0851 
     82 H82        21.4449  -25.0806  -43.2774 H         1 UNK         0.0851 
     83 H83        21.0972  -24.2622  -41.7669 H         1 UNK         0.0851 
     84 H84        17.9160  -24.5186  -44.2892 H         1 UNK         0.2976 
     85 H85        19.3676  -29.9274  -40.6349 H         1 UNK         0.3116 
     86 H86        18.8675  -29.9303  -37.8509 H         1 UNK         0.0646 
     87 H87        19.9805  -27.6615  -37.9373 H         1 UNK         0.0847 
     88 H88        20.9982  -28.8107  -37.1078 H         1 UNK         0.0847 
     89 H89        21.3526  -28.3621  -38.7795 H         1 UNK         0.0847 
     90 H90        21.9202  -30.4599  -37.6016 H         1 UNK         0.3040 
     91 H91        22.0152  -33.2268  -38.5368 H         1 UNK         0.1015 
     92 H92        24.1716  -31.4005  -37.3168 H         1 UNK         0.0786 
     93 H93        24.3254  -33.1328  -37.5759 H         1 UNK         0.0786 
     94 H94        23.1567  -32.5265  -36.4149 H         1 UNK         0.0786 
     95 H95        23.3063  -33.9837  -40.2413 H         1 UNK         0.3172 
     96 H96        23.2049  -32.6006  -42.5986 H         1 UNK         0.0595 
     97 H97        25.0128  -34.9687  -41.8914 H         1 UNK         0.0839 
     98 H98        24.5938  -34.4673  -43.5231 H         1 UNK         0.0839 
     99 H99        23.3403  -35.0579  -42.4481 H         1 UNK         0.0839 
    100 H100       25.9053  -32.4797  -40.3567 H         1 UNK         0.2998 
    101 H101       27.8261  -31.3150  -42.1804 H         1 UNK         0.0822 
    102 H102       28.5274  -32.5569  -40.1428 H         1 UNK         0.0787 
    103 H103       29.1161  -30.9043  -40.0822 H         1 UNK         0.0787 
    104 H104       27.7244  -31.3692  -39.1138 H         1 UNK         0.0787 
    105 H105       25.1361  -30.0030  -40.3270 H         1 UNK         0.3055 
    106 H106       26.1549  -27.2149  -40.4984 H         1 UNK         0.1106 
    107 H107       25.2110  -27.9546  -38.3254 H         1 UNK         0.0828 
    108 H108       24.1883  -26.7229  -39.0491 H         1 UNK         0.0828 
    109 H109       23.6998  -28.4099  -39.1085 H         1 UNK         0.0828 
    110 H110       23.8521  -29.4166  -41.9993 H         1 UNK         0.2931 
    111 H111       22.1300  -27.5622  -43.2220 H         1 UNK         0.0412 
    112 H112       21.9563  -26.7762  -45.4250 H         1 UNK         0.3472 
    113 H113       23.4039  -26.5440  -46.3911 H         1 UNK         0.3472 
    114 H114       21.5212  -29.3994  -44.7723 H         1 UNK         0.0970 
    115 H115       22.9154  -30.3310  -44.2670 H         1 UNK         0.0970 
    116 H116       21.1155  -32.1399  -44.1934 H         1 UNK         0.0612 
    117 H117       20.2611  -32.5323  -42.7214 H         1 UNK         0.0612 
@<TRIPOS>BOND
     1    1    2 1    
     2    1   62 1    
     3    1   63 1    
     4    1   64 1    
     5    2    3 2    
     6    2    4 am   BACKBONE|DICT|INTERRES
     7    4    5 1    
     8    4   65 1    
     9    5    6 1    
    10    5   25 1    
    11    5   66 1    
    12    6    7 1    
    13    6   67 1    
    14    6   68 1    
    15    7    8 1    
    16    8    9 1    
    17    8   69 1    
    18    8   70 1    
    19    9   10 ar   
    20    9   14 ar   
    21   10   11 ar   
    22   10   71 1    
    23   11   12 ar   
    24   11   61 1    
    25   12   13 ar   
    26   12   72 1    
    27   13   14 ar   
    28   13   15 1    
    29   14   73 1    
    30   15   16 1    
    31   15   74 1    
    32   15   75 1    
    33   16   17 1    
    34   17   18 1    
    35   17   76 1    
    36   17   77 1    
    37   18   19 1    
    38   18   27 1    
    39   18   78 1    
    40   19   20 am   BACKBONE|DICT|INTERRES
    41   19   79 1    
    42   20   21 2    
    43   20   22 1    
    44   22   23 1    
    45   22   24 1    
    46   22   80 1    
    47   23   81 1    
    48   23   82 1    
    49   23   83 1    
    50   24   25 am   BACKBONE|DICT|INTERRES
    51   24   84 1    
    52   25   26 2    
    53   27   28 2    
    54   27   29 am   BACKBONE|DICT|INTERRES
    55   29   30 1    
    56   29   85 1    
    57   30   31 1    
    58   30   32 1    
    59   30   86 1    
    60   31   87 1    
    61   31   88 1    
    62   31   89 1    
    63   32   33 2    
    64   32   34 am   BACKBONE|DICT|INTERRES
    65   34   35 1    
    66   34   90 1    
    67   35   36 1    
    68   35   37 1    
    69   35   91 1    
    70   36   92 1    
    71   36   93 1    
    72   36   94 1    
    73   37   38 2    
    74   37   39 am   BACKBONE|DICT|INTERRES
    75   39   40 1    
    76   39   95 1    
    77   40   41 1    
    78   40   42 1    
    79   40   96 1    
    80   41   97 1    
    81   41   98 1    
    82   41   99 1    
    83   42   43 2    
    84   42   44 am   BACKBONE|DICT|INTERRES
    85   44   45 1    
    86   44  100 1    
    87   45   46 1    
    88   45   47 1    
    89   45  101 1    
    90   46  102 1    
    91   46  103 1    
    92   46  104 1    
    93   47   48 2    
    94   47   49 am   BACKBONE|DICT|INTERRES
    95   49   50 1    
    96   49  105 1    
    97   50   51 1    
    98   50   52 1    
    99   50  106 1    
   100   51  107 1    
   101   51  108 1    
   102   51  109 1    
   103   52   53 2    
   104   52   54 am   BACKBONE|DICT|INTERRES
   105   54   55 1    
   106   54  110 1    
   107   55   56 1    
   108   55   59 1    
   109   55  111 1    
   110   56   57 am   BACKBONE|DICT|INTERRES
   111   56   58 2    
   112   57  112 1    
   113   57  113 1    
   114   59   60 1    
   115   59  114 1    
   116   59  115 1    
   117   60   61 1    
   118   61  116 1    
   119   61  117 1    
@<TRIPOS>SUBSTRUCTURE
     1 UNK         1 GROUP             0       ****    0 ROOT    
