@<TRIPOS>MOLECULE
3R8
117   119    1
SMALL
USER_CHARGES


@<TRIPOS>ATOM
      1 CA         17.5282  -26.9234  -38.4531 C.3       0 UNK        -0.2013 
      2 C          17.4062  -26.2846  -39.8275 C.2       0 UNK         0.4866 
      3 O          17.2032  -25.0738  -39.9241 O.2       0 UNK        -0.5176 
      4 N          17.5086  -27.0915  -40.8912 N.am      1 UNK        -0.4884 
      5 CA         17.3774  -26.6464  -42.2838 C.3       1 UNK         0.0853 
      6 C6         17.1029  -27.8287  -43.2406 C.3       10 UNK        -0.0849 
      7 S7         15.5212  -28.6628  -42.8795 S.3       10 UNK        -0.2776 
      8 C8         15.3097  -29.6714  -44.3816 C.3       10 UNK         0.0316 
      9 C9         16.4362  -30.6821  -44.5356 C.ar      10 UNK        -0.0863 
     10 C10        16.4217  -31.8672  -43.7949 C.ar      10 UNK        -0.1009 
     11 C11        17.4711  -32.7838  -43.9027 C.ar      10 UNK        -0.0712 
     12 C12        18.5345  -32.5129  -44.7688 C.ar      10 UNK        -0.0894 
     13 C13        18.5703  -31.3202  -45.4981 C.ar      10 UNK        -0.0745 
     14 C14        17.5088  -30.4179  -45.3927 C.ar      10 UNK        -0.0972 
     15 C15        19.7685  -30.9927  -46.3748 C.3       10 UNK         0.0209 
     16 S16        20.8922  -29.8317  -45.5323 S.3       10 UNK        -0.2568 
     17 C17        20.5453  -28.2792  -46.4349 C.3       10 UNK        -0.0983 
     18 CA         21.4416  -27.0810  -46.0141 C.3       3 UNK         0.0876 
     19 N          21.2559  -26.7680  -44.5901 N.am      3 UNK        -0.4424 
     20 C          21.4768  -25.5890  -43.9944 C.2       2 UNK         0.4918 
     21 O          21.9743  -24.6217  -44.5731 O.2       2 UNK        -0.4875 
     22 CA         21.0807  -25.4854  -42.5076 C.3       2 UNK         0.0481 
     23 CB         21.1150  -24.0377  -41.9773 C.3       2 UNK        -0.1831 
     24 N          19.7861  -26.1090  -42.2050 N.am      2 UNK        -0.4498 
     25 C          18.5982  -25.8409  -42.7740 C.2       1 UNK         0.5027 
     26 O          18.4352  -25.0033  -43.6626 O.2       1 UNK        -0.4969 
     27 C          22.9283  -27.2318  -46.4360 C.2       3 UNK         0.5005 
     28 O          23.2584  -28.1321  -47.2104 O.2       3 UNK        -0.5279 
     29 N          23.8017  -26.3526  -45.9173 N.am      4 UNK        -0.4463 
     30 CA         25.2685  -26.3726  -46.0235 C.3       4 UNK         0.0283 
     31 CB         25.7258  -26.0920  -47.4709 C.3       4 UNK        -0.1875 
     32 C          25.8628  -27.6700  -45.4387 C.2       4 UNK         0.4949 
     33 O          26.7071  -28.3123  -46.0661 O.2       4 UNK        -0.5039 
     34 N          25.3739  -28.0414  -44.2506 N.am      5 UNK        -0.4663 
     35 CA         25.6732  -29.2896  -43.5547 C.3       5 UNK         0.0242 
     36 CB         24.7007  -30.3799  -44.0422 C.3       5 UNK        -0.1982 
     37 C          25.6219  -29.0608  -42.0348 C.2       5 UNK         0.5017 
     38 O          25.7048  -27.9135  -41.5875 O.2       5 UNK        -0.5012 
     39 N          25.4947  -30.1449  -41.2581 N.am      6 UNK        -0.4439 
     40 CA         25.5412  -30.1777  -39.7912 C.3       6 UNK         0.0297 
     41 CB         25.8896  -31.6099  -39.3433 C.3       6 UNK        -0.2006 
     42 C          24.2607  -29.6439  -39.1125 C.2       6 UNK         0.4892 
     43 O          23.6927  -30.3201  -38.2517 O.2       6 UNK        -0.5089 
     44 N          23.8488  -28.4296  -39.5009 N.am      7 UNK        -0.4243 
     45 CA         22.7192  -27.6259  -39.0186 C.3       7 UNK         0.0196 
     46 CB         22.9055  -27.2221  -37.5425 C.3       7 UNK        -0.2007 
     47 C          21.3386  -28.2575  -39.2577 C.2       7 UNK         0.5020 
     48 O          20.5320  -27.6781  -39.9821 O.2       7 UNK        -0.5147 
     49 N          21.0765  -29.4116  -38.6357 N.am      8 UNK        -0.4734 
     50 CA         19.8092  -30.1367  -38.7215 C.3       8 UNK         0.0238 
     51 CB         19.7524  -31.2219  -37.6324 C.3       8 UNK        -0.1912 
     52 C          19.5790  -30.7225  -40.1208 C.2       8 UNK         0.5038 
     53 O          18.6005  -30.3587  -40.7736 O.2       8 UNK        -0.5046 
     54 N          20.5069  -31.5895  -40.5381 N.am      9 UNK        -0.4200 
     55 CA         20.5502  -32.2718  -41.8347 C.3       9 UNK         0.0839 
     56 C          22.0094  -32.3156  -42.3570 C.2       9 UNK         0.5513 
     57 N          22.1972  -32.6052  -43.6366 N.am      9 UNK        -0.7519 
     58 O          22.9731  -32.1282  -41.6159 O.2       9 UNK        -0.4960 
     59 C59        19.9573  -33.7094  -41.7669 C.3       10 UNK        -0.0876 
     60 S60        18.1678  -33.7738  -41.4102 S.3       10 UNK        -0.2414 
     61 C61        17.4600  -34.0544  -43.0661 C.3       10 UNK         0.0169 
     62 H62        16.9280  -26.3777  -37.7254 H         1 UNK         0.0903 
     63 H63        17.1779  -27.9548  -38.4650 H         1 UNK         0.0903 
     64 H64        18.5655  -26.9072  -38.1199 H         1 UNK         0.0903 
     65 H65        17.6917  -28.0795  -40.7636 H         1 UNK         0.3096 
     66 H66        16.5220  -25.9686  -42.3369 H         1 UNK         0.1121 
     67 H67        17.0732  -27.4842  -44.2766 H         1 UNK         0.0849 
     68 H68        17.9091  -28.5635  -43.1798 H         1 UNK         0.0849 
     69 H69        14.3532  -30.1935  -44.3281 H         1 UNK         0.0865 
     70 H70        15.2517  -29.0196  -45.2548 H         1 UNK         0.0865 
     71 H71        15.6040  -32.0646  -43.1150 H         1 UNK         0.1346 
     72 H72        19.3470  -33.2201  -44.8529 H         1 UNK         0.1412 
     73 H73        17.5348  -29.4947  -45.9549 H         1 UNK         0.1426 
     74 H74        19.4332  -30.5817  -47.3281 H         1 UNK         0.0716 
     75 H75        20.3223  -31.9011  -46.6161 H         1 UNK         0.0716 
     76 H76        19.4981  -28.0212  -46.2703 H         1 UNK         0.0695 
     77 H77        20.6371  -28.4639  -47.5069 H         1 UNK         0.0695 
     78 H78        21.0802  -26.2168  -46.5761 H         1 UNK         0.0983 
     79 H79        20.8815  -27.5220  -44.0326 H         1 UNK         0.3095 
     80 H80        21.8292  -26.0552  -41.9558 H         1 UNK         0.0454 
     81 H81        22.1083  -23.6015  -42.0893 H         1 UNK         0.0851 
     82 H82        20.8631  -23.9992  -40.9176 H         1 UNK         0.0851 
     83 H83        20.4146  -23.3950  -42.5118 H         1 UNK         0.0851 
     84 H84        19.8115  -26.7938  -41.4502 H         1 UNK         0.2976 
     85 H85        23.4055  -25.6165  -45.3381 H         1 UNK         0.3116 
     86 H86        25.6353  -25.5568  -45.3987 H         1 UNK         0.0646 
     87 H87        25.3000  -25.1627  -47.8488 H         1 UNK         0.0847 
     88 H88        25.4389  -26.8939  -48.1516 H         1 UNK         0.0847 
     89 H89        26.8109  -25.9960  -47.5241 H         1 UNK         0.0847 
     90 H90        24.7477  -27.4164  -43.7621 H         1 UNK         0.3040 
     91 H91        26.6955  -29.5952  -43.7887 H         1 UNK         0.1015 
     92 H92        24.9540  -31.3580  -43.6334 H         1 UNK         0.0786 
     93 H93        24.7252  -30.4764  -45.1281 H         1 UNK         0.0786 
     94 H94        23.6731  -30.1488  -43.7585 H         1 UNK         0.0786 
     95 H95        25.3229  -31.0340  -41.7076 H         1 UNK         0.3172 
     96 H96        26.3568  -29.5281  -39.4667 H         1 UNK         0.0595 
     97 H97        25.1125  -32.3200  -39.6302 H         1 UNK         0.0839 
     98 H98        25.9997  -31.6670  -38.2594 H         1 UNK         0.0839 
     99 H99        26.8307  -31.9463  -39.7784 H         1 UNK         0.0839 
    100 H100       24.4057  -27.9968  -40.2343 H         1 UNK         0.2998 
    101 H101       22.7430  -26.7070  -39.6069 H         1 UNK         0.0822 
    102 H102       23.8316  -26.6652  -37.4004 H         1 UNK         0.0787 
    103 H103       22.0883  -26.5813  -37.2086 H         1 UNK         0.0787 
    104 H104       22.9318  -28.0861  -36.8778 H         1 UNK         0.0787 
    105 H105       21.8477  -29.8536  -38.1417 H         1 UNK         0.3055 
    106 H106       19.0019  -29.4301  -38.5280 H         1 UNK         0.1106 
    107 H107       19.7859  -30.7812  -36.6359 H         1 UNK         0.0828 
    108 H108       18.8265  -31.7949  -37.7011 H         1 UNK         0.0828 
    109 H109       20.5801  -31.9275  -37.7117 H         1 UNK         0.0828 
    110 H110       21.3219  -31.7443  -39.9606 H         1 UNK         0.2931 
    111 H111       19.9826  -31.6781  -42.5529 H         1 UNK         0.0412 
    112 H112       21.4207  -32.7222  -44.2649 H         1 UNK         0.3472 
    113 H113       23.1376  -32.6630  -43.9908 H         1 UNK         0.3472 
    114 H114       20.1400  -34.2502  -42.6967 H         1 UNK         0.0970 
    115 H115       20.4702  -34.2848  -40.9941 H         1 UNK         0.0970 
    116 H116       16.4334  -34.4052  -42.9501 H         1 UNK         0.0612 
    117 H117       17.9978  -34.8574  -43.5722 H         1 UNK         0.0612 
@<TRIPOS>BOND
     1    1    2 1    
     2    1   62 1    
     3    1   63 1    
     4    1   64 1    
     5    2    3 2    
     6    2    4 am   BACKBONE|DICT|INTERRES
     7    4    5 1    
     8    4   65 1    
     9    5    6 1    
    10    5   25 1    
    11    5   66 1    
    12    6    7 1    
    13    6   67 1    
    14    6   68 1    
    15    7    8 1    
    16    8    9 1    
    17    8   69 1    
    18    8   70 1    
    19    9   10 ar   
    20    9   14 ar   
    21   10   11 ar   
    22   10   71 1    
    23   11   12 ar   
    24   11   61 1    
    25   12   13 ar   
    26   12   72 1    
    27   13   14 ar   
    28   13   15 1    
    29   14   73 1    
    30   15   16 1    
    31   15   74 1    
    32   15   75 1    
    33   16   17 1    
    34   17   18 1    
    35   17   76 1    
    36   17   77 1    
    37   18   19 1    
    38   18   27 1    
    39   18   78 1    
    40   19   20 am   BACKBONE|DICT|INTERRES
    41   19   79 1    
    42   20   21 2    
    43   20   22 1    
    44   22   23 1    
    45   22   24 1    
    46   22   80 1    
    47   23   81 1    
    48   23   82 1    
    49   23   83 1    
    50   24   25 am   BACKBONE|DICT|INTERRES
    51   24   84 1    
    52   25   26 2    
    53   27   28 2    
    54   27   29 am   BACKBONE|DICT|INTERRES
    55   29   30 1    
    56   29   85 1    
    57   30   31 1    
    58   30   32 1    
    59   30   86 1    
    60   31   87 1    
    61   31   88 1    
    62   31   89 1    
    63   32   33 2    
    64   32   34 am   BACKBONE|DICT|INTERRES
    65   34   35 1    
    66   34   90 1    
    67   35   36 1    
    68   35   37 1    
    69   35   91 1    
    70   36   92 1    
    71   36   93 1    
    72   36   94 1    
    73   37   38 2    
    74   37   39 am   BACKBONE|DICT|INTERRES
    75   39   40 1    
    76   39   95 1    
    77   40   41 1    
    78   40   42 1    
    79   40   96 1    
    80   41   97 1    
    81   41   98 1    
    82   41   99 1    
    83   42   43 2    
    84   42   44 am   BACKBONE|DICT|INTERRES
    85   44   45 1    
    86   44  100 1    
    87   45   46 1    
    88   45   47 1    
    89   45  101 1    
    90   46  102 1    
    91   46  103 1    
    92   46  104 1    
    93   47   48 2    
    94   47   49 am   BACKBONE|DICT|INTERRES
    95   49   50 1    
    96   49  105 1    
    97   50   51 1    
    98   50   52 1    
    99   50  106 1    
   100   51  107 1    
   101   51  108 1    
   102   51  109 1    
   103   52   53 2    
   104   52   54 am   BACKBONE|DICT|INTERRES
   105   54   55 1    
   106   54  110 1    
   107   55   56 1    
   108   55   59 1    
   109   55  111 1    
   110   56   57 am   BACKBONE|DICT|INTERRES
   111   56   58 2    
   112   57  112 1    
   113   57  113 1    
   114   59   60 1    
   115   59  114 1    
   116   59  115 1    
   117   60   61 1    
   118   61  116 1    
   119   61  117 1    
@<TRIPOS>SUBSTRUCTURE
     1 UNK         1 GROUP             0       ****    0 ROOT    
