@<TRIPOS>MOLECULE
3R8
117   119    1
SMALL
USER_CHARGES


@<TRIPOS>ATOM
      1 CA         19.9628  -23.0814  -43.2686 C.3       0 UNK        -0.2013 
      2 C          19.7460  -24.4935  -43.7924 C.2       0 UNK         0.4866 
      3 O          19.5452  -25.4096  -42.9924 O.2       0 UNK        -0.5176 
      4 N          19.8067  -24.6494  -45.1238 N.am      1 UNK        -0.4884 
      5 CA         19.6592  -25.8531  -45.9620 C.3       1 UNK         0.0853 
      6 C6         18.1934  -26.2900  -46.2413 C.3       10 UNK        -0.0849 
      7 S7         17.1906  -26.7696  -44.7904 S.3       10 UNK        -0.2776 
      8 C8         16.1991  -28.1500  -45.4448 C.3       10 UNK         0.0316 
      9 C9         16.6640  -29.4960  -44.9072 C.ar      10 UNK        -0.0863 
     10 C10        17.2856  -30.4315  -45.7423 C.ar      10 UNK        -0.1009 
     11 C11        17.6200  -31.7037  -45.2600 C.ar      10 UNK        -0.0712 
     12 C12        17.3474  -32.0242  -43.9267 C.ar      10 UNK        -0.0894 
     13 C13        16.7414  -31.0908  -43.0800 C.ar      10 UNK        -0.0745 
     14 C14        16.4018  -29.8306  -43.5763 C.ar      10 UNK        -0.0972 
     15 C15        16.4009  -31.4649  -41.6461 C.3       10 UNK         0.0209 
     16 S16        17.8393  -31.3382  -40.5435 S.3       10 UNK        -0.2568 
     17 C17        17.9647  -29.5451  -40.2393 C.3       10 UNK        -0.0983 
     18 CA         19.4121  -29.0365  -40.4515 C.3       3 UNK         0.0876 
     19 N          19.7622  -28.8865  -41.8695 N.am      3 UNK        -0.4424 
     20 C          21.0147  -28.6963  -42.3113 C.2       2 UNK         0.4918 
     21 O          21.9771  -28.5109  -41.5675 O.2       2 UNK        -0.4875 
     22 CA         21.2225  -28.6540  -43.8281 C.3       2 UNK         0.0481 
     23 CB         20.8677  -29.9917  -44.4935 C.3       2 UNK        -0.1831 
     24 N          20.4361  -27.5690  -44.3930 N.am      2 UNK        -0.4498 
     25 C          20.5870  -27.0318  -45.6039 C.2       1 UNK         0.5027 
     26 O          21.4182  -27.4163  -46.4285 O.2       1 UNK        -0.4969 
     27 C          19.6857  -27.7715  -39.6122 C.2       3 UNK         0.5005 
     28 O          20.1850  -27.9032  -38.4932 O.2       3 UNK        -0.5279 
     29 N          19.3862  -26.5780  -40.1478 N.am      4 UNK        -0.4463 
     30 CA         19.6775  -25.3062  -39.4741 C.3       4 UNK         0.0283 
     31 CB         18.6524  -24.2388  -39.8882 C.3       4 UNK        -0.1875 
     32 C          21.1226  -24.8356  -39.7177 C.2       4 UNK         0.4949 
     33 O          21.6676  -24.1145  -38.8822 O.2       4 UNK        -0.5039 
     34 N          21.7290  -25.2684  -40.8330 N.am      5 UNK        -0.4663 
     35 CA         23.1442  -25.0516  -41.1553 C.3       5 UNK         0.0242 
     36 CB         23.3730  -25.3341  -42.6497 C.3       5 UNK        -0.1982 
     37 C          24.0987  -25.9022  -40.2935 C.2       5 UNK         0.5017 
     38 O          25.2574  -25.5198  -40.1296 O.2       5 UNK        -0.5012 
     39 N          23.5895  -27.0255  -39.7666 N.am      6 UNK        -0.4439 
     40 CA         24.2635  -28.0390  -38.9513 C.3       6 UNK         0.0297 
     41 CB         24.7640  -27.4443  -37.6173 C.3       6 UNK        -0.2006 
     42 C          25.3531  -28.7938  -39.7360 C.2       6 UNK         0.4892 
     43 O          26.4602  -28.9835  -39.2277 O.2       6 UNK        -0.5089 
     44 N          25.0166  -29.2217  -40.9587 N.am      7 UNK        -0.4243 
     45 CA         25.8767  -30.0091  -41.8404 C.3       7 UNK         0.0196 
     46 CB         26.8060  -29.0731  -42.6347 C.3       7 UNK        -0.2007 
     47 C          24.9968  -30.8358  -42.7835 C.2       7 UNK         0.5020 
     48 O          23.8856  -30.4102  -43.0901 O.2       7 UNK        -0.5147 
     49 N          25.5189  -31.9762  -43.2547 N.am      8 UNK        -0.4734 
     50 CA         24.8508  -32.9389  -44.1431 C.3       8 UNK         0.0238 
     51 CB         24.5754  -32.3153  -45.5335 C.3       8 UNK        -0.1912 
     52 C          23.6184  -33.5867  -43.4731 C.2       8 UNK         0.5038 
     53 O          23.7483  -34.0855  -42.3527 O.2       8 UNK        -0.5046 
     54 N          22.4782  -33.6182  -44.1753 N.am      9 UNK        -0.4200 
     55 CA         21.1961  -34.1787  -43.7211 C.3       9 UNK         0.0839 
     56 C          20.5600  -33.4504  -42.5018 C.2       9 UNK         0.5513 
     57 N          19.5808  -34.0739  -41.8598 N.am      9 UNK        -0.7519 
     58 O          20.9299  -32.3414  -42.1300 O.2       9 UNK        -0.4960 
     59 C59        20.2016  -34.3648  -44.9050 C.3       10 UNK        -0.0876 
     60 S60        20.0246  -32.9114  -46.0047 S.3       10 UNK        -0.2414 
     61 C61        18.2198  -32.7479  -46.1940 C.3       10 UNK         0.0169 
     62 H62        20.6677  -23.0893  -42.4380 H         1 UNK         0.0903 
     63 H63        20.3591  -22.4174  -44.0364 H         1 UNK         0.0903 
     64 H64        19.0206  -22.6651  -42.9138 H         1 UNK         0.0903 
     65 H65        20.0001  -23.8179  -45.6650 H         1 UNK         0.3096 
     66 H66        20.0353  -25.5169  -46.9304 H         1 UNK         0.1121 
     67 H67        18.1950  -27.1072  -46.9649 H         1 UNK         0.0849 
     68 H68        17.6678  -25.4717  -46.7356 H         1 UNK         0.0849 
     69 H69        15.1604  -27.9951  -45.1487 H         1 UNK         0.0865 
     70 H70        16.1946  -28.1434  -46.5355 H         1 UNK         0.0865 
     71 H71        17.4800  -30.1823  -46.7765 H         1 UNK         0.1346 
     72 H72        17.5931  -33.0068  -43.5497 H         1 UNK         0.1412 
     73 H73        15.9085  -29.1133  -42.9343 H         1 UNK         0.1426 
     74 H74        16.0345  -32.4923  -41.6210 H         1 UNK         0.0716 
     75 H75        15.5883  -30.8461  -41.2621 H         1 UNK         0.0716 
     76 H76        17.6376  -29.3877  -39.2092 H         1 UNK         0.0695 
     77 H77        17.2626  -28.9927  -40.8650 H         1 UNK         0.0695 
     78 H78        20.0896  -29.7952  -40.0511 H         1 UNK         0.0983 
     79 H79        19.0250  -29.0553  -42.5387 H         1 UNK         0.3095 
     80 H80        22.2763  -28.4414  -44.0171 H         1 UNK         0.0454 
     81 H81        21.5044  -30.7889  -44.1140 H         1 UNK         0.0851 
     82 H82        21.0106  -29.9617  -45.5728 H         1 UNK         0.0851 
     83 H83        19.8359  -30.2799  -44.2993 H         1 UNK         0.0851 
     84 H84        19.8020  -27.0808  -43.7634 H         1 UNK         0.2976 
     85 H85        19.0223  -26.5241  -41.0922 H         1 UNK         0.3116 
     86 H86        19.5699  -25.4420  -38.3955 H         1 UNK         0.0646 
     87 H87        18.6301  -24.0834  -40.9639 H         1 UNK         0.0847 
     88 H88        17.6468  -24.5188  -39.5746 H         1 UNK         0.0847 
     89 H89        18.8791  -23.2780  -39.4241 H         1 UNK         0.0847 
     90 H90        21.1837  -25.8108  -41.4902 H         1 UNK         0.3040 
     91 H91        23.3819  -24.0027  -40.9641 H         1 UNK         0.1015 
     92 H92        24.4150  -25.1624  -42.9230 H         1 UNK         0.0786 
     93 H93        22.7650  -24.6830  -43.2770 H         1 UNK         0.0786 
     94 H94        23.1371  -26.3665  -42.9078 H         1 UNK         0.0786 
     95 H95        22.6596  -27.2838  -40.0786 H         1 UNK         0.3172 
     96 H96        23.4995  -28.7795  -38.7097 H         1 UNK         0.0595 
     97 H97        25.5749  -26.7310  -37.7674 H         1 UNK         0.0839 
     98 H98        25.1413  -28.2282  -36.9595 H         1 UNK         0.0839 
     99 H99        23.9613  -26.9338  -37.0853 H         1 UNK         0.0839 
    100 H100       24.0724  -29.0723  -41.3072 H         1 UNK         0.2998 
    101 H101       26.4755  -30.6967  -41.2390 H         1 UNK         0.0822 
    102 H102       27.4560  -28.5015  -41.9719 H         1 UNK         0.0787 
    103 H103       26.2374  -28.3642  -43.2382 H         1 UNK         0.0787 
    104 H104       27.4486  -29.6382  -43.3109 H         1 UNK         0.0787 
    105 H105       26.4357  -32.2515  -42.9296 H         1 UNK         0.3055 
    106 H106       25.5606  -33.7543  -44.2925 H         1 UNK         0.1106 
    107 H107       23.8287  -31.5212  -45.4924 H         1 UNK         0.0828 
    108 H108       25.4846  -31.8871  -45.9556 H         1 UNK         0.0828 
    109 H109       24.2233  -33.0660  -46.2422 H         1 UNK         0.0828 
    110 H110       22.4486  -33.1520  -45.0695 H         1 UNK         0.2931 
    111 H111       21.4335  -35.1804  -43.3569 H         1 UNK         0.0412 
    112 H112       19.2766  -34.9975  -42.1236 H         1 UNK         0.3472 
    113 H113       19.1461  -33.6006  -41.0822 H         1 UNK         0.3472 
    114 H114       20.5523  -35.1881  -45.5290 H         1 UNK         0.0970 
    115 H115       19.2232  -34.6853  -44.5446 H         1 UNK         0.0970 
    116 H116       18.0142  -32.4751  -47.2301 H         1 UNK         0.0612 
    117 H117       17.7321  -33.7116  -46.0421 H         1 UNK         0.0612 
@<TRIPOS>BOND
     1    1    2 1    
     2    1   62 1    
     3    1   63 1    
     4    1   64 1    
     5    2    3 2    
     6    2    4 am   BACKBONE|DICT|INTERRES
     7    4    5 1    
     8    4   65 1    
     9    5    6 1    
    10    5   25 1    
    11    5   66 1    
    12    6    7 1    
    13    6   67 1    
    14    6   68 1    
    15    7    8 1    
    16    8    9 1    
    17    8   69 1    
    18    8   70 1    
    19    9   10 ar   
    20    9   14 ar   
    21   10   11 ar   
    22   10   71 1    
    23   11   12 ar   
    24   11   61 1    
    25   12   13 ar   
    26   12   72 1    
    27   13   14 ar   
    28   13   15 1    
    29   14   73 1    
    30   15   16 1    
    31   15   74 1    
    32   15   75 1    
    33   16   17 1    
    34   17   18 1    
    35   17   76 1    
    36   17   77 1    
    37   18   19 1    
    38   18   27 1    
    39   18   78 1    
    40   19   20 am   BACKBONE|DICT|INTERRES
    41   19   79 1    
    42   20   21 2    
    43   20   22 1    
    44   22   23 1    
    45   22   24 1    
    46   22   80 1    
    47   23   81 1    
    48   23   82 1    
    49   23   83 1    
    50   24   25 am   BACKBONE|DICT|INTERRES
    51   24   84 1    
    52   25   26 2    
    53   27   28 2    
    54   27   29 am   BACKBONE|DICT|INTERRES
    55   29   30 1    
    56   29   85 1    
    57   30   31 1    
    58   30   32 1    
    59   30   86 1    
    60   31   87 1    
    61   31   88 1    
    62   31   89 1    
    63   32   33 2    
    64   32   34 am   BACKBONE|DICT|INTERRES
    65   34   35 1    
    66   34   90 1    
    67   35   36 1    
    68   35   37 1    
    69   35   91 1    
    70   36   92 1    
    71   36   93 1    
    72   36   94 1    
    73   37   38 2    
    74   37   39 am   BACKBONE|DICT|INTERRES
    75   39   40 1    
    76   39   95 1    
    77   40   41 1    
    78   40   42 1    
    79   40   96 1    
    80   41   97 1    
    81   41   98 1    
    82   41   99 1    
    83   42   43 2    
    84   42   44 am   BACKBONE|DICT|INTERRES
    85   44   45 1    
    86   44  100 1    
    87   45   46 1    
    88   45   47 1    
    89   45  101 1    
    90   46  102 1    
    91   46  103 1    
    92   46  104 1    
    93   47   48 2    
    94   47   49 am   BACKBONE|DICT|INTERRES
    95   49   50 1    
    96   49  105 1    
    97   50   51 1    
    98   50   52 1    
    99   50  106 1    
   100   51  107 1    
   101   51  108 1    
   102   51  109 1    
   103   52   53 2    
   104   52   54 am   BACKBONE|DICT|INTERRES
   105   54   55 1    
   106   54  110 1    
   107   55   56 1    
   108   55   59 1    
   109   55  111 1    
   110   56   57 am   BACKBONE|DICT|INTERRES
   111   56   58 2    
   112   57  112 1    
   113   57  113 1    
   114   59   60 1    
   115   59  114 1    
   116   59  115 1    
   117   60   61 1    
   118   61  116 1    
   119   61  117 1    
@<TRIPOS>SUBSTRUCTURE
     1 UNK         1 GROUP             0       ****    0 ROOT    
