@<TRIPOS>MOLECULE
3R8
117   119    1
SMALL
USER_CHARGES


@<TRIPOS>ATOM
      1 CA         16.6897  -26.0556  -40.0445 C.3       0 UNK        -0.2013 
      2 C          16.4143  -24.9633  -41.0745 C.2       0 UNK         0.4866 
      3 O          15.8096  -23.9540  -40.7159 O.2       0 UNK        -0.5176 
      4 N          16.8001  -25.0902  -42.3544 N.am      1 UNK        -0.4884 
      5 CA         17.5821  -26.1402  -43.0342 C.3       1 UNK         0.0853 
      6 C6         17.0701  -27.5957  -42.8445 C.3       10 UNK        -0.0849 
      7 S7         15.2626  -27.7988  -43.0375 S.3       10 UNK        -0.2776 
      8 C8         15.1121  -28.6669  -44.6340 C.3       10 UNK         0.0316 
      9 C9         15.8694  -29.9897  -44.6752 C.ar      10 UNK        -0.0863 
     10 C10        15.6648  -30.9696  -43.6983 C.ar      10 UNK        -0.1009 
     11 C11        16.3738  -32.1743  -43.7394 C.ar      10 UNK        -0.0712 
     12 C12        17.2804  -32.4048  -44.7798 C.ar      10 UNK        -0.0894 
     13 C13        17.5001  -31.4298  -45.7580 C.ar      10 UNK        -0.0745 
     14 C14        16.7816  -30.2317  -45.7046 C.ar      10 UNK        -0.0972 
     15 C15        18.4885  -31.6781  -46.8906 C.3       10 UNK         0.0209 
     16 S16        19.6988  -30.3268  -47.0746 S.3       10 UNK        -0.2568 
     17 C17        20.9375  -30.7609  -45.8133 C.3       10 UNK        -0.0983 
     18 CA         21.9726  -29.6192  -45.6381 C.3       3 UNK         0.0876 
     19 N          21.5241  -28.6039  -44.6733 N.am      3 UNK        -0.4424 
     20 C          22.0485  -27.3743  -44.5736 C.2       2 UNK         0.4918 
     21 O          22.9959  -26.9884  -45.2614 O.2       2 UNK        -0.4875 
     22 CA         21.4007  -26.4181  -43.5593 C.3       2 UNK         0.0481 
     23 CB         21.9101  -24.9667  -43.7096 C.3       2 UNK        -0.1831 
     24 N          19.9390  -26.4629  -43.6685 N.am      2 UNK        -0.4498 
     25 C          19.0934  -26.0229  -42.7271 C.2       1 UNK         0.5027 
     26 O          19.4729  -25.5416  -41.6573 O.2       1 UNK        -0.4969 
     27 C          23.3972  -30.1538  -45.3681 C.2       3 UNK         0.5005 
     28 O          24.0136  -30.6820  -46.2958 O.2       3 UNK        -0.5279 
     29 N          23.9250  -29.9705  -44.1510 N.am      4 UNK        -0.4463 
     30 CA         25.3321  -30.1839  -43.8185 C.3       4 UNK         0.0283 
     31 CB         25.5309  -31.5702  -43.1815 C.3       4 UNK        -0.1875 
     32 C          25.8257  -29.0127  -42.9575 C.2       4 UNK         0.4949 
     33 O          26.3974  -29.2230  -41.8858 O.2       4 UNK        -0.5039 
     34 N          25.5816  -27.7909  -43.4580 N.am      5 UNK        -0.4663 
     35 CA         25.9661  -26.4940  -42.8917 C.3       5 UNK         0.0242 
     36 CB         27.4975  -26.2981  -42.9697 C.3       5 UNK        -0.1982 
     37 C          25.3847  -26.2838  -41.4831 C.2       5 UNK         0.5017 
     38 O          24.2161  -25.9169  -41.3659 O.2       5 UNK        -0.5012 
     39 N          26.2007  -26.5238  -40.4478 N.am      6 UNK        -0.4439 
     40 CA         25.8134  -26.4479  -39.0378 C.3       6 UNK         0.0297 
     41 CB         27.0725  -26.5338  -38.1603 C.3       6 UNK        -0.2006 
     42 C          24.7937  -27.5249  -38.6246 C.2       6 UNK         0.4892 
     43 O          24.0174  -27.2847  -37.6988 O.2       6 UNK        -0.5089 
     44 N          24.8045  -28.6776  -39.3082 N.am      7 UNK        -0.4243 
     45 CA         23.8146  -29.7363  -39.1414 C.3       7 UNK         0.0196 
     46 CB         24.4863  -31.1041  -39.3332 C.3       7 UNK        -0.2007 
     47 C          22.6749  -29.5107  -40.1427 C.2       7 UNK         0.5020 
     48 O          22.9158  -29.5040  -41.3529 O.2       7 UNK        -0.5147 
     49 N          21.4570  -29.3377  -39.6120 N.am      8 UNK        -0.4734 
     50 CA         20.2294  -29.0110  -40.3451 C.3       8 UNK         0.0238 
     51 CB         19.0492  -28.9661  -39.3584 C.3       8 UNK        -0.1912 
     52 C          19.9284  -29.9610  -41.5130 C.2       8 UNK         0.5038 
     53 O          19.7671  -29.4975  -42.6419 O.2       8 UNK        -0.5046 
     54 N          19.9081  -31.2644  -41.2165 N.am      9 UNK        -0.4200 
     55 CA         19.7128  -32.3391  -42.2003 C.3       9 UNK         0.0839 
     56 C          21.0406  -32.8946  -42.7893 C.2       9 UNK         0.5513 
     57 N          22.1927  -32.2953  -42.5190 N.am      9 UNK        -0.7519 
     58 O          21.0262  -33.8780  -43.5242 O.2       9 UNK        -0.4960 
     59 C59        18.7975  -33.4688  -41.6576 C.3       10 UNK        -0.0876 
     60 S60        17.1424  -32.8729  -41.1653 S.3       10 UNK        -0.2414 
     61 C61        16.1535  -33.2212  -42.6565 C.3       10 UNK         0.0169 
     62 H62        17.7110  -26.4220  -40.0979 H         1 UNK         0.0903 
     63 H63        16.5407  -25.6695  -39.0364 H         1 UNK         0.0903 
     64 H64        16.0039  -26.8906  -40.1815 H         1 UNK         0.0903 
     65 H65        16.5747  -24.3146  -42.9614 H         1 UNK         0.3096 
     66 H66        17.4718  -25.9065  -44.0947 H         1 UNK         0.1121 
     67 H67        17.3411  -27.9841  -41.8651 H         1 UNK         0.0849 
     68 H68        17.5790  -28.2523  -43.5512 H         1 UNK         0.0849 
     69 H69        15.4530  -27.9972  -45.4251 H         1 UNK         0.0865 
     70 H70        14.0569  -28.8605  -44.8310 H         1 UNK         0.0865 
     71 H71        14.9638  -30.7874  -42.8951 H         1 UNK         0.1346 
     72 H72        17.8272  -33.3371  -44.8166 H         1 UNK         0.1412 
     73 H73        16.9433  -29.4821  -46.4674 H         1 UNK         0.1426 
     74 H74        17.9284  -31.7721  -47.8218 H         1 UNK         0.0716 
     75 H75        19.0190  -32.6218  -46.7535 H         1 UNK         0.0716 
     76 H76        21.4069  -31.6940  -46.1325 H         1 UNK         0.0695 
     77 H77        20.4325  -30.9786  -44.8732 H         1 UNK         0.0695 
     78 H78        22.0695  -29.1073  -46.5987 H         1 UNK         0.0983 
     79 H79        20.7882  -28.8851  -44.0261 H         1 UNK         0.3095 
     80 H80        21.6894  -26.7841  -42.5716 H         1 UNK         0.0454 
     81 H81        21.6244  -24.5391  -44.6710 H         1 UNK         0.0851 
     82 H82        22.9974  -24.9220  -43.6417 H         1 UNK         0.0851 
     83 H83        21.5221  -24.3189  -42.9242 H         1 UNK         0.0851 
     84 H84        19.5753  -26.8693  -44.5204 H         1 UNK         0.2976 
     85 H85        23.3608  -29.5603  -43.4118 H         1 UNK         0.3116 
     86 H86        25.9396  -30.1492  -44.7254 H         1 UNK         0.0646 
     87 H87        24.8889  -31.7084  -42.3155 H         1 UNK         0.0847 
     88 H88        26.5622  -31.7128  -42.8566 H         1 UNK         0.0847 
     89 H89        25.3045  -32.3634  -43.8938 H         1 UNK         0.0847 
     90 H90        25.0414  -27.7383  -44.3132 H         1 UNK         0.3040 
     91 H91        25.5070  -25.7322  -43.5243 H         1 UNK         0.1015 
     92 H92        28.0486  -27.0783  -42.4441 H         1 UNK         0.0786 
     93 H93        27.7932  -25.3381  -42.5438 H         1 UNK         0.0786 
     94 H94        27.8361  -26.3036  -44.0059 H         1 UNK         0.0786 
     95 H95        27.1306  -26.8622  -40.6503 H         1 UNK         0.3172 
     96 H96        25.3475  -25.4743  -38.8719 H         1 UNK         0.0595 
     97 H97        27.5958  -27.4813  -38.2953 H         1 UNK         0.0839 
     98 H98        26.8164  -26.4516  -37.1029 H         1 UNK         0.0839 
     99 H99        27.7708  -25.7275  -38.3856 H         1 UNK         0.0839 
    100 H100       25.4294  -28.7710  -40.1032 H         1 UNK         0.2998 
    101 H101       23.4070  -29.7132  -38.1282 H         1 UNK         0.0822 
    102 H102       25.1229  -31.3468  -38.4823 H         1 UNK         0.0787 
    103 H103       23.7490  -31.9028  -39.4267 H         1 UNK         0.0787 
    104 H104       25.1143  -31.1223  -40.2212 H         1 UNK         0.0787 
    105 H105       21.3750  -29.3603  -38.6053 H         1 UNK         0.3055 
    106 H106       20.3619  -28.0139  -40.7689 H         1 UNK         0.1106 
    107 H107       18.9664  -29.8878  -38.7814 H         1 UNK         0.0828 
    108 H108       18.0996  -28.8316  -39.8753 H         1 UNK         0.0828 
    109 H109       19.1539  -28.1400  -38.6548 H         1 UNK         0.0828 
    110 H110       20.0852  -31.5524  -40.2661 H         1 UNK         0.2931 
    111 H111       19.2004  -31.9087  -43.0579 H         1 UNK         0.0412 
    112 H112       23.0360  -32.6720  -42.9186 H         1 UNK         0.3472 
    113 H113       22.2265  -31.4463  -41.9717 H         1 UNK         0.3472 
    114 H114       18.6756  -34.2606  -42.3988 H         1 UNK         0.0970 
    115 H115       19.2607  -33.9434  -40.7911 H         1 UNK         0.0970 
    116 H116       15.0990  -33.2346  -42.3770 H         1 UNK         0.0612 
    117 H117       16.3781  -34.2212  -43.0303 H         1 UNK         0.0612 
@<TRIPOS>BOND
     1    1    2 1    
     2    1   62 1    
     3    1   63 1    
     4    1   64 1    
     5    2    3 2    
     6    2    4 am   BACKBONE|DICT|INTERRES
     7    4    5 1    
     8    4   65 1    
     9    5    6 1    
    10    5   25 1    
    11    5   66 1    
    12    6    7 1    
    13    6   67 1    
    14    6   68 1    
    15    7    8 1    
    16    8    9 1    
    17    8   69 1    
    18    8   70 1    
    19    9   10 ar   
    20    9   14 ar   
    21   10   11 ar   
    22   10   71 1    
    23   11   12 ar   
    24   11   61 1    
    25   12   13 ar   
    26   12   72 1    
    27   13   14 ar   
    28   13   15 1    
    29   14   73 1    
    30   15   16 1    
    31   15   74 1    
    32   15   75 1    
    33   16   17 1    
    34   17   18 1    
    35   17   76 1    
    36   17   77 1    
    37   18   19 1    
    38   18   27 1    
    39   18   78 1    
    40   19   20 am   BACKBONE|DICT|INTERRES
    41   19   79 1    
    42   20   21 2    
    43   20   22 1    
    44   22   23 1    
    45   22   24 1    
    46   22   80 1    
    47   23   81 1    
    48   23   82 1    
    49   23   83 1    
    50   24   25 am   BACKBONE|DICT|INTERRES
    51   24   84 1    
    52   25   26 2    
    53   27   28 2    
    54   27   29 am   BACKBONE|DICT|INTERRES
    55   29   30 1    
    56   29   85 1    
    57   30   31 1    
    58   30   32 1    
    59   30   86 1    
    60   31   87 1    
    61   31   88 1    
    62   31   89 1    
    63   32   33 2    
    64   32   34 am   BACKBONE|DICT|INTERRES
    65   34   35 1    
    66   34   90 1    
    67   35   36 1    
    68   35   37 1    
    69   35   91 1    
    70   36   92 1    
    71   36   93 1    
    72   36   94 1    
    73   37   38 2    
    74   37   39 am   BACKBONE|DICT|INTERRES
    75   39   40 1    
    76   39   95 1    
    77   40   41 1    
    78   40   42 1    
    79   40   96 1    
    80   41   97 1    
    81   41   98 1    
    82   41   99 1    
    83   42   43 2    
    84   42   44 am   BACKBONE|DICT|INTERRES
    85   44   45 1    
    86   44  100 1    
    87   45   46 1    
    88   45   47 1    
    89   45  101 1    
    90   46  102 1    
    91   46  103 1    
    92   46  104 1    
    93   47   48 2    
    94   47   49 am   BACKBONE|DICT|INTERRES
    95   49   50 1    
    96   49  105 1    
    97   50   51 1    
    98   50   52 1    
    99   50  106 1    
   100   51  107 1    
   101   51  108 1    
   102   51  109 1    
   103   52   53 2    
   104   52   54 am   BACKBONE|DICT|INTERRES
   105   54   55 1    
   106   54  110 1    
   107   55   56 1    
   108   55   59 1    
   109   55  111 1    
   110   56   57 am   BACKBONE|DICT|INTERRES
   111   56   58 2    
   112   57  112 1    
   113   57  113 1    
   114   59   60 1    
   115   59  114 1    
   116   59  115 1    
   117   60   61 1    
   118   61  116 1    
   119   61  117 1    
@<TRIPOS>SUBSTRUCTURE
     1 UNK         1 GROUP             0       ****    0 ROOT    
