@<TRIPOS>MOLECULE
3R8
117   119    1
SMALL
USER_CHARGES


@<TRIPOS>ATOM
      1 CA         15.0476  -25.7312  -46.8838 C.3       0 UNK        -0.2013 
      2 C          16.4780  -26.1548  -47.1827 C.2       0 UNK         0.4866 
      3 O          16.8590  -26.2384  -48.3506 O.2       0 UNK        -0.5176 
      4 N          17.2650  -26.4188  -46.1351 N.am      1 UNK        -0.4884 
      5 CA         18.6827  -26.7839  -46.1994 C.3       1 UNK         0.0853 
      6 C6         18.9321  -28.2867  -45.8938 C.3       10 UNK        -0.0849 
      7 S7         17.9825  -29.4767  -46.9131 S.3       10 UNK        -0.2776 
      8 C8         16.5068  -29.8529  -45.8969 C.3       10 UNK         0.0316 
      9 C9         16.8678  -30.2664  -44.4771 C.ar      10 UNK        -0.0863 
     10 C10        17.3468  -31.5496  -44.2056 C.ar      10 UNK        -0.1009 
     11 C11        17.7803  -31.8866  -42.9188 C.ar      10 UNK        -0.0712 
     12 C12        17.7334  -30.9243  -41.9032 C.ar      10 UNK        -0.0894 
     13 C13        17.2380  -29.6399  -42.1567 C.ar      10 UNK        -0.0745 
     14 C14        16.7703  -29.3365  -43.4402 C.ar      10 UNK        -0.0972 
     15 C15        17.2265  -28.5955  -41.0400 C.3       10 UNK         0.0209 
     16 S16        17.5235  -26.8920  -41.6383 S.3       10 UNK        -0.2568 
     17 C17        18.6902  -26.2333  -40.4054 C.3       10 UNK        -0.0983 
     18 CA         20.1673  -26.4219  -40.8289 C.3       3 UNK         0.0876 
     19 N          20.4578  -25.8444  -42.1514 N.am      3 UNK        -0.4424 
     20 C          21.6225  -25.9303  -42.8079 C.2       2 UNK         0.4918 
     21 O          22.6259  -26.4652  -42.3322 O.2       2 UNK        -0.4875 
     22 CA         21.6707  -25.3218  -44.2251 C.3       2 UNK         0.0481 
     23 CB         23.0978  -25.3176  -44.8047 C.3       2 UNK        -0.1831 
     24 N          20.7798  -26.0181  -45.1602 N.am      2 UNK        -0.4498 
     25 C          19.4452  -25.8958  -45.1925 C.2       1 UNK         0.5027 
     26 O          18.8236  -25.1391  -44.4388 O.2       1 UNK        -0.4969 
     27 C          21.1061  -25.9146  -39.7144 C.2       3 UNK         0.5005 
     28 O          21.4073  -26.6724  -38.7922 O.2       3 UNK        -0.5279 
     29 N          21.6053  -24.6756  -39.8436 N.am      4 UNK        -0.4463 
     30 CA         22.6136  -24.0746  -38.9614 C.3       4 UNK         0.0283 
     31 CB         22.8050  -22.5986  -39.3449 C.3       4 UNK        -0.1875 
     32 C          23.9699  -24.8093  -38.9698 C.2       4 UNK         0.4949 
     33 O          24.6969  -24.7384  -37.9793 O.2       4 UNK        -0.5039 
     34 N          24.2728  -25.5140  -40.0681 N.am      5 UNK        -0.4663 
     35 CA         25.4431  -26.3794  -40.2303 C.3       5 UNK         0.0242 
     36 CB         26.0854  -26.0709  -41.5955 C.3       5 UNK        -0.1982 
     37 C          25.0695  -27.8718  -40.1194 C.2       5 UNK         0.5017 
     38 O          25.9001  -28.7190  -40.4480 O.2       5 UNK        -0.5012 
     39 N          23.8314  -28.1691  -39.6887 N.am      6 UNK        -0.4439 
     40 CA         23.1928  -29.4903  -39.6201 C.3       6 UNK         0.0297 
     41 CB         23.9305  -30.4225  -38.6355 C.3       6 UNK        -0.2006 
     42 C          22.9646  -30.1430  -40.9990 C.2       6 UNK         0.4892 
     43 O          22.8329  -31.3681  -41.0698 O.2       6 UNK        -0.5089 
     44 N          22.8984  -29.3224  -42.0618 N.am      7 UNK        -0.4243 
     45 CA         22.7125  -29.6982  -43.4667 C.3       7 UNK         0.0196 
     46 CB         21.2427  -30.1133  -43.7020 C.3       7 UNK        -0.2007 
     47 C          23.7562  -30.7479  -43.8949 C.2       7 UNK         0.5020 
     48 O          24.9400  -30.4204  -43.9841 O.2       7 UNK        -0.5147 
     49 N          23.3113  -31.9917  -44.0875 N.am      8 UNK        -0.4734 
     50 CA         24.1533  -33.1850  -44.1593 C.3       8 UNK         0.0238 
     51 CB         24.5334  -33.4704  -45.6256 C.3       8 UNK        -0.1912 
     52 C          23.4210  -34.3581  -43.4840 C.2       8 UNK         0.5038 
     53 O          23.5197  -35.4920  -43.9572 O.2       8 UNK        -0.5046 
     54 N          22.6448  -34.0590  -42.4325 N.am      9 UNK        -0.4200 
     55 CA         21.6199  -34.9599  -41.8791 C.3       9 UNK         0.0839 
     56 C          21.1480  -34.6146  -40.4392 C.2       9 UNK         0.5513 
     57 N          21.5490  -33.5046  -39.8343 N.am      9 UNK        -0.7519 
     58 O          20.4121  -35.3941  -39.8394 O.2       9 UNK        -0.4960 
     59 C59        20.4230  -35.1716  -42.8574 C.3       10 UNK        -0.0876 
     60 S60        19.8084  -33.6245  -43.6144 S.3       10 UNK        -0.2414 
     61 C61        18.3175  -33.2828  -42.6331 C.3       10 UNK         0.0169 
     62 H62        14.8576  -24.7378  -47.2893 H         1 UNK         0.0903 
     63 H63        14.3470  -26.4274  -47.3443 H         1 UNK         0.0903 
     64 H64        14.8445  -25.7054  -45.8133 H         1 UNK         0.0903 
     65 H65        16.9352  -26.2276  -45.1980 H         1 UNK         0.3096 
     66 H66        19.0792  -26.5537  -47.1909 H         1 UNK         0.1121 
     67 H67        19.9827  -28.5212  -46.0706 H         1 UNK         0.0849 
     68 H68        18.7786  -28.4910  -44.8369 H         1 UNK         0.0849 
     69 H69        15.9411  -30.6526  -46.3770 H         1 UNK         0.0865 
     70 H70        15.8484  -28.9833  -45.8871 H         1 UNK         0.0865 
     71 H71        17.4178  -32.2763  -45.0036 H         1 UNK         0.1346 
     72 H72        18.0896  -31.1749  -40.9132 H         1 UNK         0.1412 
     73 H73        16.3839  -28.3505  -43.6557 H         1 UNK         0.1426 
     74 H74        17.9827  -28.8521  -40.2966 H         1 UNK         0.0716 
     75 H75        16.2633  -28.6291  -40.5296 H         1 UNK         0.0716 
     76 H76        18.4941  -26.7063  -39.4409 H         1 UNK         0.0695 
     77 H77        18.4667  -25.1730  -40.2723 H         1 UNK         0.0695 
     78 H78        20.3515  -27.4951  -40.9175 H         1 UNK         0.0983 
     79 H79        19.6694  -25.4389  -42.6472 H         1 UNK         0.3095 
     80 H80        21.3471  -24.2822  -44.1417 H         1 UNK         0.0454 
     81 H81        23.1310  -24.8246  -45.7762 H         1 UNK         0.0851 
     82 H82        23.4905  -26.3278  -44.9264 H         1 UNK         0.0851 
     83 H83        23.7843  -24.7802  -44.1488 H         1 UNK         0.0851 
     84 H84        21.2245  -26.6633  -45.7971 H         1 UNK         0.2976 
     85 H85        21.3019  -24.1225  -40.6324 H         1 UNK         0.3116 
     86 H86        22.2272  -24.1163  -37.9409 H         1 UNK         0.0646 
     87 H87        23.5286  -22.1155  -38.6866 H         1 UNK         0.0847 
     88 H88        21.8724  -22.0405  -39.2605 H         1 UNK         0.0847 
     89 H89        23.1725  -22.4901  -40.3662 H         1 UNK         0.0847 
     90 H90        23.6047  -25.5430  -40.8317 H         1 UNK         0.3040 
     91 H91        26.1795  -26.1748  -39.4502 H         1 UNK         0.1015 
     92 H92        26.3472  -25.0162  -41.6810 H         1 UNK         0.0786 
     93 H93        25.4164  -26.3186  -42.4208 H         1 UNK         0.0786 
     94 H94        27.0036  -26.6425  -41.7372 H         1 UNK         0.0786 
     95 H95        23.2308  -27.3989  -39.4131 H         1 UNK         0.3172 
     96 H96        22.1966  -29.3148  -39.2125 H         1 UNK         0.0595 
     97 H97        24.9048  -30.7279  -39.0177 H         1 UNK         0.0839 
     98 H98        23.3571  -31.3322  -38.4539 H         1 UNK         0.0839 
     99 H99        24.0830  -29.9406  -37.6699 H         1 UNK         0.0839 
    100 H100       23.0264  -28.3275  -41.9059 H         1 UNK         0.2998 
    101 H101       22.9089  -28.8056  -44.0624 H         1 UNK         0.0822 
    102 H102       20.9408  -30.9451  -43.0657 H         1 UNK         0.0787 
    103 H103       20.5698  -29.2859  -43.4782 H         1 UNK         0.0787 
    104 H104       21.0666  -30.4030  -44.7387 H         1 UNK         0.0787 
    105 H105       22.3183  -32.1635  -43.9945 H         1 UNK         0.3055 
    106 H106       25.0683  -33.0221  -43.5850 H         1 UNK         0.1106 
    107 H107       25.1945  -34.3348  -45.6993 H         1 UNK         0.0828 
    108 H108       23.6527  -33.6772  -46.2345 H         1 UNK         0.0828 
    109 H109       25.0585  -32.6253  -46.0709 H         1 UNK         0.0828 
    110 H110       22.6585  -33.1159  -42.0578 H         1 UNK         0.2931 
    111 H111       22.1052  -35.9303  -41.7576 H         1 UNK         0.0412 
    112 H112       21.2299  -33.3313  -38.8950 H         1 UNK         0.3472 
    113 H113       22.1152  -32.8016  -40.3025 H         1 UNK         0.3472 
    114 H114       20.7446  -35.8181  -43.6750 H         1 UNK         0.0970 
    115 H115       19.6007  -35.7099  -42.3822 H         1 UNK         0.0970 
    116 H116       17.5518  -34.0234  -42.8672 H         1 UNK         0.0612 
    117 H117       18.5521  -33.3950  -41.5736 H         1 UNK         0.0612 
@<TRIPOS>BOND
     1    1    2 1    
     2    1   62 1    
     3    1   63 1    
     4    1   64 1    
     5    2    3 2    
     6    2    4 am   BACKBONE|DICT|INTERRES
     7    4    5 1    
     8    4   65 1    
     9    5    6 1    
    10    5   25 1    
    11    5   66 1    
    12    6    7 1    
    13    6   67 1    
    14    6   68 1    
    15    7    8 1    
    16    8    9 1    
    17    8   69 1    
    18    8   70 1    
    19    9   10 ar   
    20    9   14 ar   
    21   10   11 ar   
    22   10   71 1    
    23   11   12 ar   
    24   11   61 1    
    25   12   13 ar   
    26   12   72 1    
    27   13   14 ar   
    28   13   15 1    
    29   14   73 1    
    30   15   16 1    
    31   15   74 1    
    32   15   75 1    
    33   16   17 1    
    34   17   18 1    
    35   17   76 1    
    36   17   77 1    
    37   18   19 1    
    38   18   27 1    
    39   18   78 1    
    40   19   20 am   BACKBONE|DICT|INTERRES
    41   19   79 1    
    42   20   21 2    
    43   20   22 1    
    44   22   23 1    
    45   22   24 1    
    46   22   80 1    
    47   23   81 1    
    48   23   82 1    
    49   23   83 1    
    50   24   25 am   BACKBONE|DICT|INTERRES
    51   24   84 1    
    52   25   26 2    
    53   27   28 2    
    54   27   29 am   BACKBONE|DICT|INTERRES
    55   29   30 1    
    56   29   85 1    
    57   30   31 1    
    58   30   32 1    
    59   30   86 1    
    60   31   87 1    
    61   31   88 1    
    62   31   89 1    
    63   32   33 2    
    64   32   34 am   BACKBONE|DICT|INTERRES
    65   34   35 1    
    66   34   90 1    
    67   35   36 1    
    68   35   37 1    
    69   35   91 1    
    70   36   92 1    
    71   36   93 1    
    72   36   94 1    
    73   37   38 2    
    74   37   39 am   BACKBONE|DICT|INTERRES
    75   39   40 1    
    76   39   95 1    
    77   40   41 1    
    78   40   42 1    
    79   40   96 1    
    80   41   97 1    
    81   41   98 1    
    82   41   99 1    
    83   42   43 2    
    84   42   44 am   BACKBONE|DICT|INTERRES
    85   44   45 1    
    86   44  100 1    
    87   45   46 1    
    88   45   47 1    
    89   45  101 1    
    90   46  102 1    
    91   46  103 1    
    92   46  104 1    
    93   47   48 2    
    94   47   49 am   BACKBONE|DICT|INTERRES
    95   49   50 1    
    96   49  105 1    
    97   50   51 1    
    98   50   52 1    
    99   50  106 1    
   100   51  107 1    
   101   51  108 1    
   102   51  109 1    
   103   52   53 2    
   104   52   54 am   BACKBONE|DICT|INTERRES
   105   54   55 1    
   106   54  110 1    
   107   55   56 1    
   108   55   59 1    
   109   55  111 1    
   110   56   57 am   BACKBONE|DICT|INTERRES
   111   56   58 2    
   112   57  112 1    
   113   57  113 1    
   114   59   60 1    
   115   59  114 1    
   116   59  115 1    
   117   60   61 1    
   118   61  116 1    
   119   61  117 1    
@<TRIPOS>SUBSTRUCTURE
     1 UNK         1 GROUP             0       ****    0 ROOT    
