@<TRIPOS>MOLECULE
3R8
117   119    1
SMALL
USER_CHARGES


@<TRIPOS>ATOM
      1 CA         17.7124  -29.7851  -47.4386 C.3       0 UNK        -0.2013 
      2 C          18.2081  -28.3723  -47.7355 C.2       0 UNK         0.4866 
      3 O          18.6686  -28.1217  -48.8479 O.2       0 UNK        -0.5176 
      4 N          18.1445  -27.4142  -46.8010 N.am      1 UNK        -0.4884 
      5 CA         17.6108  -27.5017  -45.4334 C.3       1 UNK         0.0853 
      6 C6         16.2060  -26.8442  -45.3205 C.3       10 UNK        -0.0849 
      7 S7         14.9285  -27.7562  -46.2535 S.3       10 UNK        -0.2776 
      8 C8         14.1315  -28.7486  -44.9483 C.3       10 UNK         0.0316 
      9 C9         15.1281  -29.6233  -44.1990 C.ar      10 UNK        -0.0863 
     10 C10        15.5925  -30.8163  -44.7619 C.ar      10 UNK        -0.1009 
     11 C11        16.5129  -31.6183  -44.0788 C.ar      10 UNK        -0.0712 
     12 C12        16.9403  -31.2222  -42.8054 C.ar      10 UNK        -0.0894 
     13 C13        16.5148  -30.0129  -42.2442 C.ar      10 UNK        -0.0745 
     14 C14        15.5945  -29.2287  -42.9422 C.ar      10 UNK        -0.0972 
     15 C15        17.0250  -29.5396  -40.8856 C.3       10 UNK         0.0209 
     16 S16        18.7957  -29.8991  -40.6312 S.3       10 UNK        -0.2568 
     17 C17        19.4261  -28.3959  -39.8196 C.3       10 UNK        -0.0983 
     18 CA         20.7209  -27.9080  -40.5097 C.3       3 UNK         0.0876 
     19 N          20.4782  -27.4005  -41.8658 N.am      3 UNK        -0.4424 
     20 C          21.4524  -27.1370  -42.7443 C.2       2 UNK         0.4918 
     21 O          22.6325  -27.4146  -42.5311 O.2       2 UNK        -0.4875 
     22 CA         21.0587  -26.4250  -44.0543 C.3       2 UNK         0.0481 
     23 CB         22.2381  -26.3237  -45.0404 C.3       2 UNK        -0.1831 
     24 N          19.9278  -27.0475  -44.7463 N.am      2 UNK        -0.4498 
     25 C          18.6310  -26.8875  -44.4490 C.2       1 UNK         0.5027 
     26 O          18.2452  -26.2696  -43.4552 O.2       1 UNK        -0.4969 
     27 C          21.4398  -26.8451  -39.6540 C.2       3 UNK         0.5005 
     28 O          21.2281  -25.6465  -39.8567 O.2       3 UNK        -0.5279 
     29 N          22.3071  -27.3063  -38.7417 N.am      4 UNK        -0.4463 
     30 CA         23.2228  -26.5452  -37.8762 C.3       4 UNK         0.0283 
     31 CB         22.4845  -25.5143  -36.9994 C.3       4 UNK        -0.1875 
     32 C          24.4025  -25.9041  -38.6312 C.2       4 UNK         0.4949 
     33 O          25.5178  -25.9127  -38.1100 O.2       4 UNK        -0.5039 
     34 N          24.1590  -25.3960  -39.8468 N.am      5 UNK        -0.4663 
     35 CA         25.1866  -24.9471  -40.7909 C.3       5 UNK         0.0242 
     36 CB         24.5201  -24.1831  -41.9459 C.3       5 UNK        -0.1982 
     37 C          26.0314  -26.1195  -41.3219 C.2       5 UNK         0.5017 
     38 O          27.2483  -25.9822  -41.4517 O.2       5 UNK        -0.5012 
     39 N          25.3697  -27.2520  -41.5811 N.am      6 UNK        -0.4439 
     40 CA         25.9559  -28.5494  -41.8939 C.3       6 UNK         0.0297 
     41 CB         25.6327  -28.9034  -43.3556 C.3       6 UNK        -0.2006 
     42 C          25.3715  -29.5970  -40.9345 C.2       6 UNK         0.4892 
     43 O          24.3723  -29.3353  -40.2541 O.2       6 UNK        -0.5089 
     44 N          26.0016  -30.7783  -40.9063 N.am      7 UNK        -0.4243 
     45 CA         25.6269  -31.9330  -40.0837 C.3       7 UNK         0.0196 
     46 CB         26.8353  -32.8837  -39.9850 C.3       7 UNK        -0.2007 
     47 C          24.3580  -32.6376  -40.6078 C.2       7 UNK         0.5020 
     48 O          24.4322  -33.7788  -41.0658 O.2       7 UNK        -0.5147 
     49 N          23.2307  -31.9207  -40.5153 N.am      8 UNK        -0.4734 
     50 CA         21.8742  -32.2285  -40.9826 C.3       8 UNK         0.0238 
     51 CB         21.3712  -33.5981  -40.4856 C.3       8 UNK        -0.1912 
     52 C          21.7318  -32.0956  -42.5081 C.2       8 UNK         0.5038 
     53 O          22.5585  -32.6145  -43.2602 O.2       8 UNK        -0.5046 
     54 N          20.6689  -31.3994  -42.9286 N.am      9 UNK        -0.4200 
     55 CA         20.2292  -31.1408  -44.3131 C.3       9 UNK         0.0839 
     56 C          21.1958  -30.2854  -45.1830 C.2       9 UNK         0.5513 
     57 N          22.5036  -30.3415  -44.9860 N.am      9 UNK        -0.7519 
     58 O          20.7404  -29.5346  -46.0391 O.2       9 UNK        -0.4960 
     59 C59        19.7939  -32.4208  -45.0829 C.3       10 UNK        -0.0876 
     60 S60        18.6371  -33.5017  -44.1682 S.3       10 UNK        -0.2414 
     61 C61        16.9952  -32.9181  -44.7259 C.3       10 UNK         0.0169 
     62 H62        18.0950  -30.1581  -46.4915 H         1 UNK         0.0903 
     63 H63        16.6247  -29.8141  -47.4179 H         1 UNK         0.0903 
     64 H64        18.0472  -30.4735  -48.2140 H         1 UNK         0.0903 
     65 H65        18.5062  -26.5017  -47.0432 H         1 UNK         0.3096 
     66 H66        17.5265  -28.5403  -45.1173 H         1 UNK         0.1121 
     67 H67        16.2386  -25.8205  -45.6974 H         1 UNK         0.0849 
     68 H68        15.8812  -26.7621  -44.2825 H         1 UNK         0.0849 
     69 H69        13.6093  -28.0825  -44.2595 H         1 UNK         0.0865 
     70 H70        13.3628  -29.3771  -45.4005 H         1 UNK         0.0865 
     71 H71        15.2364  -31.1181  -45.7376 H         1 UNK         0.1346 
     72 H72        17.6222  -31.8491  -42.2500 H         1 UNK         0.1412 
     73 H73        15.2445  -28.3019  -42.5080 H         1 UNK         0.1426 
     74 H74        16.4481  -30.0257  -40.0981 H         1 UNK         0.0716 
     75 H75        16.8496  -28.4682  -40.7827 H         1 UNK         0.0716 
     76 H76        19.6118  -28.6495  -38.7740 H         1 UNK         0.0695 
     77 H77        18.6734  -27.6060  -39.8134 H         1 UNK         0.0695 
     78 H78        21.4012  -28.7583  -40.6026 H         1 UNK         0.0983 
     79 H79        19.5378  -27.0953  -42.0881 H         1 UNK         0.3095 
     80 H80        20.7752  -25.4067  -43.7808 H         1 UNK         0.0454 
     81 H81        21.9600  -25.7723  -45.9384 H         1 UNK         0.0851 
     82 H82        22.5903  -27.3090  -45.3471 H         1 UNK         0.0851 
     83 H83        23.0847  -25.8016  -44.5937 H         1 UNK         0.0851 
     84 H84        20.1640  -27.6622  -45.5198 H         1 UNK         0.2976 
     85 H85        22.4512  -28.3071  -38.7059 H         1 UNK         0.3116 
     86 H86        23.6573  -27.2859  -37.2028 H         1 UNK         0.0646 
     87 H87        22.0704  -24.6943  -37.5864 H         1 UNK         0.0847 
     88 H88        21.6687  -25.9762  -36.4437 H         1 UNK         0.0847 
     89 H89        23.1643  -25.0724  -36.2699 H         1 UNK         0.0847 
     90 H90        23.1950  -25.3935  -40.1648 H         1 UNK         0.3040 
     91 H91        25.8586  -24.2642  -40.2663 H         1 UNK         0.1015 
     92 H92        25.2625  -23.8429  -42.6693 H         1 UNK         0.0786 
     93 H93        23.9919  -23.3008  -41.5841 H         1 UNK         0.0786 
     94 H94        23.8031  -24.8061  -42.4808 H         1 UNK         0.0786 
     95 H95        24.3608  -27.2699  -41.4640 H         1 UNK         0.3172 
     96 H96        27.0386  -28.5234  -41.7548 H         1 UNK         0.0595 
     97 H97        24.5581  -28.9903  -43.5183 H         1 UNK         0.0839 
     98 H98        26.0844  -29.8526  -43.6451 H         1 UNK         0.0839 
     99 H99        26.0111  -28.1431  -44.0389 H         1 UNK         0.0839 
    100 H100       26.7911  -30.9130  -41.5216 H         1 UNK         0.2998 
    101 H101       25.4056  -31.5784  -39.0743 H         1 UNK         0.0822 
    102 H102       26.6033  -33.7456  -39.3577 H         1 UNK         0.0787 
    103 H103       27.1335  -33.2629  -40.9633 H         1 UNK         0.0787 
    104 H104       27.6972  -32.3856  -39.5406 H         1 UNK         0.0787 
    105 H105       23.3655  -30.9631  -40.1996 H         1 UNK         0.3055 
    106 H106       21.2449  -31.4703  -40.5167 H         1 UNK         0.1106 
    107 H107       21.4817  -33.6963  -39.4058 H         1 UNK         0.0828 
    108 H108       20.3131  -33.7267  -40.7177 H         1 UNK         0.0828 
    109 H109       21.9032  -34.4250  -40.9567 H         1 UNK         0.0828 
    110 H110       20.0656  -30.9929  -42.2258 H         1 UNK         0.2931 
    111 H111       19.3374  -30.5243  -44.1955 H         1 UNK         0.0412 
    112 H112       23.1224  -29.7877  -45.5545 H         1 UNK         0.3472 
    113 H113       22.8680  -31.0244  -44.3314 H         1 UNK         0.3472 
    114 H114       20.6731  -33.0218  -45.3224 H         1 UNK         0.0970 
    115 H115       19.3476  -32.1601  -46.0436 H         1 UNK         0.0970 
    116 H116       17.0083  -32.8176  -45.8122 H         1 UNK         0.0612 
    117 H117       16.2655  -33.6961  -44.4984 H         1 UNK         0.0612 
@<TRIPOS>BOND
     1    1    2 1    
     2    1   62 1    
     3    1   63 1    
     4    1   64 1    
     5    2    3 2    
     6    2    4 am   BACKBONE|DICT|INTERRES
     7    4    5 1    
     8    4   65 1    
     9    5    6 1    
    10    5   25 1    
    11    5   66 1    
    12    6    7 1    
    13    6   67 1    
    14    6   68 1    
    15    7    8 1    
    16    8    9 1    
    17    8   69 1    
    18    8   70 1    
    19    9   10 ar   
    20    9   14 ar   
    21   10   11 ar   
    22   10   71 1    
    23   11   12 ar   
    24   11   61 1    
    25   12   13 ar   
    26   12   72 1    
    27   13   14 ar   
    28   13   15 1    
    29   14   73 1    
    30   15   16 1    
    31   15   74 1    
    32   15   75 1    
    33   16   17 1    
    34   17   18 1    
    35   17   76 1    
    36   17   77 1    
    37   18   19 1    
    38   18   27 1    
    39   18   78 1    
    40   19   20 am   BACKBONE|DICT|INTERRES
    41   19   79 1    
    42   20   21 2    
    43   20   22 1    
    44   22   23 1    
    45   22   24 1    
    46   22   80 1    
    47   23   81 1    
    48   23   82 1    
    49   23   83 1    
    50   24   25 am   BACKBONE|DICT|INTERRES
    51   24   84 1    
    52   25   26 2    
    53   27   28 2    
    54   27   29 am   BACKBONE|DICT|INTERRES
    55   29   30 1    
    56   29   85 1    
    57   30   31 1    
    58   30   32 1    
    59   30   86 1    
    60   31   87 1    
    61   31   88 1    
    62   31   89 1    
    63   32   33 2    
    64   32   34 am   BACKBONE|DICT|INTERRES
    65   34   35 1    
    66   34   90 1    
    67   35   36 1    
    68   35   37 1    
    69   35   91 1    
    70   36   92 1    
    71   36   93 1    
    72   36   94 1    
    73   37   38 2    
    74   37   39 am   BACKBONE|DICT|INTERRES
    75   39   40 1    
    76   39   95 1    
    77   40   41 1    
    78   40   42 1    
    79   40   96 1    
    80   41   97 1    
    81   41   98 1    
    82   41   99 1    
    83   42   43 2    
    84   42   44 am   BACKBONE|DICT|INTERRES
    85   44   45 1    
    86   44  100 1    
    87   45   46 1    
    88   45   47 1    
    89   45  101 1    
    90   46  102 1    
    91   46  103 1    
    92   46  104 1    
    93   47   48 2    
    94   47   49 am   BACKBONE|DICT|INTERRES
    95   49   50 1    
    96   49  105 1    
    97   50   51 1    
    98   50   52 1    
    99   50  106 1    
   100   51  107 1    
   101   51  108 1    
   102   51  109 1    
   103   52   53 2    
   104   52   54 am   BACKBONE|DICT|INTERRES
   105   54   55 1    
   106   54  110 1    
   107   55   56 1    
   108   55   59 1    
   109   55  111 1    
   110   56   57 am   BACKBONE|DICT|INTERRES
   111   56   58 2    
   112   57  112 1    
   113   57  113 1    
   114   59   60 1    
   115   59  114 1    
   116   59  115 1    
   117   60   61 1    
   118   61  116 1    
   119   61  117 1    
@<TRIPOS>SUBSTRUCTURE
     1 UNK         1 GROUP             0       ****    0 ROOT    
