@<TRIPOS>MOLECULE
3R8
117   119    1
SMALL
USER_CHARGES


@<TRIPOS>ATOM
      1 CA         20.3881  -30.1277  -43.3411 C.3       0 UNK        -0.2013 
      2 C          20.2927  -28.6917  -42.8707 C.2       0 UNK         0.4866 
      3 O          21.2868  -27.9731  -42.9360 O.2       0 UNK        -0.5176 
      4 N          19.1077  -28.2799  -42.3988 N.am      1 UNK        -0.4884 
      5 CA         18.8373  -27.0355  -41.6612 C.3       1 UNK         0.0853 
      6 C6         17.3349  -26.8984  -41.3034 C.3       10 UNK        -0.0849 
      7 S7         16.2156  -26.6959  -42.7385 S.3       10 UNK        -0.2776 
      8 C8         15.3978  -28.3188  -42.8689 C.3       10 UNK         0.0316 
      9 C9         16.2253  -29.3398  -43.6411 C.ar      10 UNK        -0.0863 
     10 C10        16.6233  -30.5336  -43.0318 C.ar      10 UNK        -0.1009 
     11 C11        17.3076  -31.5145  -43.7586 C.ar      10 UNK        -0.0712 
     12 C12        17.5977  -31.2834  -45.1101 C.ar      10 UNK        -0.0894 
     13 C13        17.2296  -30.0836  -45.7280 C.ar      10 UNK        -0.0745 
     14 C14        16.5342  -29.1214  -44.9881 C.ar      10 UNK        -0.0972 
     15 C15        17.5130  -29.8673  -47.2127 C.3       10 UNK         0.0209 
     16 S16        18.3876  -28.3070  -47.5762 S.3       10 UNK        -0.2568 
     17 C17        20.1258  -28.7329  -47.2139 C.3       10 UNK        -0.0983 
     18 CA         20.9884  -27.4821  -46.9023 C.3       3 UNK         0.0876 
     19 N          20.4117  -26.6702  -45.8275 N.am      3 UNK        -0.4424 
     20 C          20.6703  -25.3718  -45.6142 C.2       2 UNK         0.4918 
     21 O          21.4889  -24.7241  -46.2665 O.2       2 UNK        -0.4875 
     22 CA         19.8712  -24.6649  -44.5044 C.3       2 UNK         0.0481 
     23 CB         18.8119  -23.7337  -45.1161 C.3       2 UNK        -0.1831 
     24 N          19.2065  -25.6297  -43.6272 N.am      2 UNK        -0.4498 
     25 C          19.4167  -25.7596  -42.3128 C.2       1 UNK         0.5027 
     26 O          20.0774  -24.9726  -41.6332 O.2       1 UNK        -0.4969 
     27 C          22.4573  -27.8682  -46.6243 C.2       3 UNK         0.5005 
     28 O          23.2278  -28.0077  -47.5758 O.2       3 UNK        -0.5279 
     29 N          22.8214  -28.0205  -45.3430 N.am      4 UNK        -0.4463 
     30 CA         24.1839  -28.2857  -44.8719 C.3       4 UNK         0.0283 
     31 CB         24.2465  -29.6819  -44.2302 C.3       4 UNK        -0.1875 
     32 C          24.6435  -27.2245  -43.8611 C.2       4 UNK         0.4949 
     33 O          25.8395  -26.9441  -43.7930 O.2       4 UNK        -0.5039 
     34 N          23.7049  -26.6780  -43.0729 N.am      5 UNK        -0.4663 
     35 CA         23.8340  -25.6450  -42.0344 C.3       5 UNK         0.0242 
     36 CB         24.4150  -24.3377  -42.6064 C.3       5 UNK        -0.1982 
     37 C          24.5874  -26.0892  -40.7667 C.2       5 UNK         0.5017 
     38 O          24.2605  -25.6078  -39.6816 O.2       5 UNK        -0.5012 
     39 N          25.5615  -26.9967  -40.9098 N.am      6 UNK        -0.4439 
     40 CA         26.3596  -27.5726  -39.8245 C.3       6 UNK         0.0297 
     41 CB         27.5210  -28.3810  -40.4249 C.3       6 UNK        -0.2006 
     42 C          25.5449  -28.4446  -38.8515 C.2       6 UNK         0.4892 
     43 O          25.8501  -28.4550  -37.6583 O.2       6 UNK        -0.5089 
     44 N          24.5306  -29.1492  -39.3677 N.am      7 UNK        -0.4243 
     45 CA         23.6121  -29.9975  -38.6144 C.3       7 UNK         0.0196 
     46 CB         24.2915  -31.3287  -38.2390 C.3       7 UNK        -0.2007 
     47 C          22.3747  -30.2546  -39.4768 C.2       7 UNK         0.5020 
     48 O          22.4842  -30.2869  -40.7046 O.2       7 UNK        -0.5147 
     49 N          21.2273  -30.4862  -38.8281 N.am      8 UNK        -0.4734 
     50 CA         19.9449  -30.7944  -39.4697 C.3       8 UNK         0.0238 
     51 CB         18.7973  -30.3777  -38.5310 C.3       8 UNK        -0.1912 
     52 C          19.8586  -32.2728  -39.9005 C.2       8 UNK         0.5038 
     53 O          18.9933  -33.0050  -39.4183 O.2       8 UNK        -0.5046 
     54 N          20.7786  -32.6820  -40.7833 N.am      9 UNK        -0.4200 
     55 CA         20.9484  -34.0483  -41.3147 C.3       9 UNK         0.0839 
     56 C          21.4352  -35.0959  -40.2661 C.2       9 UNK         0.5513 
     57 N          21.9411  -34.6890  -39.1078 N.am      9 UNK        -0.7519 
     58 O          21.3872  -36.2978  -40.5160 O.2       9 UNK        -0.4960 
     59 C59        19.7293  -34.5553  -42.1435 C.3       10 UNK        -0.0876 
     60 S60        19.3301  -33.4630  -43.5502 S.3       10 UNK        -0.2414 
     61 C61        17.6879  -32.8256  -43.0700 C.3       10 UNK         0.0169 
     62 H62        19.7790  -30.7685  -42.7100 H         1 UNK         0.0903 
     63 H63        20.0478  -30.2298  -44.3661 H         1 UNK         0.0903 
     64 H64        21.4130  -30.4898  -43.2825 H         1 UNK         0.0903 
     65 H65        18.3132  -28.8996  -42.4866 H         1 UNK         0.3096 
     66 H66        19.3762  -27.1436  -40.7171 H         1 UNK         0.1121 
     67 H67        17.1900  -26.0388  -40.6461 H         1 UNK         0.0849 
     68 H68        17.0176  -27.7609  -40.7154 H         1 UNK         0.0849 
     69 H69        15.1390  -28.6841  -41.8739 H         1 UNK         0.0865 
     70 H70        14.4495  -28.1832  -43.3911 H         1 UNK         0.0865 
     71 H71        16.3715  -30.7152  -41.9953 H         1 UNK         0.1346 
     72 H72        18.1073  -32.0442  -45.6852 H         1 UNK         0.1412 
     73 H73        16.2139  -28.2065  -45.4685 H         1 UNK         0.1426 
     74 H74        16.5596  -29.8571  -47.7424 H         1 UNK         0.0716 
     75 H75        18.0831  -30.6989  -47.6300 H         1 UNK         0.0716 
     76 H76        20.5273  -29.2638  -48.0792 H         1 UNK         0.0695 
     77 H77        20.1528  -29.4396  -46.3873 H         1 UNK         0.0695 
     78 H78        20.9990  -26.8640  -47.8033 H         1 UNK         0.0983 
     79 H79        19.7265  -27.1313  -45.2526 H         1 UNK         0.3095 
     80 H80        20.5811  -24.0586  -43.9381 H         1 UNK         0.0454 
     81 H81        18.0848  -24.2852  -45.7134 H         1 UNK         0.0851 
     82 H82        19.2732  -22.9896  -45.7669 H         1 UNK         0.0851 
     83 H83        18.2676  -23.1929  -44.3419 H         1 UNK         0.0851 
     84 H84        18.5710  -26.2859  -44.0576 H         1 UNK         0.2976 
     85 H85        22.1207  -27.8886  -44.6195 H         1 UNK         0.3116 
     86 H86        24.8856  -28.2601  -45.7081 H         1 UNK         0.0646 
     87 H87        23.6393  -29.7399  -43.3261 H         1 UNK         0.0847 
     88 H88        25.2696  -29.9336  -43.9477 H         1 UNK         0.0847 
     89 H89        23.9011  -30.4529  -44.9188 H         1 UNK         0.0847 
     90 H90        22.7731  -27.0916  -43.1087 H         1 UNK         0.3040 
     91 H91        22.8117  -25.4336  -41.7156 H         1 UNK         0.1015 
     92 H92        25.4514  -24.4543  -42.9241 H         1 UNK         0.0786 
     93 H93        24.3942  -23.5444  -41.8580 H         1 UNK         0.0786 
     94 H94        23.8370  -23.9904  -43.4630 H         1 UNK         0.0786 
     95 H95        25.7970  -27.2656  -41.8602 H         1 UNK         0.3172 
     96 H96        26.7819  -26.7453  -39.2503 H         1 UNK         0.0595 
     97 H97        27.1631  -29.2101  -41.0367 H         1 UNK         0.0839 
     98 H98        28.1496  -28.8031  -39.6394 H         1 UNK         0.0839 
     99 H99        28.1604  -27.7554  -41.0481 H         1 UNK         0.0839 
    100 H100       24.3154  -29.0747  -40.3544 H         1 UNK         0.2998 
    101 H101       23.3064  -29.4691  -37.7087 H         1 UNK         0.0822 
    102 H102       25.1630  -31.1690  -37.6041 H         1 UNK         0.0787 
    103 H103       23.6092  -31.9768  -37.6877 H         1 UNK         0.0787 
    104 H104       24.6195  -31.8752  -39.1243 H         1 UNK         0.0787 
    105 H105       21.2323  -30.4839  -37.8174 H         1 UNK         0.3055 
    106 H106       19.8535  -30.1917  -40.3731 H         1 UNK         0.1106 
    107 H107       18.8203  -30.9315  -37.5917 H         1 UNK         0.0828 
    108 H108       17.8270  -30.5619  -38.9946 H         1 UNK         0.0828 
    109 H109       18.8433  -29.3142  -38.2957 H         1 UNK         0.0828 
    110 H110       21.4771  -32.0054  -41.0731 H         1 UNK         0.2931 
    111 H111       21.7846  -33.9669  -42.0102 H         1 UNK         0.0412 
    112 H112       21.9898  -33.7081  -38.8888 H         1 UNK         0.3472 
    113 H113       22.2636  -35.3743  -38.4425 H         1 UNK         0.3472 
    114 H114       18.8553  -34.6903  -41.5047 H         1 UNK         0.0970 
    115 H115       19.9405  -35.5403  -42.5633 H         1 UNK         0.0970 
    116 H116       16.9344  -33.5798  -43.2992 H         1 UNK         0.0612 
    117 H117       17.6708  -32.6868  -41.9883 H         1 UNK         0.0612 
@<TRIPOS>BOND
     1    1    2 1    
     2    1   62 1    
     3    1   63 1    
     4    1   64 1    
     5    2    3 2    
     6    2    4 am   BACKBONE|DICT|INTERRES
     7    4    5 1    
     8    4   65 1    
     9    5    6 1    
    10    5   25 1    
    11    5   66 1    
    12    6    7 1    
    13    6   67 1    
    14    6   68 1    
    15    7    8 1    
    16    8    9 1    
    17    8   69 1    
    18    8   70 1    
    19    9   10 ar   
    20    9   14 ar   
    21   10   11 ar   
    22   10   71 1    
    23   11   12 ar   
    24   11   61 1    
    25   12   13 ar   
    26   12   72 1    
    27   13   14 ar   
    28   13   15 1    
    29   14   73 1    
    30   15   16 1    
    31   15   74 1    
    32   15   75 1    
    33   16   17 1    
    34   17   18 1    
    35   17   76 1    
    36   17   77 1    
    37   18   19 1    
    38   18   27 1    
    39   18   78 1    
    40   19   20 am   BACKBONE|DICT|INTERRES
    41   19   79 1    
    42   20   21 2    
    43   20   22 1    
    44   22   23 1    
    45   22   24 1    
    46   22   80 1    
    47   23   81 1    
    48   23   82 1    
    49   23   83 1    
    50   24   25 am   BACKBONE|DICT|INTERRES
    51   24   84 1    
    52   25   26 2    
    53   27   28 2    
    54   27   29 am   BACKBONE|DICT|INTERRES
    55   29   30 1    
    56   29   85 1    
    57   30   31 1    
    58   30   32 1    
    59   30   86 1    
    60   31   87 1    
    61   31   88 1    
    62   31   89 1    
    63   32   33 2    
    64   32   34 am   BACKBONE|DICT|INTERRES
    65   34   35 1    
    66   34   90 1    
    67   35   36 1    
    68   35   37 1    
    69   35   91 1    
    70   36   92 1    
    71   36   93 1    
    72   36   94 1    
    73   37   38 2    
    74   37   39 am   BACKBONE|DICT|INTERRES
    75   39   40 1    
    76   39   95 1    
    77   40   41 1    
    78   40   42 1    
    79   40   96 1    
    80   41   97 1    
    81   41   98 1    
    82   41   99 1    
    83   42   43 2    
    84   42   44 am   BACKBONE|DICT|INTERRES
    85   44   45 1    
    86   44  100 1    
    87   45   46 1    
    88   45   47 1    
    89   45  101 1    
    90   46  102 1    
    91   46  103 1    
    92   46  104 1    
    93   47   48 2    
    94   47   49 am   BACKBONE|DICT|INTERRES
    95   49   50 1    
    96   49  105 1    
    97   50   51 1    
    98   50   52 1    
    99   50  106 1    
   100   51  107 1    
   101   51  108 1    
   102   51  109 1    
   103   52   53 2    
   104   52   54 am   BACKBONE|DICT|INTERRES
   105   54   55 1    
   106   54  110 1    
   107   55   56 1    
   108   55   59 1    
   109   55  111 1    
   110   56   57 am   BACKBONE|DICT|INTERRES
   111   56   58 2    
   112   57  112 1    
   113   57  113 1    
   114   59   60 1    
   115   59  114 1    
   116   59  115 1    
   117   60   61 1    
   118   61  116 1    
   119   61  117 1    
@<TRIPOS>SUBSTRUCTURE
     1 UNK         1 GROUP             0       ****    0 ROOT    
