@<TRIPOS>MOLECULE
3R8
117   119    1
SMALL
USER_CHARGES


@<TRIPOS>ATOM
      1 CA         15.9669  -25.0462  -45.4649 C.3       0 UNK        -0.2013 
      2 C          17.2543  -25.3746  -46.2054 C.2       0 UNK         0.4866 
      3 O          17.8067  -24.5053  -46.8797 O.2       0 UNK        -0.5176 
      4 N          17.7222  -26.6259  -46.1031 N.am      1 UNK        -0.4884 
      5 CA         18.9089  -27.1365  -46.8009 C.3       1 UNK         0.0853 
      6 C6         18.9716  -28.6873  -46.8265 C.3       10 UNK        -0.0849 
      7 S7         17.4191  -29.4669  -47.3870 S.3       10 UNK        -0.2776 
      8 C8         17.3359  -30.9563  -46.3266 C.3       10 UNK         0.0316 
      9 C9         17.2961  -30.6786  -44.8224 C.ar      10 UNK        -0.0863 
     10 C10        17.9729  -31.5371  -43.9490 C.ar      10 UNK        -0.1009 
     11 C11        17.9315  -31.3289  -42.5665 C.ar      10 UNK        -0.0712 
     12 C12        17.2318  -30.2339  -42.0544 C.ar      10 UNK        -0.0894 
     13 C13        16.5582  -29.3633  -42.9138 C.ar      10 UNK        -0.0745 
     14 C14        16.5739  -29.6028  -44.2919 C.ar      10 UNK        -0.0972 
     15 C15        15.8069  -28.1656  -42.3583 C.3       10 UNK         0.0209 
     16 S16        16.8239  -26.6605  -42.4461 S.3       10 UNK        -0.2568 
     17 C17        17.7455  -26.6788  -40.8681 C.3       10 UNK        -0.0983 
     18 CA         19.2366  -27.0980  -40.9896 C.3       3 UNK         0.0876 
     19 N          19.8912  -26.5141  -42.1670 N.am      3 UNK        -0.4424 
     20 C          21.1341  -26.7849  -42.5913 C.2       2 UNK         0.4918 
     21 O          21.9643  -27.4127  -41.9326 O.2       2 UNK        -0.4875 
     22 CA         21.4641  -26.3377  -44.0244 C.3       2 UNK         0.0481 
     23 CB         22.8331  -26.8710  -44.5040 C.3       2 UNK        -0.1831 
     24 N          20.3730  -26.7948  -44.8870 N.am      2 UNK        -0.4498 
     25 C          20.1961  -26.5480  -46.1912 C.2       1 UNK         0.5027 
     26 O          20.9656  -25.8870  -46.8895 O.2       1 UNK        -0.4969 
     27 C          19.9744  -26.7943  -39.6698 C.2       3 UNK         0.5005 
     28 O          20.1317  -27.6880  -38.8376 O.2       3 UNK        -0.5279 
     29 N          20.4100  -25.5355  -39.5091 N.am      4 UNK        -0.4463 
     30 CA         21.1084  -25.0441  -38.3177 C.3       4 UNK         0.0283 
     31 CB         21.0399  -23.5088  -38.2807 C.3       4 UNK        -0.1875 
     32 C          22.5686  -25.5177  -38.2380 C.2       4 UNK         0.4949 
     33 O          23.0710  -25.7409  -37.1366 O.2       4 UNK        -0.5039 
     34 N          23.2225  -25.6588  -39.3992 N.am      5 UNK        -0.4663 
     35 CA         24.5971  -26.1542  -39.5148 C.3       5 UNK         0.0242 
     36 CB         25.1860  -25.6971  -40.8595 C.3       5 UNK        -0.1982 
     37 C          24.6841  -27.6838  -39.3876 C.2       5 UNK         0.5017 
     38 O          25.7261  -28.1951  -38.9785 O.2       5 UNK        -0.5012 
     39 N          23.5999  -28.3735  -39.7723 N.am      6 UNK        -0.4439 
     40 CA         23.4212  -29.8273  -39.8465 C.3       6 UNK         0.0297 
     41 CB         23.6060  -30.4958  -38.4685 C.3       6 UNK        -0.2006 
     42 C          24.2581  -30.5028  -40.9508 C.2       6 UNK         0.4892 
     43 O          24.3489  -31.7304  -40.9741 O.2       6 UNK        -0.5089 
     44 N          24.8246  -29.7081  -41.8713 N.am      7 UNK        -0.4243 
     45 CA         25.6754  -30.1630  -42.9762 C.3       7 UNK         0.0196 
     46 CB         26.3175  -28.9416  -43.6534 C.3       7 UNK        -0.2007 
     47 C          24.9293  -31.0239  -44.0095 C.2       7 UNK         0.5020 
     48 O          25.5331  -31.9090  -44.6149 O.2       7 UNK        -0.5147 
     49 N          23.6264  -30.7645  -44.1716 N.am      8 UNK        -0.4734 
     50 CA         22.7202  -31.5352  -45.0260 C.3       8 UNK         0.0238 
     51 CB         21.5881  -30.6051  -45.4925 C.3       8 UNK        -0.1912 
     52 C          22.1298  -32.7691  -44.3179 C.2       8 UNK         0.5038 
     53 O          21.4445  -33.5567  -44.9715 O.2       8 UNK        -0.5046 
     54 N          22.3610  -32.8943  -43.0053 N.am      9 UNK        -0.4200 
     55 CA         21.7051  -33.8665  -42.1189 C.3       9 UNK         0.0839 
     56 C          22.5745  -35.1160  -41.8052 C.2       9 UNK         0.5513 
     57 N          23.7859  -35.2356  -42.3353 N.am      9 UNK        -0.7519 
     58 O          22.1342  -36.0043  -41.0799 O.2       9 UNK        -0.4960 
     59 C59        21.1793  -33.1899  -40.8208 C.3       10 UNK        -0.0876 
     60 S60        20.2568  -31.6433  -41.1363 S.3       10 UNK        -0.2414 
     61 C61        18.6353  -32.2929  -41.6264 C.3       10 UNK         0.0169 
     62 H62        15.2747  -24.5254  -46.1258 H         1 UNK         0.0903 
     63 H63        15.4683  -25.9435  -45.0989 H         1 UNK         0.0903 
     64 H64        16.1776  -24.3994  -44.6137 H         1 UNK         0.0903 
     65 H65        17.2223  -27.2991  -45.5418 H         1 UNK         0.3096 
     66 H66        18.8547  -26.7925  -47.8367 H         1 UNK         0.1121 
     67 H67        19.7754  -29.0215  -47.4851 H         1 UNK         0.0849 
     68 H68        19.2112  -29.0746  -45.8365 H         1 UNK         0.0849 
     69 H69        16.4441  -31.5239  -46.5949 H         1 UNK         0.0865 
     70 H70        18.1880  -31.5931  -46.5706 H         1 UNK         0.0865 
     71 H71        18.5262  -32.3795  -44.3429 H         1 UNK         0.1346 
     72 H72        17.2132  -30.0614  -40.9869 H         1 UNK         0.1412 
     73 H73        16.0253  -28.9457  -44.9518 H         1 UNK         0.1426 
     74 H74        15.4792  -28.3469  -41.3336 H         1 UNK         0.0716 
     75 H75        14.8980  -28.0058  -42.9403 H         1 UNK         0.0716 
     76 H76        17.6654  -25.6680  -40.4628 H         1 UNK         0.0695 
     77 H77        17.2327  -27.3237  -40.1524 H         1 UNK         0.0695 
     78 H78        19.2681  -28.1813  -41.1282 H         1 UNK         0.0983 
     79 H79        19.2850  -25.9637  -42.7588 H         1 UNK         0.3095 
     80 H80        21.4839  -25.2466  -44.0352 H         1 UNK         0.0454 
     81 H81        22.8516  -27.9594  -44.5357 H         1 UNK         0.0851 
     82 H82        23.0902  -26.5041  -45.4968 H         1 UNK         0.0851 
     83 H83        23.6330  -26.5488  -43.8377 H         1 UNK         0.0851 
     84 H84        19.6683  -27.3472  -44.4173 H         1 UNK         0.2976 
     85 H85        20.2321  -24.8691  -40.2471 H         1 UNK         0.3116 
     86 H86        20.5896  -25.4258  -37.4354 H         1 UNK         0.0646 
     87 H87        21.5317  -23.1188  -37.3883 H         1 UNK         0.0847 
     88 H88        20.0083  -23.1572  -38.2581 H         1 UNK         0.0847 
     89 H89        21.5306  -23.0586  -39.1446 H         1 UNK         0.0847 
     90 H90        22.7292  -25.4639  -40.2583 H         1 UNK         0.3040 
     91 H91        25.1985  -25.7218  -38.7115 H         1 UNK         0.1015 
     92 H92        25.1987  -24.6098  -40.9371 H         1 UNK         0.0786 
     93 H93        24.6175  -26.0871  -41.7036 H         1 UNK         0.0786 
     94 H94        26.2155  -26.0403  -40.9725 H         1 UNK         0.0786 
     95 H95        22.8334  -27.8395  -40.1705 H         1 UNK         0.3172 
     96 H96        22.3805  -29.9653  -40.1366 H         1 UNK         0.0595 
     97 H97        22.9955  -30.0091  -37.7079 H         1 UNK         0.0839 
     98 H98        24.6443  -30.4674  -38.1377 H         1 UNK         0.0839 
     99 H99        23.3070  -31.5439  -38.4992 H         1 UNK         0.0839 
    100 H100       24.6767  -28.7135  -41.7854 H         1 UNK         0.2998 
    101 H101       26.4707  -30.7788  -42.5508 H         1 UNK         0.0822 
    102 H102       26.9097  -28.3604  -42.9460 H         1 UNK         0.0787 
    103 H103       26.9873  -29.2498  -44.4576 H         1 UNK         0.0787 
    104 H104       25.5691  -28.2794  -44.0898 H         1 UNK         0.0787 
    105 H105       23.2147  -30.0294  -43.6149 H         1 UNK         0.3055 
    106 H106       23.2617  -31.8914  -45.9054 H         1 UNK         0.1106 
    107 H107       20.8953  -31.1312  -46.1508 H         1 UNK         0.0828 
    108 H108       21.0099  -30.2241  -44.6493 H         1 UNK         0.0828 
    109 H109       21.9771  -29.7536  -46.0509 H         1 UNK         0.0828 
    110 H110       22.9890  -32.2470  -42.5465 H         1 UNK         0.2931 
    111 H111       20.8302  -34.2635  -42.6358 H         1 UNK         0.0412 
    112 H112       24.3394  -36.0525  -42.1297 H         1 UNK         0.3472 
    113 H113       24.1554  -34.5085  -42.9276 H         1 UNK         0.3472 
    114 H114       20.5412  -33.8753  -40.2599 H         1 UNK         0.0970 
    115 H115       22.0126  -32.9475  -40.1595 H         1 UNK         0.0970 
    116 H116       18.7495  -33.2635  -42.1104 H         1 UNK         0.0612 
    117 H117       18.0304  -32.4628  -40.7345 H         1 UNK         0.0612 
@<TRIPOS>BOND
     1    1    2 1    
     2    1   62 1    
     3    1   63 1    
     4    1   64 1    
     5    2    3 2    
     6    2    4 am   BACKBONE|DICT|INTERRES
     7    4    5 1    
     8    4   65 1    
     9    5    6 1    
    10    5   25 1    
    11    5   66 1    
    12    6    7 1    
    13    6   67 1    
    14    6   68 1    
    15    7    8 1    
    16    8    9 1    
    17    8   69 1    
    18    8   70 1    
    19    9   10 ar   
    20    9   14 ar   
    21   10   11 ar   
    22   10   71 1    
    23   11   12 ar   
    24   11   61 1    
    25   12   13 ar   
    26   12   72 1    
    27   13   14 ar   
    28   13   15 1    
    29   14   73 1    
    30   15   16 1    
    31   15   74 1    
    32   15   75 1    
    33   16   17 1    
    34   17   18 1    
    35   17   76 1    
    36   17   77 1    
    37   18   19 1    
    38   18   27 1    
    39   18   78 1    
    40   19   20 am   BACKBONE|DICT|INTERRES
    41   19   79 1    
    42   20   21 2    
    43   20   22 1    
    44   22   23 1    
    45   22   24 1    
    46   22   80 1    
    47   23   81 1    
    48   23   82 1    
    49   23   83 1    
    50   24   25 am   BACKBONE|DICT|INTERRES
    51   24   84 1    
    52   25   26 2    
    53   27   28 2    
    54   27   29 am   BACKBONE|DICT|INTERRES
    55   29   30 1    
    56   29   85 1    
    57   30   31 1    
    58   30   32 1    
    59   30   86 1    
    60   31   87 1    
    61   31   88 1    
    62   31   89 1    
    63   32   33 2    
    64   32   34 am   BACKBONE|DICT|INTERRES
    65   34   35 1    
    66   34   90 1    
    67   35   36 1    
    68   35   37 1    
    69   35   91 1    
    70   36   92 1    
    71   36   93 1    
    72   36   94 1    
    73   37   38 2    
    74   37   39 am   BACKBONE|DICT|INTERRES
    75   39   40 1    
    76   39   95 1    
    77   40   41 1    
    78   40   42 1    
    79   40   96 1    
    80   41   97 1    
    81   41   98 1    
    82   41   99 1    
    83   42   43 2    
    84   42   44 am   BACKBONE|DICT|INTERRES
    85   44   45 1    
    86   44  100 1    
    87   45   46 1    
    88   45   47 1    
    89   45  101 1    
    90   46  102 1    
    91   46  103 1    
    92   46  104 1    
    93   47   48 2    
    94   47   49 am   BACKBONE|DICT|INTERRES
    95   49   50 1    
    96   49  105 1    
    97   50   51 1    
    98   50   52 1    
    99   50  106 1    
   100   51  107 1    
   101   51  108 1    
   102   51  109 1    
   103   52   53 2    
   104   52   54 am   BACKBONE|DICT|INTERRES
   105   54   55 1    
   106   54  110 1    
   107   55   56 1    
   108   55   59 1    
   109   55  111 1    
   110   56   57 am   BACKBONE|DICT|INTERRES
   111   56   58 2    
   112   57  112 1    
   113   57  113 1    
   114   59   60 1    
   115   59  114 1    
   116   59  115 1    
   117   60   61 1    
   118   61  116 1    
   119   61  117 1    
@<TRIPOS>SUBSTRUCTURE
     1 UNK         1 GROUP             0       ****    0 ROOT    
