@<TRIPOS>MOLECULE
3R8
117   119    1
SMALL
USER_CHARGES


@<TRIPOS>ATOM
      1 CA         13.4698  -25.3709  -46.0568 C.3       0 UNK        -0.2013 
      2 C          14.8149  -25.7467  -46.6603 C.2       0 UNK         0.4866 
      3 O          14.9145  -25.9229  -47.8751 O.2       0 UNK        -0.5176 
      4 N          15.8497  -25.8654  -45.8243 N.am      1 UNK        -0.4884 
      5 CA         17.2184  -26.2099  -46.2069 C.3       1 UNK         0.0853 
      6 C6         17.4062  -27.7220  -46.5174 C.3       10 UNK        -0.0849 
      7 S7         16.8600  -28.8406  -45.1803 S.3       10 UNK        -0.2776 
      8 C8         18.4572  -29.3431  -44.4742 C.3       10 UNK         0.0316 
      9 C9         18.2641  -29.9750  -43.1079 C.ar      10 UNK        -0.0863 
     10 C10        18.2483  -31.3637  -42.9594 C.ar      10 UNK        -0.1009 
     11 C11        18.1075  -31.9404  -41.6937 C.ar      10 UNK        -0.0712 
     12 C12        17.9700  -31.1114  -40.5739 C.ar      10 UNK        -0.0894 
     13 C13        17.9568  -29.7185  -40.7147 C.ar      10 UNK        -0.0745 
     14 C14        18.1022  -29.1599  -41.9868 C.ar      10 UNK        -0.0972 
     15 C15        17.7413  -28.8204  -39.5029 C.3       10 UNK         0.0209 
     16 S16        19.2650  -27.9695  -38.9772 S.3       10 UNK        -0.2568 
     17 C17        19.3263  -26.5222  -40.0930 C.3       10 UNK        -0.0983 
     18 CA         20.4935  -26.6070  -41.1114 C.3       3 UNK         0.0876 
     19 N          20.1819  -25.9010  -42.3643 N.am      3 UNK        -0.4424 
     20 C          20.9304  -25.9502  -43.4753 C.2       2 UNK         0.4918 
     21 O          21.9296  -26.6609  -43.5915 O.2       2 UNK        -0.4875 
     22 CA         20.5197  -25.0106  -44.6234 C.3       2 UNK         0.0481 
     23 CB         21.7216  -24.6357  -45.5103 C.3       2 UNK        -0.1831 
     24 N          19.4654  -25.5764  -45.4656 N.am      2 UNK        -0.4498 
     25 C          18.1754  -25.6831  -45.1212 C.2       1 UNK         0.5027 
     26 O          17.7348  -25.3645  -44.0114 O.2       1 UNK        -0.4969 
     27 C          21.8268  -26.1399  -40.4777 C.2       3 UNK         0.5005 
     28 O          22.4736  -26.9146  -39.7714 O.2       3 UNK        -0.5279 
     29 N          22.2387  -24.8976  -40.7805 N.am      4 UNK        -0.4463 
     30 CA         23.5036  -24.2770  -40.3735 C.3       4 UNK         0.0283 
     31 CB         23.5399  -22.8285  -40.8864 C.3       4 UNK        -0.1875 
     32 C          24.7671  -25.0339  -40.8270 C.2       4 UNK         0.4949 
     33 O          25.8114  -24.8807  -40.1950 O.2       4 UNK        -0.5039 
     34 N          24.6561  -25.8763  -41.8645 N.am      5 UNK        -0.4663 
     35 CA         25.7081  -26.7788  -42.3467 C.3       5 UNK         0.0242 
     36 CB         25.4446  -27.0850  -43.8333 C.3       5 UNK        -0.1982 
     37 C          25.8311  -28.0667  -41.4984 C.2       5 UNK         0.5017 
     38 O          26.1121  -29.1310  -42.0508 O.2       5 UNK        -0.5012 
     39 N          25.6070  -27.9511  -40.1793 N.am      6 UNK        -0.4439 
     40 CA         25.5657  -29.0171  -39.1696 C.3       6 UNK         0.0297 
     41 CB         26.9723  -29.6120  -38.9459 C.3       6 UNK        -0.2006 
     42 C          24.5021  -30.0861  -39.4891 C.2       6 UNK         0.4892 
     43 O          24.7892  -31.2835  -39.4193 O.2       6 UNK        -0.5089 
     44 N          23.3018  -29.6221  -39.8690 N.am      7 UNK        -0.4243 
     45 CA         22.1399  -30.3671  -40.3708 C.3       7 UNK         0.0196 
     46 CB         21.6036  -31.3652  -39.3270 C.3       7 UNK        -0.2007 
     47 C          22.3816  -31.0333  -41.7368 C.2       7 UNK         0.5020 
     48 O          21.6308  -30.7729  -42.6764 O.2       7 UNK        -0.5147 
     49 N          23.4265  -31.8674  -41.8245 N.am      8 UNK        -0.4734 
     50 CA         23.8909  -32.6737  -42.9618 C.3       8 UNK         0.0238 
     51 CB         24.2753  -31.7925  -44.1673 C.3       8 UNK        -0.1912 
     52 C          22.9160  -33.7946  -43.3622 C.2       8 UNK         0.5038 
     53 O          23.3157  -34.9600  -43.3768 O.2       8 UNK        -0.5046 
     54 N          21.6631  -33.4231  -43.6460 N.am      9 UNK        -0.4200 
     55 CA         20.5335  -34.2976  -43.9924 C.3       9 UNK         0.0839 
     56 C          20.7650  -35.1312  -45.2910 C.2       9 UNK         0.5513 
     57 N          20.0568  -36.2369  -45.4844 N.am      9 UNK        -0.7519 
     58 O          21.5432  -34.7529  -46.1648 O.2       9 UNK        -0.4960 
     59 C59        20.0245  -35.1282  -42.7755 C.3       10 UNK        -0.0876 
     60 S60        19.7417  -34.1377  -41.2633 S.3       10 UNK        -0.2414 
     61 C61        18.0757  -33.4553  -41.5379 C.3       10 UNK         0.0169 
     62 H62        13.1137  -24.4347  -46.4860 H         1 UNK         0.0903 
     63 H63        12.7339  -26.1458  -46.2700 H         1 UNK         0.0903 
     64 H64        13.5285  -25.2481  -44.9754 H         1 UNK         0.0903 
     65 H65        15.7472  -25.6754  -44.8342 H         1 UNK         0.3096 
     66 H66        17.4536  -25.6473  -47.1137 H         1 UNK         0.1121 
     67 H67        16.8264  -27.9765  -47.4059 H         1 UNK         0.0849 
     68 H68        18.4416  -27.9400  -46.7851 H         1 UNK         0.0849 
     69 H69        19.1160  -28.4787  -44.3787 H         1 UNK         0.0865 
     70 H70        18.9566  -30.0360  -45.1534 H         1 UNK         0.0865 
     71 H71        18.3411  -31.9911  -43.8326 H         1 UNK         0.1346 
     72 H72        17.8559  -31.5541  -39.5938 H         1 UNK         0.1412 
     73 H73        18.0814  -28.0879  -42.1160 H         1 UNK         0.1426 
     74 H74        17.3777  -29.4125  -38.6617 H         1 UNK         0.0716 
     75 H75        16.9572  -28.0917  -39.7132 H         1 UNK         0.0716 
     76 H76        19.3937  -25.6164  -39.4868 H         1 UNK         0.0695 
     77 H77        18.3699  -26.4405  -40.6096 H         1 UNK         0.0695 
     78 H78        20.6299  -27.6520  -41.3948 H         1 UNK         0.0983 
     79 H79        19.3389  -25.3405  -42.3818 H         1 UNK         0.3095 
     80 H80        20.1456  -24.0859  -44.1783 H         1 UNK         0.0454 
     81 H81        21.4470  -23.8923  -46.2588 H         1 UNK         0.0851 
     82 H82        22.1288  -25.5028  -46.0323 H         1 UNK         0.0851 
     83 H83        22.5291  -24.2083  -44.9141 H         1 UNK         0.0851 
     84 H84        19.7508  -25.8818  -46.3852 H         1 UNK         0.2976 
     85 H85        21.6323  -24.3350  -41.3590 H         1 UNK         0.3116 
     86 H86        23.5169  -24.2550  -39.2819 H         1 UNK         0.0646 
     87 H87        24.4572  -22.3267  -40.5745 H         1 UNK         0.0847 
     88 H88        22.7071  -22.2448  -40.4936 H         1 UNK         0.0847 
     89 H89        23.5000  -22.7839  -41.9755 H         1 UNK         0.0847 
     90 H90        23.7502  -25.9793  -42.3049 H         1 UNK         0.3040 
     91 H91        26.6695  -26.2649  -42.2775 H         1 UNK         0.1015 
     92 H92        25.3625  -26.1700  -44.4202 H         1 UNK         0.0786 
     93 H93        24.5231  -27.6534  -43.9680 H         1 UNK         0.0786 
     94 H94        26.2564  -27.6719  -44.2650 H         1 UNK         0.0786 
     95 H95        25.3987  -27.0200  -39.8401 H         1 UNK         0.3172 
     96 H96        25.2537  -28.5450  -38.2369 H         1 UNK         0.0595 
     97 H97        27.3348  -30.1389  -39.8292 H         1 UNK         0.0839 
     98 H98        26.9670  -30.3267  -38.1219 H         1 UNK         0.0839 
     99 H99        27.6967  -28.8368  -38.6966 H         1 UNK         0.0839 
    100 H100       23.1732  -28.6108  -39.8664 H         1 UNK         0.2998 
    101 H101       21.3576  -29.6246  -40.5232 H         1 UNK         0.0822 
    102 H102       22.3005  -32.1810  -39.1351 H         1 UNK         0.0787 
    103 H103       21.3936  -30.8693  -38.3794 H         1 UNK         0.0787 
    104 H104       20.6702  -31.8108  -39.6694 H         1 UNK         0.0787 
    105 H105       23.9811  -31.9576  -40.9753 H         1 UNK         0.3055 
    106 H106       24.8031  -33.1641  -42.6175 H         1 UNK         0.1106 
    107 H107       23.4174  -31.2641  -44.5835 H         1 UNK         0.0828 
    108 H108       25.0215  -31.0480  -43.8888 H         1 UNK         0.0828 
    109 H109       24.7019  -32.3968  -44.9687 H         1 UNK         0.0828 
    110 H110       21.4485  -32.4347  -43.5451 H         1 UNK         0.2931 
    111 H111       19.7340  -33.6139  -44.2673 H         1 UNK         0.0412 
    112 H112       19.3903  -36.5628  -44.8028 H         1 UNK         0.3472 
    113 H113       20.1943  -36.7592  -46.3360 H         1 UNK         0.3472 
    114 H114       19.0983  -35.6509  -43.0169 H         1 UNK         0.0970 
    115 H115       20.7508  -35.9050  -42.5298 H         1 UNK         0.0970 
    116 H116       17.4444  -33.7272  -40.6907 H         1 UNK         0.0612 
    117 H117       17.6140  -33.9108  -42.4149 H         1 UNK         0.0612 
@<TRIPOS>BOND
     1    1    2 1    
     2    1   62 1    
     3    1   63 1    
     4    1   64 1    
     5    2    3 2    
     6    2    4 am   BACKBONE|DICT|INTERRES
     7    4    5 1    
     8    4   65 1    
     9    5    6 1    
    10    5   25 1    
    11    5   66 1    
    12    6    7 1    
    13    6   67 1    
    14    6   68 1    
    15    7    8 1    
    16    8    9 1    
    17    8   69 1    
    18    8   70 1    
    19    9   10 ar   
    20    9   14 ar   
    21   10   11 ar   
    22   10   71 1    
    23   11   12 ar   
    24   11   61 1    
    25   12   13 ar   
    26   12   72 1    
    27   13   14 ar   
    28   13   15 1    
    29   14   73 1    
    30   15   16 1    
    31   15   74 1    
    32   15   75 1    
    33   16   17 1    
    34   17   18 1    
    35   17   76 1    
    36   17   77 1    
    37   18   19 1    
    38   18   27 1    
    39   18   78 1    
    40   19   20 am   BACKBONE|DICT|INTERRES
    41   19   79 1    
    42   20   21 2    
    43   20   22 1    
    44   22   23 1    
    45   22   24 1    
    46   22   80 1    
    47   23   81 1    
    48   23   82 1    
    49   23   83 1    
    50   24   25 am   BACKBONE|DICT|INTERRES
    51   24   84 1    
    52   25   26 2    
    53   27   28 2    
    54   27   29 am   BACKBONE|DICT|INTERRES
    55   29   30 1    
    56   29   85 1    
    57   30   31 1    
    58   30   32 1    
    59   30   86 1    
    60   31   87 1    
    61   31   88 1    
    62   31   89 1    
    63   32   33 2    
    64   32   34 am   BACKBONE|DICT|INTERRES
    65   34   35 1    
    66   34   90 1    
    67   35   36 1    
    68   35   37 1    
    69   35   91 1    
    70   36   92 1    
    71   36   93 1    
    72   36   94 1    
    73   37   38 2    
    74   37   39 am   BACKBONE|DICT|INTERRES
    75   39   40 1    
    76   39   95 1    
    77   40   41 1    
    78   40   42 1    
    79   40   96 1    
    80   41   97 1    
    81   41   98 1    
    82   41   99 1    
    83   42   43 2    
    84   42   44 am   BACKBONE|DICT|INTERRES
    85   44   45 1    
    86   44  100 1    
    87   45   46 1    
    88   45   47 1    
    89   45  101 1    
    90   46  102 1    
    91   46  103 1    
    92   46  104 1    
    93   47   48 2    
    94   47   49 am   BACKBONE|DICT|INTERRES
    95   49   50 1    
    96   49  105 1    
    97   50   51 1    
    98   50   52 1    
    99   50  106 1    
   100   51  107 1    
   101   51  108 1    
   102   51  109 1    
   103   52   53 2    
   104   52   54 am   BACKBONE|DICT|INTERRES
   105   54   55 1    
   106   54  110 1    
   107   55   56 1    
   108   55   59 1    
   109   55  111 1    
   110   56   57 am   BACKBONE|DICT|INTERRES
   111   56   58 2    
   112   57  112 1    
   113   57  113 1    
   114   59   60 1    
   115   59  114 1    
   116   59  115 1    
   117   60   61 1    
   118   61  116 1    
   119   61  117 1    
@<TRIPOS>SUBSTRUCTURE
     1 UNK         1 GROUP             0       ****    0 ROOT    
