@<TRIPOS>MOLECULE
3R8
117   119    1
SMALL
USER_CHARGES


@<TRIPOS>ATOM
      1 CA         15.5068  -22.0997  -45.7662 C.3       0 UNK        -0.2013 
      2 C          16.4299  -22.9705  -46.6054 C.2       0 UNK         0.4866 
      3 O          16.4987  -22.7965  -47.8226 O.2       0 UNK        -0.5176 
      4 N          17.1427  -23.9015  -45.9659 N.am      1 UNK        -0.4884 
      5 CA         18.0926  -24.8245  -46.5856 C.3       1 UNK         0.0853 
      6 C6         17.3941  -25.9890  -47.3453 C.3       10 UNK        -0.0849 
      7 S7         16.3190  -27.0399  -46.3029 S.3       10 UNK        -0.2776 
      8 C8         17.3690  -28.5222  -46.1244 C.3       10 UNK         0.0316 
      9 C9         17.1604  -29.2856  -44.8189 C.ar      10 UNK        -0.0863 
     10 C10        17.3159  -30.6755  -44.8110 C.ar      10 UNK        -0.1009 
     11 C11        17.1939  -31.4074  -43.6260 C.ar      10 UNK        -0.0712 
     12 C12        16.8758  -30.7338  -42.4415 C.ar      10 UNK        -0.0894 
     13 C13        16.7525  -29.3425  -42.4245 C.ar      10 UNK        -0.0745 
     14 C14        16.8963  -28.6233  -43.6136 C.ar      10 UNK        -0.0972 
     15 C15        16.5075  -28.6204  -41.1091 C.3       10 UNK         0.0209 
     16 S16        17.9810  -28.6794  -40.0383 S.3       10 UNK        -0.2568 
     17 C17        19.1468  -27.5848  -40.9235 C.3       10 UNK        -0.0983 
     18 CA         20.1043  -28.3188  -41.9065 C.3       3 UNK         0.0876 
     19 N          20.6117  -27.3707  -42.8990 N.am      3 UNK        -0.4424 
     20 C          20.7513  -27.6144  -44.2046 C.2       2 UNK         0.4918 
     21 O          20.4915  -28.6901  -44.7432 O.2       2 UNK        -0.4875 
     22 CA         21.2541  -26.4393  -45.0631 C.3       2 UNK         0.0481 
     23 CB         22.4569  -26.8543  -45.9277 C.3       2 UNK        -0.1831 
     24 N          20.1970  -25.9116  -45.9307 N.am      2 UNK        -0.4498 
     25 C          19.0847  -25.2962  -45.5032 C.2       1 UNK         0.5027 
     26 O          18.8353  -25.0821  -44.3120 O.2       1 UNK        -0.4969 
     27 C          21.2732  -29.0470  -41.2038 C.2       3 UNK         0.5005 
     28 O          22.4277  -28.9611  -41.6354 O.2       3 UNK        -0.5279 
     29 N          20.9622  -29.7377  -40.0989 N.am      4 UNK        -0.4463 
     30 CA         21.9112  -30.4449  -39.2325 C.3       4 UNK         0.0283 
     31 CB         21.1391  -31.2131  -38.1493 C.3       4 UNK        -0.1875 
     32 C          22.9660  -29.5241  -38.5951 C.2       4 UNK         0.4949 
     33 O          24.0866  -29.9693  -38.3543 O.2       4 UNK        -0.5039 
     34 N          22.6207  -28.2427  -38.4022 N.am      5 UNK        -0.4663 
     35 CA         23.5347  -27.1785  -37.9727 C.3       5 UNK         0.0242 
     36 CB         22.7216  -25.9056  -37.6873 C.3       5 UNK        -0.1982 
     37 C          24.6604  -26.8819  -38.9843 C.2       5 UNK         0.5017 
     38 O          25.7157  -26.3947  -38.5788 O.2       5 UNK        -0.5012 
     39 N          24.4278  -27.1992  -40.2662 N.am      6 UNK        -0.4439 
     40 CA         25.4089  -27.1256  -41.3508 C.3       6 UNK         0.0297 
     41 CB         24.7146  -26.5499  -42.5988 C.3       6 UNK        -0.2006 
     42 C          26.0343  -28.5021  -41.6569 C.2       6 UNK         0.4892 
     43 O          26.7830  -28.6093  -42.6286 O.2       6 UNK        -0.5089 
     44 N          25.7038  -29.5277  -40.8523 N.am      7 UNK        -0.4243 
     45 CA         26.0719  -30.9428  -40.9967 C.3       7 UNK         0.0196 
     46 CB         27.5952  -31.1384  -40.8407 C.3       7 UNK        -0.2007 
     47 C          25.5121  -31.5992  -42.2758 C.2       7 UNK         0.5020 
     48 O          26.0741  -32.5876  -42.7494 O.2       7 UNK        -0.5147 
     49 N          24.4111  -31.0530  -42.8087 N.am      8 UNK        -0.4734 
     50 CA         23.7672  -31.4982  -44.0486 C.3       8 UNK         0.0238 
     51 CB         23.5019  -30.2594  -44.9169 C.3       8 UNK        -0.1912 
     52 C          22.4788  -32.3031  -43.7931 C.2       8 UNK         0.5038 
     53 O          21.7845  -32.6520  -44.7486 O.2       8 UNK        -0.5046 
     54 N          22.1878  -32.5979  -42.5228 N.am      9 UNK        -0.4200 
     55 CA         21.0584  -33.4028  -42.0501 C.3       9 UNK         0.0839 
     56 C          21.4190  -34.0833  -40.6998 C.2       9 UNK         0.5513 
     57 N          20.5195  -34.8773  -40.1392 N.am      9 UNK        -0.7519 
     58 O          22.5063  -33.9012  -40.1537 O.2       9 UNK        -0.4960 
     59 C59        19.7442  -32.5732  -42.0053 C.3       10 UNK        -0.0876 
     60 S60        18.2306  -33.5889  -42.1499 S.3       10 UNK        -0.2414 
     61 C61        17.4355  -32.9171  -43.6531 C.3       10 UNK         0.0169 
     62 H62        15.5460  -22.3645  -44.7097 H         1 UNK         0.0903 
     63 H63        15.7875  -21.0514  -45.8641 H         1 UNK         0.0903 
     64 H64        14.4770  -22.2103  -46.1050 H         1 UNK         0.0903 
     65 H65        17.1011  -23.9917  -44.9572 H         1 UNK         0.3096 
     66 H66        18.6808  -24.2522  -47.3070 H         1 UNK         0.1121 
     67 H67        18.1306  -26.6061  -47.8623 H         1 UNK         0.0849 
     68 H68        16.7715  -25.5762  -48.1404 H         1 UNK         0.0849 
     69 H69        17.1831  -29.1734  -46.9799 H         1 UNK         0.0865 
     70 H70        18.4185  -28.2394  -46.1811 H         1 UNK         0.0865 
     71 H71        17.5604  -31.1896  -45.7308 H         1 UNK         0.1346 
     72 H72        16.7701  -31.2832  -41.5164 H         1 UNK         0.1412 
     73 H73        16.8237  -27.5445  -43.5951 H         1 UNK         0.1426 
     74 H74        15.6736  -29.0944  -40.5894 H         1 UNK         0.0716 
     75 H75        16.2146  -27.5826  -41.2762 H         1 UNK         0.0716 
     76 H76        18.5494  -26.8513  -41.4686 H         1 UNK         0.0695 
     77 H77        19.7102  -27.0054  -40.1895 H         1 UNK         0.0695 
     78 H78        19.5369  -29.0929  -42.4269 H         1 UNK         0.0983 
     79 H79        20.8623  -26.4576  -42.5504 H         1 UNK         0.3095 
     80 H80        21.5823  -25.6331  -44.4034 H         1 UNK         0.0454 
     81 H81        23.2769  -27.2184  -45.3089 H         1 UNK         0.0851 
     82 H82        22.8414  -26.0134  -46.5049 H         1 UNK         0.0851 
     83 H83        22.1994  -27.6517  -46.6262 H         1 UNK         0.0851 
     84 H84        20.3213  -26.0613  -46.9216 H         1 UNK         0.2976 
     85 H85        19.9938  -29.7233  -39.7999 H         1 UNK         0.3116 
     86 H86        22.4468  -31.1663  -39.8513 H         1 UNK         0.0646 
     87 H87        20.5736  -30.5423  -37.5014 H         1 UNK         0.0847 
     88 H88        20.4404  -31.9267  -38.5861 H         1 UNK         0.0847 
     89 H89        21.8215  -31.7815  -37.5157 H         1 UNK         0.0847 
     90 H90        21.6718  -27.9696  -38.6120 H         1 UNK         0.3040 
     91 H91        24.0113  -27.5007  -37.0440 H         1 UNK         0.1015 
     92 H92        23.3686  -25.0995  -37.3379 H         1 UNK         0.0786 
     93 H93        21.9746  -26.0766  -36.9118 H         1 UNK         0.0786 
     94 H94        22.2062  -25.5461  -38.5789 H         1 UNK         0.0786 
     95 H95        23.5444  -27.6348  -40.5099 H         1 UNK         0.3172 
     96 H96        26.2240  -26.4534  -41.0758 H         1 UNK         0.0595 
     97 H97        23.9225  -27.2073  -42.9570 H         1 UNK         0.0839 
     98 H98        25.4228  -26.4183  -43.4179 H         1 UNK         0.0839 
     99 H99        24.2745  -25.5739  -42.3943 H         1 UNK         0.0839 
    100 H100       25.1021  -29.3319  -40.0605 H         1 UNK         0.2998 
    101 H101       25.5913  -31.4620  -40.1662 H         1 UNK         0.0822 
    102 H102       27.8507  -32.1974  -40.7875 H         1 UNK         0.0787 
    103 H103       27.9630  -30.6725  -39.9264 H         1 UNK         0.0787 
    104 H104       28.1470  -30.7142  -41.6800 H         1 UNK         0.0787 
    105 H105       23.9857  -30.2535  -42.3495 H         1 UNK         0.3055 
    106 H106       24.4335  -32.1591  -44.6073 H         1 UNK         0.1106 
    107 H107       22.9202  -29.5205  -44.3700 H         1 UNK         0.0828 
    108 H108       24.4349  -29.7856  -45.2223 H         1 UNK         0.0828 
    109 H109       22.9513  -30.5096  -45.8247 H         1 UNK         0.0828 
    110 H110       22.8505  -32.3431  -41.8037 H         1 UNK         0.2931 
    111 H111       20.9365  -34.2170  -42.7672 H         1 UNK         0.0412 
    112 H112       20.7347  -35.3313  -39.2654 H         1 UNK         0.3472 
    113 H113       19.6175  -35.0108  -40.5726 H         1 UNK         0.3472 
    114 H114       19.6820  -31.9882  -41.0875 H         1 UNK         0.0970 
    115 H115       19.7440  -31.8426  -42.8153 H         1 UNK         0.0970 
    116 H116       16.4794  -33.4213  -43.7978 H         1 UNK         0.0612 
    117 H117       18.0604  -33.1821  -44.5076 H         1 UNK         0.0612 
@<TRIPOS>BOND
     1    1    2 1    
     2    1   62 1    
     3    1   63 1    
     4    1   64 1    
     5    2    3 2    
     6    2    4 am   BACKBONE|DICT|INTERRES
     7    4    5 1    
     8    4   65 1    
     9    5    6 1    
    10    5   25 1    
    11    5   66 1    
    12    6    7 1    
    13    6   67 1    
    14    6   68 1    
    15    7    8 1    
    16    8    9 1    
    17    8   69 1    
    18    8   70 1    
    19    9   10 ar   
    20    9   14 ar   
    21   10   11 ar   
    22   10   71 1    
    23   11   12 ar   
    24   11   61 1    
    25   12   13 ar   
    26   12   72 1    
    27   13   14 ar   
    28   13   15 1    
    29   14   73 1    
    30   15   16 1    
    31   15   74 1    
    32   15   75 1    
    33   16   17 1    
    34   17   18 1    
    35   17   76 1    
    36   17   77 1    
    37   18   19 1    
    38   18   27 1    
    39   18   78 1    
    40   19   20 am   BACKBONE|DICT|INTERRES
    41   19   79 1    
    42   20   21 2    
    43   20   22 1    
    44   22   23 1    
    45   22   24 1    
    46   22   80 1    
    47   23   81 1    
    48   23   82 1    
    49   23   83 1    
    50   24   25 am   BACKBONE|DICT|INTERRES
    51   24   84 1    
    52   25   26 2    
    53   27   28 2    
    54   27   29 am   BACKBONE|DICT|INTERRES
    55   29   30 1    
    56   29   85 1    
    57   30   31 1    
    58   30   32 1    
    59   30   86 1    
    60   31   87 1    
    61   31   88 1    
    62   31   89 1    
    63   32   33 2    
    64   32   34 am   BACKBONE|DICT|INTERRES
    65   34   35 1    
    66   34   90 1    
    67   35   36 1    
    68   35   37 1    
    69   35   91 1    
    70   36   92 1    
    71   36   93 1    
    72   36   94 1    
    73   37   38 2    
    74   37   39 am   BACKBONE|DICT|INTERRES
    75   39   40 1    
    76   39   95 1    
    77   40   41 1    
    78   40   42 1    
    79   40   96 1    
    80   41   97 1    
    81   41   98 1    
    82   41   99 1    
    83   42   43 2    
    84   42   44 am   BACKBONE|DICT|INTERRES
    85   44   45 1    
    86   44  100 1    
    87   45   46 1    
    88   45   47 1    
    89   45  101 1    
    90   46  102 1    
    91   46  103 1    
    92   46  104 1    
    93   47   48 2    
    94   47   49 am   BACKBONE|DICT|INTERRES
    95   49   50 1    
    96   49  105 1    
    97   50   51 1    
    98   50   52 1    
    99   50  106 1    
   100   51  107 1    
   101   51  108 1    
   102   51  109 1    
   103   52   53 2    
   104   52   54 am   BACKBONE|DICT|INTERRES
   105   54   55 1    
   106   54  110 1    
   107   55   56 1    
   108   55   59 1    
   109   55  111 1    
   110   56   57 am   BACKBONE|DICT|INTERRES
   111   56   58 2    
   112   57  112 1    
   113   57  113 1    
   114   59   60 1    
   115   59  114 1    
   116   59  115 1    
   117   60   61 1    
   118   61  116 1    
   119   61  117 1    
@<TRIPOS>SUBSTRUCTURE
     1 UNK         1 GROUP             0       ****    0 ROOT    
