@<TRIPOS>MOLECULE
3R8
117   119    1
SMALL
USER_CHARGES


@<TRIPOS>ATOM
      1 CA         18.7224  -25.4163  -49.7650 C.3       0 UNK        -0.2013 
      2 C          19.1252  -26.7057  -49.0653 C.2       0 UNK         0.4866 
      3 O          20.1834  -27.2589  -49.3647 O.2       0 UNK        -0.5176 
      4 N          18.2886  -27.1894  -48.1367 N.am      1 UNK        -0.4884 
      5 CA         18.5244  -28.4113  -47.3537 C.3       1 UNK         0.0853 
      6 C6         17.2093  -28.9200  -46.7095 C.3       10 UNK        -0.0849 
      7 S7         17.1940  -30.7282  -46.4697 S.3       10 UNK        -0.2776 
      8 C8         15.6637  -30.9535  -45.5081 C.3       10 UNK         0.0316 
      9 C9         15.8371  -30.5003  -44.0663 C.ar      10 UNK        -0.0863 
     10 C10        16.4151  -31.3575  -43.1264 C.ar      10 UNK        -0.1009 
     11 C11        16.6080  -30.9389  -41.8061 C.ar      10 UNK        -0.0712 
     12 C12        16.2006  -29.6568  -41.4245 C.ar      10 UNK        -0.0894 
     13 C13        15.6068  -28.7974  -42.3533 C.ar      10 UNK        -0.0745 
     14 C14        15.4222  -29.2264  -43.6701 C.ar      10 UNK        -0.0972 
     15 C15        15.1615  -27.4031  -41.9450 C.3       10 UNK         0.0209 
     16 S16        16.3967  -26.1536  -42.4146 S.3       10 UNK        -0.2568 
     17 C17        17.6285  -26.3135  -41.0759 C.3       10 UNK        -0.0983 
     18 CA         18.9011  -27.1113  -41.4674 C.3       3 UNK         0.0876 
     19 N          19.4676  -26.6379  -42.7360 N.am      3 UNK        -0.4424 
     20 C          20.4504  -27.2255  -43.4280 C.2       2 UNK         0.4918 
     21 O          21.0547  -28.2325  -43.0546 O.2       2 UNK        -0.4875 
     22 CA         20.7706  -26.5668  -44.7818 C.3       2 UNK         0.0481 
     23 CB         22.2269  -26.7902  -45.2322 C.3       2 UNK        -0.1831 
     24 N          19.8220  -26.9918  -45.8161 N.am      2 UNK        -0.4498 
     25 C          19.6407  -28.2328  -46.2986 C.2       1 UNK         0.5027 
     26 O          20.3154  -29.2061  -45.9642 O.2       1 UNK        -0.4969 
     27 C          19.8997  -27.0804  -40.2876 C.2       3 UNK         0.5005 
     28 O          19.6762  -27.7760  -39.2955 O.2       3 UNK        -0.5279 
     29 N          20.9456  -26.2449  -40.3895 N.am      4 UNK        -0.4463 
     30 CA         21.9884  -26.0551  -39.3800 C.3       4 UNK         0.0283 
     31 CB         22.9271  -24.9233  -39.8287 C.3       4 UNK        -0.1875 
     32 C          22.7903  -27.3410  -39.1324 C.2       4 UNK         0.4949 
     33 O          23.2284  -27.9756  -40.0921 O.2       4 UNK        -0.5039 
     34 N          23.0102  -27.6658  -37.8515 N.am      5 UNK        -0.4663 
     35 CA         23.6435  -28.9007  -37.3665 C.3       5 UNK         0.0242 
     36 CB         23.5560  -28.9299  -35.8313 C.3       5 UNK        -0.1982 
     37 C          25.0961  -29.1372  -37.8249 C.2       5 UNK         0.5017 
     38 O          25.5882  -30.2582  -37.6919 O.2       5 UNK        -0.5012 
     39 N          25.7508  -28.1005  -38.3596 N.am      6 UNK        -0.4439 
     40 CA         27.0882  -28.1736  -38.9429 C.3       6 UNK         0.0297 
     41 CB         27.7422  -26.7844  -38.8529 C.3       6 UNK        -0.2006 
     42 C          27.1038  -28.6724  -40.4015 C.2       6 UNK         0.4892 
     43 O          28.1648  -29.1097  -40.8492 O.2       6 UNK        -0.5089 
     44 N          25.9820  -28.5593  -41.1336 N.am      7 UNK        -0.4243 
     45 CA         25.9308  -28.8221  -42.5759 C.3       7 UNK         0.0196 
     46 CB         24.8866  -27.9331  -43.2753 C.3       7 UNK        -0.2007 
     47 C          25.8733  -30.3187  -42.9598 C.2       7 UNK         0.5020 
     48 O          26.8415  -30.7958  -43.5492 O.2       7 UNK        -0.5147 
     49 N          24.8196  -31.0944  -42.6677 N.am      8 UNK        -0.4734 
     50 CA         23.5220  -30.7639  -42.0857 C.3       8 UNK         0.0238 
     51 CB         23.5538  -31.0635  -40.5796 C.3       8 UNK        -0.1912 
     52 C          22.4728  -31.6595  -42.7516 C.2       8 UNK         0.5038 
     53 O          22.7551  -32.8450  -42.9504 O.2       8 UNK        -0.5046 
     54 N          21.2814  -31.1081  -43.0161 N.am      9 UNK        -0.4200 
     55 CA         20.0703  -31.8428  -43.4247 C.3       9 UNK         0.0839 
     56 C          20.2437  -32.6403  -44.7523 C.2       9 UNK         0.5513 
     57 N          20.7091  -32.0011  -45.8154 N.am      9 UNK        -0.7519 
     58 O          19.9659  -33.8355  -44.8274 O.2       9 UNK        -0.4960 
     59 C59        19.5083  -32.7169  -42.2647 C.3       10 UNK        -0.0876 
     60 S60        19.0612  -31.7385  -40.7873 S.3       10 UNK        -0.2414 
     61 C61        17.2454  -31.8708  -40.7864 C.3       10 UNK         0.0169 
     62 H62        18.6420  -25.5820  -50.8390 H         1 UNK         0.0903 
     63 H63        17.7642  -25.0391  -49.4081 H         1 UNK         0.0903 
     64 H64        19.4745  -24.6464  -49.5947 H         1 UNK         0.0903 
     65 H65        17.4270  -26.6975  -47.9434 H         1 UNK         0.3096 
     66 H66        18.8779  -29.1708  -48.0557 H         1 UNK         0.1121 
     67 H67        17.0164  -28.4113  -45.7639 H         1 UNK         0.0849 
     68 H68        16.3590  -28.6877  -47.3529 H         1 UNK         0.0849 
     69 H69        14.8436  -30.4171  -45.9882 H         1 UNK         0.0865 
     70 H70        15.3872  -32.0087  -45.5281 H         1 UNK         0.0865 
     71 H71        16.7244  -32.3471  -43.4312 H         1 UNK         0.1346 
     72 H72        16.3497  -29.3275  -40.4052 H         1 UNK         0.1412 
     73 H73        14.9676  -28.5591  -44.3899 H         1 UNK         0.1426 
     74 H74        14.9599  -27.3527  -40.8740 H         1 UNK         0.0716 
     75 H75        14.2187  -27.1649  -42.4399 H         1 UNK         0.0716 
     76 H76        17.1528  -26.7639  -40.2028 H         1 UNK         0.0695 
     77 H77        17.8980  -25.2990  -40.7748 H         1 UNK         0.0695 
     78 H78        18.6228  -28.1569  -41.6154 H         1 UNK         0.0983 
     79 H79        19.0025  -25.8378  -43.1402 H         1 UNK         0.3095 
     80 H80        20.6348  -25.4904  -44.6649 H         1 UNK         0.0454 
     81 H81        22.4757  -27.8486  -45.3111 H         1 UNK         0.0851 
     82 H82        22.9187  -26.3408  -44.5204 H         1 UNK         0.0851 
     83 H83        22.4172  -26.3302  -46.2016 H         1 UNK         0.0851 
     84 H84        19.2134  -26.2698  -46.1747 H         1 UNK         0.2976 
     85 H85        21.0535  -25.7331  -41.2520 H         1 UNK         0.3116 
     86 H86        21.4989  -25.7542  -38.4515 H         1 UNK         0.0646 
     87 H87        23.4328  -25.1654  -40.7648 H         1 UNK         0.0847 
     88 H88        23.6993  -24.7358  -39.0814 H         1 UNK         0.0847 
     89 H89        22.3849  -23.9884  -39.9712 H         1 UNK         0.0847 
     90 H90        22.6315  -27.0585  -37.1382 H         1 UNK         0.3040 
     91 H91        23.0574  -29.7358  -37.7559 H         1 UNK         0.1015 
     92 H92        24.0997  -28.0984  -35.3809 H         1 UNK         0.0786 
     93 H93        23.9811  -29.8516  -35.4308 H         1 UNK         0.0786 
     94 H94        22.5216  -28.8812  -35.4904 H         1 UNK         0.0786 
     95 H95        25.2615  -27.2205  -38.4309 H         1 UNK         0.3172 
     96 H96        27.6931  -28.8663  -38.3535 H         1 UNK         0.0595 
     97 H97        27.1881  -26.0379  -39.4234 H         1 UNK         0.0839 
     98 H98        28.7592  -26.8054  -39.2472 H         1 UNK         0.0839 
     99 H99        27.8055  -26.4408  -37.8202 H         1 UNK         0.0839 
    100 H100       25.1175  -28.2616  -40.6913 H         1 UNK         0.2998 
    101 H101       26.8835  -28.4786  -42.9869 H         1 UNK         0.0822 
    102 H102       25.3035  -26.9474  -43.4826 H         1 UNK         0.0787 
    103 H103       24.5829  -28.3580  -44.2325 H         1 UNK         0.0787 
    104 H104       23.9915  -27.7692  -42.6773 H         1 UNK         0.0787 
    105 H105       24.8544  -32.0572  -42.9787 H         1 UNK         0.3055 
    106 H106       23.2531  -29.7244  -42.2492 H         1 UNK         0.1106 
    107 H107       22.6295  -30.7383  -40.1000 H         1 UNK         0.0828 
    108 H108       23.6748  -32.1281  -40.3754 H         1 UNK         0.0828 
    109 H109       24.3769  -30.5455  -40.0979 H         1 UNK         0.0828 
    110 H110       21.1622  -30.1049  -42.8962 H         1 UNK         0.2931 
    111 H111       19.3215  -31.0809  -43.6463 H         1 UNK         0.0412 
    112 H112       20.8112  -30.9891  -45.7924 H         1 UNK         0.3472 
    113 H113       20.8306  -32.5009  -46.6809 H         1 UNK         0.3472 
    114 H114       20.2427  -33.4666  -41.9662 H         1 UNK         0.0970 
    115 H115       18.6392  -33.2852  -42.5962 H         1 UNK         0.0970 
    116 H116       16.8826  -31.6265  -39.7869 H         1 UNK         0.0612 
    117 H117       16.9448  -32.9033  -40.9702 H         1 UNK         0.0612 
@<TRIPOS>BOND
     1    1    2 1    
     2    1   62 1    
     3    1   63 1    
     4    1   64 1    
     5    2    3 2    
     6    2    4 am   BACKBONE|DICT|INTERRES
     7    4    5 1    
     8    4   65 1    
     9    5    6 1    
    10    5   25 1    
    11    5   66 1    
    12    6    7 1    
    13    6   67 1    
    14    6   68 1    
    15    7    8 1    
    16    8    9 1    
    17    8   69 1    
    18    8   70 1    
    19    9   10 ar   
    20    9   14 ar   
    21   10   11 ar   
    22   10   71 1    
    23   11   12 ar   
    24   11   61 1    
    25   12   13 ar   
    26   12   72 1    
    27   13   14 ar   
    28   13   15 1    
    29   14   73 1    
    30   15   16 1    
    31   15   74 1    
    32   15   75 1    
    33   16   17 1    
    34   17   18 1    
    35   17   76 1    
    36   17   77 1    
    37   18   19 1    
    38   18   27 1    
    39   18   78 1    
    40   19   20 am   BACKBONE|DICT|INTERRES
    41   19   79 1    
    42   20   21 2    
    43   20   22 1    
    44   22   23 1    
    45   22   24 1    
    46   22   80 1    
    47   23   81 1    
    48   23   82 1    
    49   23   83 1    
    50   24   25 am   BACKBONE|DICT|INTERRES
    51   24   84 1    
    52   25   26 2    
    53   27   28 2    
    54   27   29 am   BACKBONE|DICT|INTERRES
    55   29   30 1    
    56   29   85 1    
    57   30   31 1    
    58   30   32 1    
    59   30   86 1    
    60   31   87 1    
    61   31   88 1    
    62   31   89 1    
    63   32   33 2    
    64   32   34 am   BACKBONE|DICT|INTERRES
    65   34   35 1    
    66   34   90 1    
    67   35   36 1    
    68   35   37 1    
    69   35   91 1    
    70   36   92 1    
    71   36   93 1    
    72   36   94 1    
    73   37   38 2    
    74   37   39 am   BACKBONE|DICT|INTERRES
    75   39   40 1    
    76   39   95 1    
    77   40   41 1    
    78   40   42 1    
    79   40   96 1    
    80   41   97 1    
    81   41   98 1    
    82   41   99 1    
    83   42   43 2    
    84   42   44 am   BACKBONE|DICT|INTERRES
    85   44   45 1    
    86   44  100 1    
    87   45   46 1    
    88   45   47 1    
    89   45  101 1    
    90   46  102 1    
    91   46  103 1    
    92   46  104 1    
    93   47   48 2    
    94   47   49 am   BACKBONE|DICT|INTERRES
    95   49   50 1    
    96   49  105 1    
    97   50   51 1    
    98   50   52 1    
    99   50  106 1    
   100   51  107 1    
   101   51  108 1    
   102   51  109 1    
   103   52   53 2    
   104   52   54 am   BACKBONE|DICT|INTERRES
   105   54   55 1    
   106   54  110 1    
   107   55   56 1    
   108   55   59 1    
   109   55  111 1    
   110   56   57 am   BACKBONE|DICT|INTERRES
   111   56   58 2    
   112   57  112 1    
   113   57  113 1    
   114   59   60 1    
   115   59  114 1    
   116   59  115 1    
   117   60   61 1    
   118   61  116 1    
   119   61  117 1    
@<TRIPOS>SUBSTRUCTURE
     1 UNK         1 GROUP             0       ****    0 ROOT    
