@<TRIPOS>MOLECULE
3R8
117   119    1
SMALL
USER_CHARGES


@<TRIPOS>ATOM
      1 CA         24.4092  -26.4350  -45.3471 C.3       0 UNK        -0.2013 
      2 C          23.1395  -27.0425  -45.9230 C.2       0 UNK         0.4866 
      3 O          23.2169  -27.9436  -46.7571 O.2       0 UNK        -0.5176 
      4 N          21.9769  -26.5433  -45.4930 N.am      1 UNK        -0.4884 
      5 CA         20.6487  -26.9854  -45.9140 C.3       1 UNK         0.0853 
      6 C6         20.2818  -26.5337  -47.3658 C.3       10 UNK        -0.0849 
      7 S7         20.0198  -27.9260  -48.5163 S.3       10 UNK        -0.2776 
      8 C8         18.3190  -28.4927  -48.1416 C.3       10 UNK         0.0316 
      9 C9         18.2071  -29.4173  -46.9258 C.ar      10 UNK        -0.0863 
     10 C10        19.2393  -30.2999  -46.5860 C.ar      10 UNK        -0.1009 
     11 C11        19.1187  -31.1567  -45.4920 C.ar      10 UNK        -0.0712 
     12 C12        17.9341  -31.1593  -44.7510 C.ar      10 UNK        -0.0894 
     13 C13        16.8892  -30.2788  -45.0608 C.ar      10 UNK        -0.0745 
     14 C14        17.0342  -29.4211  -46.1590 C.ar      10 UNK        -0.0972 
     15 C15        15.5826  -30.2485  -44.2566 C.3       10 UNK         0.0209 
     16 S16        15.6934  -30.9076  -42.5499 S.3       10 UNK        -0.2568 
     17 C17        16.0812  -29.4569  -41.5053 C.3       10 UNK        -0.0983 
     18 CA         17.4999  -28.8724  -41.7634 C.3       3 UNK         0.0876 
     19 N          17.5411  -28.0085  -42.9484 N.am      3 UNK        -0.4424 
     20 C          16.9671  -26.8035  -43.0821 C.2       2 UNK         0.4918 
     21 O          16.2882  -26.2650  -42.2070 O.2       2 UNK        -0.4875 
     22 CA         17.1845  -26.0792  -44.4247 C.3       2 UNK         0.0481 
     23 CB         17.2479  -24.5465  -44.2551 C.3       2 UNK        -0.1831 
     24 N          18.3401  -26.5610  -45.1951 N.am      2 UNK        -0.4498 
     25 C          19.6358  -26.5153  -44.8502 C.2       1 UNK         0.5027 
     26 O          20.0348  -26.1277  -43.7480 O.2       1 UNK        -0.4969 
     27 C          18.1736  -28.2058  -40.5359 C.2       3 UNK         0.5005 
     28 O          17.7896  -28.4621  -39.3928 O.2       3 UNK        -0.5279 
     29 N          19.1853  -27.3659  -40.8022 N.am      4 UNK        -0.4463 
     30 CA         20.0368  -26.7140  -39.8091 C.3       4 UNK         0.0283 
     31 CB         20.6212  -25.4392  -40.4446 C.3       4 UNK        -0.1875 
     32 C          21.1636  -27.6491  -39.3361 C.2       4 UNK         0.4949 
     33 O          21.3494  -28.7368  -39.8854 O.2       4 UNK        -0.5039 
     34 N          21.9343  -27.1888  -38.3415 N.am      5 UNK        -0.4663 
     35 CA         23.1388  -27.8709  -37.8495 C.3       5 UNK         0.0242 
     36 CB         23.6061  -27.2006  -36.5477 C.3       5 UNK        -0.1982 
     37 C          24.2855  -27.9081  -38.8791 C.2       5 UNK         0.5017 
     38 O          25.1381  -28.7941  -38.8013 O.2       5 UNK        -0.5012 
     39 N          24.2787  -26.9621  -39.8304 N.am      6 UNK        -0.4439 
     40 CA         25.1780  -26.9109  -40.9834 C.3       6 UNK         0.0297 
     41 CB         24.9017  -25.6305  -41.7871 C.3       6 UNK        -0.2006 
     42 C          25.0108  -28.1589  -41.8662 C.2       6 UNK         0.4892 
     43 O          23.8809  -28.5171  -42.2014 O.2       6 UNK        -0.5089 
     44 N          26.1392  -28.8096  -42.1830 N.am      7 UNK        -0.4243 
     45 CA         26.2537  -30.1017  -42.8783 C.3       7 UNK         0.0196 
     46 CB         25.7193  -30.0090  -44.3245 C.3       7 UNK        -0.2007 
     47 C          25.6464  -31.2951  -42.1060 C.2       7 UNK         0.5020 
     48 O          25.4922  -32.3687  -42.6891 O.2       7 UNK        -0.5147 
     49 N          25.3366  -31.1023  -40.8127 N.am      8 UNK        -0.4734 
     50 CA         24.7360  -32.0642  -39.8800 C.3       8 UNK         0.0238 
     51 CB         25.7240  -33.2092  -39.5683 C.3       8 UNK        -0.1912 
     52 C          23.3458  -32.5738  -40.3139 C.2       8 UNK         0.5038 
     53 O          22.9887  -33.7071  -39.9846 O.2       8 UNK        -0.5046 
     54 N          22.5867  -31.7400  -41.0389 N.am      9 UNK        -0.4200 
     55 CA         21.2232  -32.0483  -41.4930 C.3       9 UNK         0.0839 
     56 C          20.2023  -32.1797  -40.3294 C.2       9 UNK         0.5513 
     57 N          20.2051  -31.2698  -39.3658 N.am      9 UNK        -0.7519 
     58 O          19.4033  -33.1118  -40.3065 O.2       9 UNK        -0.4960 
     59 C59        20.7254  -31.0319  -42.5476 C.3       10 UNK        -0.0876 
     60 S60        21.5566  -31.2171  -44.1587 S.3       10 UNK        -0.2414 
     61 C61        20.2716  -32.0820  -45.1229 C.3       10 UNK         0.0169 
     62 H62        25.1156  -26.2104  -46.1459 H         1 UNK         0.0903 
     63 H63        24.2069  -25.5100  -44.8080 H         1 UNK         0.0903 
     64 H64        24.8815  -27.1363  -44.6621 H         1 UNK         0.0903 
     65 H65        21.9530  -25.8593  -44.7459 H         1 UNK         0.3096 
     66 H66        20.6530  -28.0747  -45.8506 H         1 UNK         0.1121 
     67 H67        21.0944  -25.9400  -47.7878 H         1 UNK         0.0849 
     68 H68        19.4218  -25.8641  -47.4186 H         1 UNK         0.0849 
     69 H69        17.6645  -27.6261  -48.0382 H         1 UNK         0.0865 
     70 H70        17.9509  -29.0431  -49.0084 H         1 UNK         0.0865 
     71 H71        20.1502  -30.3247  -47.1682 H         1 UNK         0.1346 
     72 H72        17.8342  -31.8528  -43.9286 H         1 UNK         0.1412 
     73 H73        16.2207  -28.7586  -46.4235 H         1 UNK         0.1426 
     74 H74        14.8464  -30.8437  -44.7980 H         1 UNK         0.0716 
     75 H75        15.1842  -29.2336  -44.2175 H         1 UNK         0.0716 
     76 H76        15.3038  -28.7017  -41.6267 H         1 UNK         0.0695 
     77 H77        15.9834  -29.8117  -40.4784 H         1 UNK         0.0695 
     78 H78        18.1534  -29.7133  -41.9815 H         1 UNK         0.0983 
     79 H79        18.0517  -28.3738  -43.7390 H         1 UNK         0.3095 
     80 H80        16.3059  -26.3062  -45.0299 H         1 UNK         0.0454 
     81 H81        18.0633  -24.2455  -43.5966 H         1 UNK         0.0851 
     82 H82        16.3241  -24.1598  -43.8230 H         1 UNK         0.0851 
     83 H83        17.3873  -24.0456  -45.2129 H         1 UNK         0.0851 
     84 H84        18.1183  -26.9349  -46.1062 H         1 UNK         0.2976 
     85 H85        19.4411  -27.2116  -41.7694 H         1 UNK         0.3116 
     86 H86        19.4310  -26.4348  -38.9446 H         1 UNK         0.0646 
     87 H87        21.2921  -25.6732  -41.2727 H         1 UNK         0.0847 
     88 H88        21.1859  -24.8517  -39.7202 H         1 UNK         0.0847 
     89 H89        19.8326  -24.7935  -40.8321 H         1 UNK         0.0847 
     90 H90        21.7122  -26.2973  -37.9209 H         1 UNK         0.3040 
     91 H91        22.8736  -28.9072  -37.6270 H         1 UNK         0.1015 
     92 H92        23.8730  -26.1546  -36.7039 H         1 UNK         0.0786 
     93 H93        24.4857  -27.7043  -36.1439 H         1 UNK         0.0786 
     94 H94        22.8325  -27.2404  -35.7805 H         1 UNK         0.0786 
     95 H95        23.5174  -26.3013  -39.8211 H         1 UNK         0.3172 
     96 H96        26.2014  -26.8687  -40.6046 H         1 UNK         0.0595 
     97 H97        25.5956  -25.5403  -42.6236 H         1 UNK         0.0839 
     98 H98        25.0237  -24.7390  -41.1717 H         1 UNK         0.0839 
     99 H99        23.8904  -25.6214  -42.1965 H         1 UNK         0.0839 
    100 H100       27.0128  -28.4290  -41.8440 H         1 UNK         0.2998 
    101 H101       27.3226  -30.3112  -42.9413 H         1 UNK         0.0822 
    102 H102       25.9220  -30.9268  -44.8776 H         1 UNK         0.0787 
    103 H103       24.6405  -29.8507  -44.3523 H         1 UNK         0.0787 
    104 H104       26.1945  -29.1958  -44.8723 H         1 UNK         0.0787 
    105 H105       25.4870  -30.1784  -40.4220 H         1 UNK         0.3055 
    106 H106       24.5677  -31.5176  -38.9507 H         1 UNK         0.1106 
    107 H107       25.3474  -33.8454  -38.7664 H         1 UNK         0.0828 
    108 H108       25.8911  -33.8472  -40.4366 H         1 UNK         0.0828 
    109 H109       26.6901  -32.8228  -39.2441 H         1 UNK         0.0828 
    110 H110       22.9435  -30.8230  -41.2718 H         1 UNK         0.2931 
    111 H111       21.2630  -33.0267  -41.9769 H         1 UNK         0.0412 
    112 H112       20.7879  -30.4404  -39.4518 H         1 UNK         0.3472 
    113 H113       19.5461  -31.3465  -38.6081 H         1 UNK         0.3472 
    114 H114       20.8652  -30.0077  -42.1974 H         1 UNK         0.0970 
    115 H115       19.6573  -31.1554  -42.7008 H         1 UNK         0.0970 
    116 H116       20.7250  -32.4788  -46.0324 H         1 UNK         0.0612 
    117 H117       19.9123  -32.9453  -44.5605 H         1 UNK         0.0612 
@<TRIPOS>BOND
     1    1    2 1    
     2    1   62 1    
     3    1   63 1    
     4    1   64 1    
     5    2    3 2    
     6    2    4 am   BACKBONE|DICT|INTERRES
     7    4    5 1    
     8    4   65 1    
     9    5    6 1    
    10    5   25 1    
    11    5   66 1    
    12    6    7 1    
    13    6   67 1    
    14    6   68 1    
    15    7    8 1    
    16    8    9 1    
    17    8   69 1    
    18    8   70 1    
    19    9   10 ar   
    20    9   14 ar   
    21   10   11 ar   
    22   10   71 1    
    23   11   12 ar   
    24   11   61 1    
    25   12   13 ar   
    26   12   72 1    
    27   13   14 ar   
    28   13   15 1    
    29   14   73 1    
    30   15   16 1    
    31   15   74 1    
    32   15   75 1    
    33   16   17 1    
    34   17   18 1    
    35   17   76 1    
    36   17   77 1    
    37   18   19 1    
    38   18   27 1    
    39   18   78 1    
    40   19   20 am   BACKBONE|DICT|INTERRES
    41   19   79 1    
    42   20   21 2    
    43   20   22 1    
    44   22   23 1    
    45   22   24 1    
    46   22   80 1    
    47   23   81 1    
    48   23   82 1    
    49   23   83 1    
    50   24   25 am   BACKBONE|DICT|INTERRES
    51   24   84 1    
    52   25   26 2    
    53   27   28 2    
    54   27   29 am   BACKBONE|DICT|INTERRES
    55   29   30 1    
    56   29   85 1    
    57   30   31 1    
    58   30   32 1    
    59   30   86 1    
    60   31   87 1    
    61   31   88 1    
    62   31   89 1    
    63   32   33 2    
    64   32   34 am   BACKBONE|DICT|INTERRES
    65   34   35 1    
    66   34   90 1    
    67   35   36 1    
    68   35   37 1    
    69   35   91 1    
    70   36   92 1    
    71   36   93 1    
    72   36   94 1    
    73   37   38 2    
    74   37   39 am   BACKBONE|DICT|INTERRES
    75   39   40 1    
    76   39   95 1    
    77   40   41 1    
    78   40   42 1    
    79   40   96 1    
    80   41   97 1    
    81   41   98 1    
    82   41   99 1    
    83   42   43 2    
    84   42   44 am   BACKBONE|DICT|INTERRES
    85   44   45 1    
    86   44  100 1    
    87   45   46 1    
    88   45   47 1    
    89   45  101 1    
    90   46  102 1    
    91   46  103 1    
    92   46  104 1    
    93   47   48 2    
    94   47   49 am   BACKBONE|DICT|INTERRES
    95   49   50 1    
    96   49  105 1    
    97   50   51 1    
    98   50   52 1    
    99   50  106 1    
   100   51  107 1    
   101   51  108 1    
   102   51  109 1    
   103   52   53 2    
   104   52   54 am   BACKBONE|DICT|INTERRES
   105   54   55 1    
   106   54  110 1    
   107   55   56 1    
   108   55   59 1    
   109   55  111 1    
   110   56   57 am   BACKBONE|DICT|INTERRES
   111   56   58 2    
   112   57  112 1    
   113   57  113 1    
   114   59   60 1    
   115   59  114 1    
   116   59  115 1    
   117   60   61 1    
   118   61  116 1    
   119   61  117 1    
@<TRIPOS>SUBSTRUCTURE
     1 UNK         1 GROUP             0       ****    0 ROOT    
