@<TRIPOS>MOLECULE
3R8
117   119    1
SMALL
USER_CHARGES


@<TRIPOS>ATOM
      1 CA         15.6016  -25.3911  -48.9642 C.3       0 UNK        -0.2013 
      2 C          17.0307  -25.8937  -48.8231 C.2       0 UNK         0.4866 
      3 O          17.7127  -26.0941  -49.8288 O.2       0 UNK        -0.5176 
      4 N          17.4902  -26.0945  -47.5854 N.am      1 UNK        -0.4884 
      5 CA         18.8303  -26.5669  -47.2408 C.3       1 UNK         0.0853 
      6 C6         18.9945  -28.1019  -47.4276 C.3       10 UNK        -0.0849 
      7 S7         17.7923  -29.1117  -46.4872 S.3       10 UNK        -0.2776 
      8 C8         18.8549  -29.7413  -45.1544 C.3       10 UNK         0.0316 
      9 C9         18.0548  -30.0434  -43.8992 C.ar      10 UNK        -0.0863 
     10 C10        17.6957  -31.3567  -43.5912 C.ar      10 UNK        -0.1009 
     11 C11        16.9984  -31.6434  -42.4155 C.ar      10 UNK        -0.0712 
     12 C12        16.6462  -30.5971  -41.5554 C.ar      10 UNK        -0.0894 
     13 C13        16.9802  -29.2713  -41.8572 C.ar      10 UNK        -0.0745 
     14 C14        17.6861  -29.0058  -43.0380 C.ar      10 UNK        -0.0972 
     15 C15        16.5035  -28.1601  -40.9170 C.3       10 UNK         0.0209 
     16 S16        17.4305  -26.5853  -41.0065 S.3       10 UNK        -0.2568 
     17 C17        18.9277  -26.9496  -40.0275 C.3       10 UNK        -0.0983 
     18 CA         20.1481  -27.3489  -40.9036 C.3       3 UNK         0.0876 
     19 N          20.4227  -26.3629  -41.9544 N.am      3 UNK        -0.4424 
     20 C          20.8916  -26.6611  -43.1700 C.2       2 UNK         0.4918 
     21 O          21.2687  -27.7844  -43.5047 O.2       2 UNK        -0.4875 
     22 CA         20.9407  -25.5142  -44.1924 C.3       2 UNK         0.0481 
     23 CB         22.3691  -24.9750  -44.3501 C.3       2 UNK        -0.1831 
     24 N          20.4517  -25.9619  -45.4985 N.am      2 UNK        -0.4498 
     25 C          19.1556  -26.0844  -45.8143 C.2       1 UNK         0.5027 
     26 O          18.2340  -25.8144  -45.0376 O.2       1 UNK        -0.4969 
     27 C          21.4210  -27.7065  -40.0955 C.2       3 UNK         0.5005 
     28 O          22.5010  -27.8370  -40.6798 O.2       3 UNK        -0.5279 
     29 N          21.2564  -27.9161  -38.7782 N.am      4 UNK        -0.4463 
     30 CA         22.2405  -28.4194  -37.8121 C.3       4 UNK         0.0283 
     31 CB         21.6824  -28.2491  -36.3899 C.3       4 UNK        -0.1875 
     32 C          23.6255  -27.7630  -37.9194 C.2       4 UNK         0.4949 
     33 O          23.7182  -26.5352  -37.9597 O.2       4 UNK        -0.5039 
     34 N          24.6633  -28.6075  -37.9890 N.am      5 UNK        -0.4663 
     35 CA         26.0941  -28.3067  -38.1562 C.3       5 UNK         0.0242 
     36 CB         26.6234  -27.4299  -37.0036 C.3       5 UNK        -0.1982 
     37 C          26.4890  -27.7172  -39.5253 C.2       5 UNK         0.5017 
     38 O          27.6283  -27.9221  -39.9459 O.2       5 UNK        -0.5012 
     39 N          25.5724  -27.0099  -40.1974 N.am      6 UNK        -0.4439 
     40 CA         25.7832  -26.3969  -41.5074 C.3       6 UNK         0.0297 
     41 CB         24.7425  -25.2925  -41.7314 C.3       6 UNK        -0.2006 
     42 C          25.7631  -27.4293  -42.6458 C.2       6 UNK         0.4892 
     43 O          26.6606  -27.4022  -43.4892 O.2       6 UNK        -0.5089 
     44 N          24.7735  -28.3324  -42.6369 N.am      7 UNK        -0.4243 
     45 CA         24.6900  -29.4701  -43.5567 C.3       7 UNK         0.0196 
     46 CB         24.2107  -29.0405  -44.9581 C.3       7 UNK        -0.2007 
     47 C          23.8065  -30.5669  -42.9572 C.2       7 UNK         0.5020 
     48 O          24.2771  -31.6907  -42.7768 O.2       7 UNK        -0.5147 
     49 N          22.5638  -30.2014  -42.6178 N.am      8 UNK        -0.4734 
     50 CA         21.5422  -31.0275  -41.9672 C.3       8 UNK         0.0238 
     51 CB         22.0059  -31.4538  -40.5548 C.3       8 UNK        -0.1912 
     52 C          21.0595  -32.2036  -42.8371 C.2       8 UNK         0.5038 
     53 O          21.1904  -32.1668  -44.0627 O.2       8 UNK        -0.5046 
     54 N          20.4471  -33.1964  -42.1825 N.am      9 UNK        -0.4200 
     55 CA         19.7480  -34.3299  -42.8051 C.3       9 UNK         0.0839 
     56 C          20.6667  -35.4064  -43.4544 C.2       9 UNK         0.5513 
     57 N          21.9851  -35.3315  -43.3200 N.am      9 UNK        -0.7519 
     58 O          20.1695  -36.3290  -44.0950 O.2       9 UNK        -0.4960 
     59 C59        18.7206  -34.9794  -41.8357 C.3       10 UNK        -0.0876 
     60 S60        17.7230  -33.8057  -40.8459 S.3       10 UNK        -0.2414 
     61 C61        16.6026  -33.0757  -42.0811 C.3       10 UNK         0.0169 
     62 H62        15.1179  -25.2619  -47.9960 H         1 UNK         0.0903 
     63 H63        15.5900  -24.4315  -49.4802 H         1 UNK         0.0903 
     64 H64        15.0113  -26.0986  -49.5458 H         1 UNK         0.0903 
     65 H65        16.9183  -25.8894  -46.7742 H         1 UNK         0.3096 
     66 H66        19.5374  -26.0654  -47.9060 H         1 UNK         0.1121 
     67 H67        18.8688  -28.3483  -48.4829 H         1 UNK         0.0849 
     68 H68        20.0131  -28.4106  -47.1860 H         1 UNK         0.0849 
     69 H69        19.6224  -29.0087  -44.9160 H         1 UNK         0.0865 
     70 H70        19.3840  -30.6295  -45.5034 H         1 UNK         0.0865 
     71 H71        17.9638  -32.1537  -44.2695 H         1 UNK         0.1346 
     72 H72        16.0938  -30.8188  -40.6522 H         1 UNK         0.1412 
     73 H73        17.9458  -27.9904  -43.3047 H         1 UNK         0.1426 
     74 H74        16.5051  -28.5136  -39.8848 H         1 UNK         0.0716 
     75 H75        15.4623  -27.9462  -41.1611 H         1 UNK         0.0716 
     76 H76        18.6780  -27.7387  -39.3163 H         1 UNK         0.0695 
     77 H77        19.1588  -26.0608  -39.4371 H         1 UNK         0.0695 
     78 H78        19.8670  -28.2798  -41.3965 H         1 UNK         0.0983 
     79 H79        20.1517  -25.4125  -41.7509 H         1 UNK         0.3095 
     80 H80        20.3063  -24.6947  -43.8471 H         1 UNK         0.0454 
     81 H81        22.6699  -24.4375  -43.4521 H         1 UNK         0.0851 
     82 H82        22.4428  -24.2692  -45.1775 H         1 UNK         0.0851 
     83 H83        23.0925  -25.7738  -44.5225 H         1 UNK         0.0851 
     84 H84        21.1541  -26.2403  -46.1684 H         1 UNK         0.2976 
     85 H85        20.3349  -27.7530  -38.4008 H         1 UNK         0.3116 
     86 H86        22.3467  -29.4886  -38.0001 H         1 UNK         0.0646 
     87 H87        20.7474  -28.7940  -36.2581 H         1 UNK         0.0847 
     88 H88        21.4980  -27.2002  -36.1534 H         1 UNK         0.0847 
     89 H89        22.3833  -28.6307  -35.6459 H         1 UNK         0.0847 
     90 H90        24.4497  -29.5958  -37.9701 H         1 UNK         0.3040 
     91 H91        26.6029  -29.2701  -38.0895 H         1 UNK         0.1015 
     92 H92        27.7064  -27.3167  -37.0682 H         1 UNK         0.0786 
     93 H93        26.4020  -27.8735  -36.0328 H         1 UNK         0.0786 
     94 H94        26.1946  -26.4275  -37.0211 H         1 UNK         0.0786 
     95 H95        24.6632  -26.8828  -39.7648 H         1 UNK         0.3172 
     96 H96        26.7680  -25.9244  -41.5053 H         1 UNK         0.0595 
     97 H97        23.7272  -25.6890  -41.7252 H         1 UNK         0.0839 
     98 H98        24.9060  -24.8000  -42.6905 H         1 UNK         0.0839 
     99 H99        24.8057  -24.5256  -40.9593 H         1 UNK         0.0839 
    100 H100       24.0641  -28.2831  -41.9083 H         1 UNK         0.2998 
    101 H101       25.6907  -29.8962  -43.6600 H         1 UNK         0.0822 
    102 H102       24.0877  -29.9071  -45.6090 H         1 UNK         0.0787 
    103 H103       24.9296  -28.3769  -45.4383 H         1 UNK         0.0787 
    104 H104       23.2543  -28.5217  -44.9240 H         1 UNK         0.0787 
    105 H105       22.2557  -29.2641  -42.8722 H         1 UNK         0.3055 
    106 H106       20.6722  -30.3814  -41.8533 H         1 UNK         0.1106 
    107 H107       22.4825  -30.6257  -40.0332 H         1 UNK         0.0828 
    108 H108       21.1676  -31.7782  -39.9375 H         1 UNK         0.0828 
    109 H109       22.7276  -32.2708  -40.5935 H         1 UNK         0.0828 
    110 H110       20.3750  -33.1446  -41.1777 H         1 UNK         0.2931 
    111 H111       19.1754  -33.9201  -43.6367 H         1 UNK         0.0412 
    112 H112       22.4036  -34.5620  -42.8214 H         1 UNK         0.3472 
    113 H113       22.5676  -36.0341  -43.7479 H         1 UNK         0.3472 
    114 H114       19.2401  -35.6260  -41.1258 H         1 UNK         0.0970 
    115 H115       18.0422  -35.6338  -42.3865 H         1 UNK         0.0970 
    116 H116       16.5783  -33.6918  -42.9812 H         1 UNK         0.0612 
    117 H117       15.5879  -33.0856  -41.6804 H         1 UNK         0.0612 
@<TRIPOS>BOND
     1    1    2 1    
     2    1   62 1    
     3    1   63 1    
     4    1   64 1    
     5    2    3 2    
     6    2    4 am   BACKBONE|DICT|INTERRES
     7    4    5 1    
     8    4   65 1    
     9    5    6 1    
    10    5   25 1    
    11    5   66 1    
    12    6    7 1    
    13    6   67 1    
    14    6   68 1    
    15    7    8 1    
    16    8    9 1    
    17    8   69 1    
    18    8   70 1    
    19    9   10 ar   
    20    9   14 ar   
    21   10   11 ar   
    22   10   71 1    
    23   11   12 ar   
    24   11   61 1    
    25   12   13 ar   
    26   12   72 1    
    27   13   14 ar   
    28   13   15 1    
    29   14   73 1    
    30   15   16 1    
    31   15   74 1    
    32   15   75 1    
    33   16   17 1    
    34   17   18 1    
    35   17   76 1    
    36   17   77 1    
    37   18   19 1    
    38   18   27 1    
    39   18   78 1    
    40   19   20 am   BACKBONE|DICT|INTERRES
    41   19   79 1    
    42   20   21 2    
    43   20   22 1    
    44   22   23 1    
    45   22   24 1    
    46   22   80 1    
    47   23   81 1    
    48   23   82 1    
    49   23   83 1    
    50   24   25 am   BACKBONE|DICT|INTERRES
    51   24   84 1    
    52   25   26 2    
    53   27   28 2    
    54   27   29 am   BACKBONE|DICT|INTERRES
    55   29   30 1    
    56   29   85 1    
    57   30   31 1    
    58   30   32 1    
    59   30   86 1    
    60   31   87 1    
    61   31   88 1    
    62   31   89 1    
    63   32   33 2    
    64   32   34 am   BACKBONE|DICT|INTERRES
    65   34   35 1    
    66   34   90 1    
    67   35   36 1    
    68   35   37 1    
    69   35   91 1    
    70   36   92 1    
    71   36   93 1    
    72   36   94 1    
    73   37   38 2    
    74   37   39 am   BACKBONE|DICT|INTERRES
    75   39   40 1    
    76   39   95 1    
    77   40   41 1    
    78   40   42 1    
    79   40   96 1    
    80   41   97 1    
    81   41   98 1    
    82   41   99 1    
    83   42   43 2    
    84   42   44 am   BACKBONE|DICT|INTERRES
    85   44   45 1    
    86   44  100 1    
    87   45   46 1    
    88   45   47 1    
    89   45  101 1    
    90   46  102 1    
    91   46  103 1    
    92   46  104 1    
    93   47   48 2    
    94   47   49 am   BACKBONE|DICT|INTERRES
    95   49   50 1    
    96   49  105 1    
    97   50   51 1    
    98   50   52 1    
    99   50  106 1    
   100   51  107 1    
   101   51  108 1    
   102   51  109 1    
   103   52   53 2    
   104   52   54 am   BACKBONE|DICT|INTERRES
   105   54   55 1    
   106   54  110 1    
   107   55   56 1    
   108   55   59 1    
   109   55  111 1    
   110   56   57 am   BACKBONE|DICT|INTERRES
   111   56   58 2    
   112   57  112 1    
   113   57  113 1    
   114   59   60 1    
   115   59  114 1    
   116   59  115 1    
   117   60   61 1    
   118   61  116 1    
   119   61  117 1    
@<TRIPOS>SUBSTRUCTURE
     1 UNK         1 GROUP             0       ****    0 ROOT    
