@<TRIPOS>MOLECULE
3R8
117   119    1
SMALL
USER_CHARGES


@<TRIPOS>ATOM
      1 CA         22.6346  -24.4573  -40.6611 C.3       0 UNK        -0.2013 
      2 C          21.3884  -25.0161  -41.3297 C.2       0 UNK         0.4866 
      3 O          21.4621  -25.4534  -42.4766 O.2       0 UNK        -0.5176 
      4 N          20.2524  -24.9920  -40.6196 N.am      1 UNK        -0.4884 
      5 CA         18.9241  -25.4574  -41.0461 C.3       1 UNK         0.0853 
      6 C6         18.7312  -26.9991  -40.9001 C.3       10 UNK        -0.0849 
      7 S7         19.5860  -28.0311  -42.1399 S.3       10 UNK        -0.2776 
      8 C8         18.5123  -29.4956  -42.1995 C.3       10 UNK         0.0316 
      9 C9         18.9280  -30.3843  -43.3569 C.ar      10 UNK        -0.0863 
     10 C10        19.7436  -31.4970  -43.1445 C.ar      10 UNK        -0.1009 
     11 C11        20.1803  -32.2712  -44.2226 C.ar      10 UNK        -0.0712 
     12 C12        19.8042  -31.9159  -45.5223 C.ar      10 UNK        -0.0894 
     13 C13        18.9878  -30.8017  -45.7499 C.ar      10 UNK        -0.0745 
     14 C14        18.5310  -30.0593  -44.6548 C.ar      10 UNK        -0.0972 
     15 C15        18.6204  -30.4191  -47.1836 C.3       10 UNK         0.0209 
     16 S16        18.3728  -28.6279  -47.4599 S.3       10 UNK        -0.2568 
     17 C17        20.0179  -27.9526  -47.0446 C.3       10 UNK        -0.0983 
     18 CA         19.9712  -26.4243  -46.7770 C.3       3 UNK         0.0876 
     19 N          19.1141  -26.1007  -45.6257 N.am      3 UNK        -0.4424 
     20 C          18.1619  -25.1581  -45.6453 C.2       2 UNK         0.4918 
     21 O          18.0250  -24.3416  -46.5570 O.2       2 UNK        -0.4875 
     22 CA         17.1586  -25.1389  -44.4788 C.3       2 UNK         0.0481 
     23 CB         15.9426  -26.0150  -44.8221 C.3       2 UNK        -0.1831 
     24 N          17.7257  -25.5902  -43.2073 N.am      2 UNK        -0.4498 
     25 C          18.4532  -24.8253  -42.3827 C.2       1 UNK         0.5027 
     26 O          18.7193  -23.6436  -42.6195 O.2       1 UNK        -0.4969 
     27 C          21.3948  -25.8421  -46.6527 C.2       3 UNK         0.5005 
     28 O          22.2076  -26.0911  -47.5451 O.2       3 UNK        -0.5279 
     29 N          21.6868  -25.0959  -45.5736 N.am      4 UNK        -0.4463 
     30 CA         23.0193  -24.6100  -45.1785 C.3       4 UNK         0.0283 
     31 CB         23.5997  -23.6160  -46.2080 C.3       4 UNK        -0.1875 
     32 C          23.9573  -25.7929  -44.8656 C.2       4 UNK         0.4949 
     33 O          25.0529  -25.8957  -45.4205 O.2       4 UNK        -0.5039 
     34 N          23.4627  -26.6829  -44.0011 N.am      5 UNK        -0.4663 
     35 CA         24.0885  -27.9286  -43.5804 C.3       5 UNK         0.0242 
     36 CB         23.2591  -29.1086  -44.1324 C.3       5 UNK        -0.1982 
     37 C          24.2103  -27.8991  -42.0499 C.2       5 UNK         0.5017 
     38 O          24.9867  -27.0982  -41.5269 O.2       5 UNK        -0.5012 
     39 N          23.4489  -28.7516  -41.3595 N.am      6 UNK        -0.4439 
     40 CA         23.3543  -28.8686  -39.9092 C.3       6 UNK         0.0297 
     41 CB         24.6010  -29.5765  -39.3437 C.3       6 UNK        -0.2006 
     42 C          22.0840  -29.6659  -39.5987 C.2       6 UNK         0.4892 
     43 O          21.5606  -30.3357  -40.4933 O.2       6 UNK        -0.5089 
     44 N          21.6271  -29.6083  -38.3402 N.am      7 UNK        -0.4243 
     45 CA         20.4592  -30.3347  -37.8287 C.3       7 UNK         0.0196 
     46 CB         20.2778  -30.0215  -36.3344 C.3       7 UNK        -0.2007 
     47 C          20.5802  -31.8504  -38.0686 C.2       7 UNK         0.5020 
     48 O          21.4481  -32.4943  -37.4750 O.2       7 UNK        -0.5147 
     49 N          19.7598  -32.3615  -38.9989 N.am      8 UNK        -0.4734 
     50 CA         19.7660  -33.7301  -39.5392 C.3       8 UNK         0.0238 
     51 CB         19.2868  -34.7318  -38.4670 C.3       8 UNK        -0.1912 
     52 C          21.1099  -34.1528  -40.1763 C.2       8 UNK         0.5038 
     53 O          21.3795  -35.3512  -40.2731 O.2       8 UNK        -0.5046 
     54 N          21.9276  -33.1719  -40.5896 N.am      9 UNK        -0.4200 
     55 CA         23.3133  -33.3298  -41.0596 C.3       9 UNK         0.0839 
     56 C          24.2844  -33.9079  -39.9831 C.2       9 UNK         0.5513 
     57 N          23.9811  -33.7953  -38.6939 N.am      9 UNK        -0.7519 
     58 O          25.3450  -34.4338  -40.3109 O.2       9 UNK        -0.4960 
     59 C59        23.4066  -34.0332  -42.4464 C.3       10 UNK        -0.0876 
     60 S60        22.8073  -32.9522  -43.7893 S.3       10 UNK        -0.2414 
     61 C61        21.0761  -33.4747  -43.9751 C.3       10 UNK         0.0169 
     62 H62        23.1535  -23.7809  -41.3401 H         1 UNK         0.0903 
     63 H63        22.3977  -23.9066  -39.7510 H         1 UNK         0.0903 
     64 H64        23.3152  -25.2675  -40.4023 H         1 UNK         0.0903 
     65 H65        20.2751  -24.5812  -39.6968 H         1 UNK         0.3096 
     66 H66        18.2484  -25.0118  -40.3138 H         1 UNK         0.1121 
     67 H67        19.0799  -27.3157  -39.9157 H         1 UNK         0.0849 
     68 H68        17.6658  -27.2354  -40.9111 H         1 UNK         0.0849 
     69 H69        18.5808  -30.0325  -41.2524 H         1 UNK         0.0865 
     70 H70        17.4698  -29.1978  -42.3201 H         1 UNK         0.0865 
     71 H71        20.0608  -31.7457  -42.1427 H         1 UNK         0.1346 
     72 H72        20.1587  -32.5026  -46.3588 H         1 UNK         0.1412 
     73 H73        17.8971  -29.1980  -44.8093 H         1 UNK         0.1426 
     74 H74        17.7034  -30.9424  -47.4565 H         1 UNK         0.0716 
     75 H75        19.3922  -30.7649  -47.8732 H         1 UNK         0.0716 
     76 H76        20.4267  -28.4739  -46.1772 H         1 UNK         0.0695 
     77 H77        20.6793  -28.1866  -47.8810 H         1 UNK         0.0695 
     78 H78        19.5577  -25.9626  -47.6765 H         1 UNK         0.0983 
     79 H79        19.1815  -26.7152  -44.8270 H         1 UNK         0.3095 
     80 H80        16.8062  -24.1118  -44.3609 H         1 UNK         0.0454 
     81 H81        15.4734  -25.6838  -45.7496 H         1 UNK         0.0851 
     82 H82        16.2202  -27.0614  -44.9558 H         1 UNK         0.0851 
     83 H83        15.1828  -25.9648  -44.0421 H         1 UNK         0.0851 
     84 H84        17.5749  -26.5556  -42.9520 H         1 UNK         0.2976 
     85 H85        20.9619  -24.9747  -44.8780 H         1 UNK         0.3116 
     86 H86        22.8865  -24.0618  -44.2449 H         1 UNK         0.0646 
     87 H87        24.5240  -23.1726  -45.8361 H         1 UNK         0.0847 
     88 H88        22.9053  -22.7999  -46.4066 H         1 UNK         0.0847 
     89 H89        23.8351  -24.0958  -47.1580 H         1 UNK         0.0847 
     90 H90        22.6026  -26.4299  -43.5139 H         1 UNK         0.3040 
     91 H91        25.1033  -28.0022  -43.9774 H         1 UNK         0.1015 
     92 H92        23.2519  -29.1025  -45.2225 H         1 UNK         0.0786 
     93 H93        22.2191  -29.0779  -43.8023 H         1 UNK         0.0786 
     94 H94        23.6819  -30.0649  -43.8230 H         1 UNK         0.0786 
     95 H95        22.7851  -29.3432  -41.8485 H         1 UNK         0.3172 
     96 H96        23.2573  -27.8713  -39.4757 H         1 UNK         0.0595 
     97 H97        24.7281  -30.5715  -39.7712 H         1 UNK         0.0839 
     98 H98        24.5322  -29.6944  -38.2617 H         1 UNK         0.0839 
     99 H99        25.5093  -29.0089  -39.5457 H         1 UNK         0.0839 
    100 H100       22.1393  -29.0574  -37.6669 H         1 UNK         0.2998 
    101 H101       19.5824  -29.9602  -38.3608 H         1 UNK         0.0822 
    102 H102       20.1173  -28.9563  -36.1677 H         1 UNK         0.0787 
    103 H103       19.4117  -30.5464  -35.9291 H         1 UNK         0.0787 
    104 H104       21.1461  -30.3266  -35.7491 H         1 UNK         0.0787 
    105 H105       19.1124  -31.7278  -39.4465 H         1 UNK         0.3055 
    106 H106       19.0385  -33.7435  -40.3525 H         1 UNK         0.1106 
    107 H107       20.0046  -34.8242  -37.6514 H         1 UNK         0.0828 
    108 H108       18.3306  -34.4298  -38.0399 H         1 UNK         0.0828 
    109 H109       19.1484  -35.7269  -38.8914 H         1 UNK         0.0828 
    110 H110       21.6277  -32.2070  -40.4764 H         1 UNK         0.2931 
    111 H111       23.6756  -32.3106  -41.1986 H         1 UNK         0.0412 
    112 H112       23.1144  -33.3614  -38.3962 H         1 UNK         0.3472 
    113 H113       24.6195  -34.1611  -38.0056 H         1 UNK         0.3472 
    114 H114       22.8763  -34.9862  -42.4522 H         1 UNK         0.0970 
    115 H115       24.4427  -34.2713  -42.6919 H         1 UNK         0.0970 
    116 H116       21.0041  -34.1873  -44.7979 H         1 UNK         0.0612 
    117 H117       20.7359  -34.0017  -43.0841 H         1 UNK         0.0612 
@<TRIPOS>BOND
     1    1    2 1    
     2    1   62 1    
     3    1   63 1    
     4    1   64 1    
     5    2    3 2    
     6    2    4 am   BACKBONE|DICT|INTERRES
     7    4    5 1    
     8    4   65 1    
     9    5    6 1    
    10    5   25 1    
    11    5   66 1    
    12    6    7 1    
    13    6   67 1    
    14    6   68 1    
    15    7    8 1    
    16    8    9 1    
    17    8   69 1    
    18    8   70 1    
    19    9   10 ar   
    20    9   14 ar   
    21   10   11 ar   
    22   10   71 1    
    23   11   12 ar   
    24   11   61 1    
    25   12   13 ar   
    26   12   72 1    
    27   13   14 ar   
    28   13   15 1    
    29   14   73 1    
    30   15   16 1    
    31   15   74 1    
    32   15   75 1    
    33   16   17 1    
    34   17   18 1    
    35   17   76 1    
    36   17   77 1    
    37   18   19 1    
    38   18   27 1    
    39   18   78 1    
    40   19   20 am   BACKBONE|DICT|INTERRES
    41   19   79 1    
    42   20   21 2    
    43   20   22 1    
    44   22   23 1    
    45   22   24 1    
    46   22   80 1    
    47   23   81 1    
    48   23   82 1    
    49   23   83 1    
    50   24   25 am   BACKBONE|DICT|INTERRES
    51   24   84 1    
    52   25   26 2    
    53   27   28 2    
    54   27   29 am   BACKBONE|DICT|INTERRES
    55   29   30 1    
    56   29   85 1    
    57   30   31 1    
    58   30   32 1    
    59   30   86 1    
    60   31   87 1    
    61   31   88 1    
    62   31   89 1    
    63   32   33 2    
    64   32   34 am   BACKBONE|DICT|INTERRES
    65   34   35 1    
    66   34   90 1    
    67   35   36 1    
    68   35   37 1    
    69   35   91 1    
    70   36   92 1    
    71   36   93 1    
    72   36   94 1    
    73   37   38 2    
    74   37   39 am   BACKBONE|DICT|INTERRES
    75   39   40 1    
    76   39   95 1    
    77   40   41 1    
    78   40   42 1    
    79   40   96 1    
    80   41   97 1    
    81   41   98 1    
    82   41   99 1    
    83   42   43 2    
    84   42   44 am   BACKBONE|DICT|INTERRES
    85   44   45 1    
    86   44  100 1    
    87   45   46 1    
    88   45   47 1    
    89   45  101 1    
    90   46  102 1    
    91   46  103 1    
    92   46  104 1    
    93   47   48 2    
    94   47   49 am   BACKBONE|DICT|INTERRES
    95   49   50 1    
    96   49  105 1    
    97   50   51 1    
    98   50   52 1    
    99   50  106 1    
   100   51  107 1    
   101   51  108 1    
   102   51  109 1    
   103   52   53 2    
   104   52   54 am   BACKBONE|DICT|INTERRES
   105   54   55 1    
   106   54  110 1    
   107   55   56 1    
   108   55   59 1    
   109   55  111 1    
   110   56   57 am   BACKBONE|DICT|INTERRES
   111   56   58 2    
   112   57  112 1    
   113   57  113 1    
   114   59   60 1    
   115   59  114 1    
   116   59  115 1    
   117   60   61 1    
   118   61  116 1    
   119   61  117 1    
@<TRIPOS>SUBSTRUCTURE
     1 UNK         1 GROUP             0       ****    0 ROOT    
