@<TRIPOS>MOLECULE
3R8
117   119    1
SMALL
USER_CHARGES


@<TRIPOS>ATOM
      1 CA         15.2219  -24.5243  -48.3611 C.3       0 UNK        -0.2013 
      2 C          16.6758  -24.3841  -47.9352 C.2       0 UNK         0.4866 
      3 O          17.1922  -23.2673  -47.8766 O.2       0 UNK        -0.5176 
      4 N          17.3421  -25.5083  -47.6468 N.am      1 UNK        -0.4884 
      5 CA         18.7184  -25.5629  -47.1437 C.3       1 UNK         0.0853 
      6 C6         19.3716  -26.9403  -47.4358 C.3       10 UNK        -0.0849 
      7 S7         18.4885  -28.3636  -46.7041 S.3       10 UNK        -0.2776 
      8 C8         19.5818  -28.7331  -45.2982 C.3       10 UNK         0.0316 
      9 C9         18.8927  -29.6002  -44.2584 C.ar      10 UNK        -0.0863 
     10 C10        19.3455  -30.8975  -44.0019 C.ar      10 UNK        -0.1009 
     11 C11        18.7521  -31.6694  -42.9992 C.ar      10 UNK        -0.0712 
     12 C12        17.6878  -31.1404  -42.2621 C.ar      10 UNK        -0.0894 
     13 C13        17.2209  -29.8467  -42.5159 C.ar      10 UNK        -0.0745 
     14 C14        17.8243  -29.0839  -43.5193 C.ar      10 UNK        -0.0972 
     15 C15        16.0692  -29.2752  -41.7024 C.3       10 UNK         0.0209 
     16 S16        16.6607  -28.4195  -40.2065 S.3       10 UNK        -0.2568 
     17 C17        17.1996  -26.8050  -40.8674 C.3       10 UNK        -0.0983 
     18 CA         18.7272  -26.7144  -41.1249 C.3       3 UNK         0.0876 
     19 N          19.0140  -25.7166  -42.1660 N.am      3 UNK        -0.4424 
     20 C          20.1743  -25.5957  -42.8216 C.2       2 UNK         0.4918 
     21 O          21.1347  -26.3458  -42.6536 O.2       2 UNK        -0.4875 
     22 CA         20.2873  -24.4189  -43.8070 C.3       2 UNK         0.0481 
     23 CB         21.6857  -23.7776  -43.7496 C.3       2 UNK        -0.1831 
     24 N          19.9992  -24.8228  -45.1843 N.am      2 UNK        -0.4498 
     25 C          18.7910  -25.1726  -45.6483 C.2       1 UNK         0.5027 
     26 O          17.7755  -25.2004  -44.9463 O.2       1 UNK        -0.4969 
     27 C          19.5316  -26.4722  -39.8234 C.2       3 UNK         0.5005 
     28 O          19.6980  -27.3950  -39.0253 O.2       3 UNK        -0.5279 
     29 N          20.0351  -25.2421  -39.6365 N.am      4 UNK        -0.4463 
     30 CA         20.9374  -24.8596  -38.5475 C.3       4 UNK         0.0283 
     31 CB         20.9568  -23.3266  -38.4298 C.3       4 UNK        -0.1875 
     32 C          22.3712  -25.4010  -38.7172 C.2       4 UNK         0.4949 
     33 O          23.1044  -25.4578  -37.7293 O.2       4 UNK        -0.5039 
     34 N          22.7569  -25.7711  -39.9467 N.am      5 UNK        -0.4663 
     35 CA         24.0470  -26.3871  -40.2604 C.3       5 UNK         0.0242 
     36 CB         24.4408  -26.0013  -41.6976 C.3       5 UNK        -0.1982 
     37 C          23.9688  -27.9160  -40.1122 C.2       5 UNK         0.5017 
     38 O          22.8732  -28.4771  -40.0454 O.2       5 UNK        -0.5012 
     39 N          25.1394  -28.5702  -40.0991 N.am      6 UNK        -0.4439 
     40 CA         25.2666  -30.0331  -40.0692 C.3       6 UNK         0.0297 
     41 CB         26.7321  -30.4210  -39.8170 C.3       6 UNK        -0.2006 
     42 C          24.7413  -30.7152  -41.3462 C.2       6 UNK         0.4892 
     43 O          24.2313  -31.8339  -41.2586 O.2       6 UNK        -0.5089 
     44 N          24.8642  -30.0213  -42.4903 N.am      7 UNK        -0.4243 
     45 CA         24.3550  -30.3833  -43.8170 C.3       7 UNK         0.0196 
     46 CB         22.8331  -30.1253  -43.8759 C.3       7 UNK        -0.2007 
     47 C          24.7631  -31.8105  -44.2296 C.2       7 UNK         0.5020 
     48 O          25.9285  -32.0310  -44.5615 O.2       7 UNK        -0.5147 
     49 N          23.8107  -32.7468  -44.1712 N.am      8 UNK        -0.4734 
     50 CA         24.0143  -34.1778  -44.3832 C.3       8 UNK         0.0238 
     51 CB         23.6333  -34.5393  -45.8324 C.3       8 UNK        -0.1912 
     52 C          23.2358  -34.9955  -43.3368 C.2       8 UNK         0.5038 
     53 O          22.7718  -36.0925  -43.6544 O.2       8 UNK        -0.5046 
     54 N          23.0841  -34.4556  -42.1191 N.am      9 UNK        -0.4200 
     55 CA         22.3229  -35.0850  -41.0261 C.3       9 UNK         0.0839 
     56 C          22.8603  -34.7979  -39.5964 C.2       9 UNK         0.5513 
     57 N          23.7734  -33.8587  -39.3896 N.am      9 UNK        -0.7519 
     58 O          22.4611  -35.4725  -38.6503 O.2       9 UNK        -0.4960 
     59 C59        20.7919  -34.8496  -41.1498 C.3       10 UNK        -0.0876 
     60 S60        20.3258  -33.0836  -41.2287 S.3       10 UNK        -0.2414 
     61 C61        19.2648  -33.0707  -42.7055 C.3       10 UNK         0.0169 
     62 H62        14.5751  -23.9861  -47.6686 H         1 UNK         0.0903 
     63 H63        15.0799  -24.1048  -49.3567 H         1 UNK         0.0903 
     64 H64        14.9022  -25.5660  -48.3834 H         1 UNK         0.0903 
     65 H65        16.8625  -26.3976  -47.6722 H         1 UNK         0.3096 
     66 H66        19.2936  -24.8104  -47.6888 H         1 UNK         0.1121 
     67 H67        19.4021  -27.0972  -48.5153 H         1 UNK         0.0849 
     68 H68        20.4168  -26.9489  -47.1210 H         1 UNK         0.0849 
     69 H69        20.4860  -29.2129  -45.6739 H         1 UNK         0.0865 
     70 H70        19.9030  -27.8095  -44.8176 H         1 UNK         0.0865 
     71 H71        20.1695  -31.3035  -44.5713 H         1 UNK         0.1346 
     72 H72        17.2322  -31.7330  -41.4803 H         1 UNK         0.1412 
     73 H73        17.4755  -28.0789  -43.7174 H         1 UNK         0.1426 
     74 H74        15.4656  -28.5997  -42.3104 H         1 UNK         0.0716 
     75 H75        15.4006  -30.0822  -41.3987 H         1 UNK         0.0716 
     76 H76        16.8723  -26.0203  -40.1826 H         1 UNK         0.0695 
     77 H77        16.6494  -26.6254  -41.7924 H         1 UNK         0.0695 
     78 H78        19.0714  -27.6759  -41.5115 H         1 UNK         0.0983 
     79 H79        18.2589  -25.0902  -42.4097 H         1 UNK         0.3095 
     80 H80        19.5636  -23.6543  -43.5163 H         1 UNK         0.0454 
     81 H81        22.4642  -24.4669  -44.0793 H         1 UNK         0.0851 
     82 H82        21.7402  -22.8868  -44.3755 H         1 UNK         0.0851 
     83 H83        21.9345  -23.4719  -42.7324 H         1 UNK         0.0851 
     84 H84        20.7890  -24.8464  -45.8133 H         1 UNK         0.2976 
     85 H85        19.8291  -24.5344  -40.3260 H         1 UNK         0.3116 
     86 H86        20.5418  -25.2676  -37.6149 H         1 UNK         0.0646 
     87 H87        19.9600  -22.9288  -38.2388 H         1 UNK         0.0847 
     88 H88        21.5933  -23.0074  -37.6032 H         1 UNK         0.0847 
     89 H89        21.3410  -22.8553  -39.3354 H         1 UNK         0.0847 
     90 H90        22.0689  -25.7920  -40.6886 H         1 UNK         0.3040 
     91 H91        24.8084  -26.0088  -39.5742 H         1 UNK         0.1015 
     92 H92        24.4275  -24.9200  -41.8366 H         1 UNK         0.0786 
     93 H93        23.7677  -26.4410  -42.4344 H         1 UNK         0.0786 
     94 H94        25.4488  -26.3423  -41.9359 H         1 UNK         0.0786 
     95 H95        25.9975  -28.0387  -40.1458 H         1 UNK         0.3172 
     96 H96        24.6694  -30.4032  -39.2329 H         1 UNK         0.0595 
     97 H97        27.3898  -30.0635  -40.6102 H         1 UNK         0.0839 
     98 H98        26.8435  -31.5053  -39.7669 H         1 UNK         0.0839 
     99 H99        27.0936  -30.0173  -38.8711 H         1 UNK         0.0839 
    100 H100       25.3408  -29.1331  -42.4386 H         1 UNK         0.2998 
    101 H101       24.8315  -29.7110  -44.5322 H         1 UNK         0.0822 
    102 H102       22.4312  -30.3902  -44.8541 H         1 UNK         0.0787 
    103 H103       22.2865  -30.6898  -43.1188 H         1 UNK         0.0787 
    104 H104       22.6095  -29.0703  -43.7125 H         1 UNK         0.0787 
    105 H105       22.8927  -32.4719  -43.8496 H         1 UNK         0.3055 
    106 H106       25.0672  -34.4270  -44.2321 H         1 UNK         0.1106 
    107 H107       24.2127  -33.9591  -46.5506 H         1 UNK         0.0828 
    108 H108       22.5762  -34.3552  -46.0271 H         1 UNK         0.0828 
    109 H109       23.8273  -35.5923  -46.0404 H         1 UNK         0.0828 
    110 H110       23.4968  -33.5510  -41.9130 H         1 UNK         0.2931 
    111 H111       22.4746  -36.1619  -41.1243 H         1 UNK         0.0412 
    112 H112       24.1131  -33.7137  -38.4526 H         1 UNK         0.3472 
    113 H113       24.0455  -33.2127  -40.1256 H         1 UNK         0.3472 
    114 H114       20.2587  -35.3137  -40.3181 H         1 UNK         0.0970 
    115 H115       20.4266  -35.3591  -42.0425 H         1 UNK         0.0970 
    116 H116       19.8267  -33.4587  -43.5568 H         1 UNK         0.0612 
    117 H117       18.4219  -33.7464  -42.5525 H         1 UNK         0.0612 
@<TRIPOS>BOND
     1    1    2 1    
     2    1   62 1    
     3    1   63 1    
     4    1   64 1    
     5    2    3 2    
     6    2    4 am   BACKBONE|DICT|INTERRES
     7    4    5 1    
     8    4   65 1    
     9    5    6 1    
    10    5   25 1    
    11    5   66 1    
    12    6    7 1    
    13    6   67 1    
    14    6   68 1    
    15    7    8 1    
    16    8    9 1    
    17    8   69 1    
    18    8   70 1    
    19    9   10 ar   
    20    9   14 ar   
    21   10   11 ar   
    22   10   71 1    
    23   11   12 ar   
    24   11   61 1    
    25   12   13 ar   
    26   12   72 1    
    27   13   14 ar   
    28   13   15 1    
    29   14   73 1    
    30   15   16 1    
    31   15   74 1    
    32   15   75 1    
    33   16   17 1    
    34   17   18 1    
    35   17   76 1    
    36   17   77 1    
    37   18   19 1    
    38   18   27 1    
    39   18   78 1    
    40   19   20 am   BACKBONE|DICT|INTERRES
    41   19   79 1    
    42   20   21 2    
    43   20   22 1    
    44   22   23 1    
    45   22   24 1    
    46   22   80 1    
    47   23   81 1    
    48   23   82 1    
    49   23   83 1    
    50   24   25 am   BACKBONE|DICT|INTERRES
    51   24   84 1    
    52   25   26 2    
    53   27   28 2    
    54   27   29 am   BACKBONE|DICT|INTERRES
    55   29   30 1    
    56   29   85 1    
    57   30   31 1    
    58   30   32 1    
    59   30   86 1    
    60   31   87 1    
    61   31   88 1    
    62   31   89 1    
    63   32   33 2    
    64   32   34 am   BACKBONE|DICT|INTERRES
    65   34   35 1    
    66   34   90 1    
    67   35   36 1    
    68   35   37 1    
    69   35   91 1    
    70   36   92 1    
    71   36   93 1    
    72   36   94 1    
    73   37   38 2    
    74   37   39 am   BACKBONE|DICT|INTERRES
    75   39   40 1    
    76   39   95 1    
    77   40   41 1    
    78   40   42 1    
    79   40   96 1    
    80   41   97 1    
    81   41   98 1    
    82   41   99 1    
    83   42   43 2    
    84   42   44 am   BACKBONE|DICT|INTERRES
    85   44   45 1    
    86   44  100 1    
    87   45   46 1    
    88   45   47 1    
    89   45  101 1    
    90   46  102 1    
    91   46  103 1    
    92   46  104 1    
    93   47   48 2    
    94   47   49 am   BACKBONE|DICT|INTERRES
    95   49   50 1    
    96   49  105 1    
    97   50   51 1    
    98   50   52 1    
    99   50  106 1    
   100   51  107 1    
   101   51  108 1    
   102   51  109 1    
   103   52   53 2    
   104   52   54 am   BACKBONE|DICT|INTERRES
   105   54   55 1    
   106   54  110 1    
   107   55   56 1    
   108   55   59 1    
   109   55  111 1    
   110   56   57 am   BACKBONE|DICT|INTERRES
   111   56   58 2    
   112   57  112 1    
   113   57  113 1    
   114   59   60 1    
   115   59  114 1    
   116   59  115 1    
   117   60   61 1    
   118   61  116 1    
   119   61  117 1    
@<TRIPOS>SUBSTRUCTURE
     1 UNK         1 GROUP             0       ****    0 ROOT    
