@<TRIPOS>MOLECULE
3R8
117   119    1
SMALL
USER_CHARGES


@<TRIPOS>ATOM
      1 CA         16.6990  -22.7964  -48.5260 C.3       0 UNK        -0.2013 
      2 C          17.7528  -23.8122  -48.1105 C.2       0 UNK         0.4866 
      3 O          18.9297  -23.6393  -48.4299 O.2       0 UNK        -0.5176 
      4 N          17.3394  -24.8749  -47.4095 N.am      1 UNK        -0.4884 
      5 CA         18.2213  -25.9219  -46.8851 C.3       1 UNK         0.0853 
      6 C6         17.4206  -27.1463  -46.3801 C.3       10 UNK        -0.0849 
      7 S7         16.7533  -28.1760  -47.7221 S.3       10 UNK        -0.2776 
      8 C8         15.6153  -29.2612  -46.7954 C.3       10 UNK         0.0316 
      9 C9         16.2529  -29.8813  -45.5546 C.ar      10 UNK        -0.0863 
     10 C10        17.1716  -30.9300  -45.6740 C.ar      10 UNK        -0.1009 
     11 C11        17.7269  -31.5196  -44.5330 C.ar      10 UNK        -0.0712 
     12 C12        17.3459  -31.0594  -43.2694 C.ar      10 UNK        -0.0894 
     13 C13        16.4569  -29.9893  -43.1331 C.ar      10 UNK        -0.0745 
     14 C14        15.9096  -29.4101  -44.2820 C.ar      10 UNK        -0.0972 
     15 C15        16.0356  -29.4911  -41.7530 C.3       10 UNK         0.0209 
     16 S16        17.4163  -29.3173  -40.5697 S.3       10 UNK        -0.2568 
     17 C17        18.2685  -27.8133  -41.1594 C.3       10 UNK        -0.0983 
     18 CA         19.8059  -28.0006  -41.2841 C.3       3 UNK         0.0876 
     19 N          20.3957  -27.0368  -42.2110 N.am      3 UNK        -0.4424 
     20 C          20.4779  -27.2234  -43.5301 C.2       2 UNK         0.4918 
     21 O          20.1012  -28.2503  -44.0978 O.2       2 UNK        -0.4875 
     22 CA         21.0605  -26.0771  -44.3765 C.3       2 UNK         0.0481 
     23 CB         22.5313  -26.3456  -44.7268 C.3       2 UNK        -0.1831 
     24 N          20.2960  -25.9966  -45.6186 N.am      2 UNK        -0.4498 
     25 C          19.0993  -25.4085  -45.7280 C.2       1 UNK         0.5027 
     26 O          18.6492  -24.5938  -44.9174 O.2       1 UNK        -0.4969 
     27 C          20.5452  -27.9254  -39.9368 C.2       3 UNK         0.5005 
     28 O          21.3132  -26.9869  -39.7027 O.2       3 UNK        -0.5279 
     29 N          20.3000  -28.9280  -39.0816 N.am      4 UNK        -0.4463 
     30 CA         20.9764  -29.1974  -37.8109 C.3       4 UNK         0.0283 
     31 CB         20.7065  -28.0773  -36.7790 C.3       4 UNK        -0.1875 
     32 C          22.4630  -29.5084  -38.0601 C.2       4 UNK         0.4949 
     33 O          22.7560  -30.4210  -38.8359 O.2       4 UNK        -0.5039 
     34 N          23.3697  -28.7607  -37.4191 N.am      5 UNK        -0.4663 
     35 CA         24.8173  -28.8948  -37.5923 C.3       5 UNK         0.0242 
     36 CB         25.5360  -28.1025  -36.4887 C.3       5 UNK        -0.1982 
     37 C          25.3095  -28.4514  -38.9807 C.2       5 UNK         0.5017 
     38 O          26.3195  -28.9779  -39.4500 O.2       5 UNK        -0.5012 
     39 N          24.5987  -27.5095  -39.6203 N.am      6 UNK        -0.4439 
     40 CA         24.9157  -27.0116  -40.9587 C.3       6 UNK         0.0297 
     41 CB         24.1114  -25.7354  -41.2504 C.3       6 UNK        -0.2006 
     42 C          24.6532  -28.1079  -42.0019 C.2       6 UNK         0.4892 
     43 O          23.5303  -28.6094  -42.0934 O.2       6 UNK        -0.5089 
     44 N          25.7213  -28.5004  -42.7115 N.am      7 UNK        -0.4243 
     45 CA         25.8037  -29.6204  -43.6627 C.3       7 UNK         0.0196 
     46 CB         24.8944  -29.3653  -44.8840 C.3       7 UNK        -0.2007 
     47 C          25.5416  -31.0096  -43.0382 C.2       7 UNK         0.5020 
     48 O          25.4198  -31.9840  -43.7810 O.2       7 UNK        -0.5147 
     49 N          25.4464  -31.0798  -41.6997 N.am      8 UNK        -0.4734 
     50 CA         25.0504  -32.2345  -40.8829 C.3       8 UNK         0.0238 
     51 CB         26.1615  -33.3056  -40.8904 C.3       8 UNK        -0.1912 
     52 C          23.6636  -32.8105  -41.2480 C.2       8 UNK         0.5038 
     53 O          23.4367  -34.0069  -41.0552 O.2       8 UNK        -0.5046 
     54 N          22.7684  -31.9646  -41.7805 N.am      9 UNK        -0.4200 
     55 CA         21.4215  -32.3563  -42.2274 C.3       9 UNK         0.0839 
     56 C          20.4173  -32.6232  -41.0679 C.2       9 UNK         0.5513 
     57 N          20.6711  -32.1733  -39.8452 N.am      9 UNK        -0.7519 
     58 O          19.3941  -33.2671  -41.2763 O.2       9 UNK        -0.4960 
     59 C59        20.8507  -31.3622  -43.2834 C.3       10 UNK        -0.0876 
     60 S60        20.4359  -32.1420  -44.8830 S.3       10 UNK        -0.2414 
     61 C61        18.7066  -32.6800  -44.6578 C.3       10 UNK         0.0169 
     62 H62        15.7023  -23.0811  -48.1895 H         1 UNK         0.0903 
     63 H63        16.9331  -21.8195  -48.1038 H         1 UNK         0.0903 
     64 H64        16.6760  -22.7021  -49.6114 H         1 UNK         0.0903 
     65 H65        16.3631  -24.9627  -47.1663 H         1 UNK         0.3096 
     66 H66        18.8819  -26.2400  -47.6955 H         1 UNK         0.1121 
     67 H67        16.6088  -26.8310  -45.7215 H         1 UNK         0.0849 
     68 H68        18.0536  -27.8058  -45.7818 H         1 UNK         0.0849 
     69 H69        14.7283  -28.6875  -46.5218 H         1 UNK         0.0865 
     70 H70        15.2661  -30.0547  -47.4577 H         1 UNK         0.0865 
     71 H71        17.4503  -31.2900  -46.6550 H         1 UNK         0.1346 
     72 H72        17.7487  -31.5327  -42.3852 H         1 UNK         0.1412 
     73 H73        15.2026  -28.5972  -44.1853 H         1 UNK         0.1426 
     74 H74        15.3170  -30.2003  -41.3405 H         1 UNK         0.0716 
     75 H75        15.5150  -28.5349  -41.8259 H         1 UNK         0.0716 
     76 H76        18.0236  -26.9780  -40.5008 H         1 UNK         0.0695 
     77 H77        17.8497  -27.5550  -42.1336 H         1 UNK         0.0695 
     78 H78        20.0098  -28.9982  -41.6715 H         1 UNK         0.0983 
     79 H79        20.7927  -26.2168  -41.7720 H         1 UNK         0.3095 
     80 H80        20.9877  -25.1356  -43.8279 H         1 UNK         0.0454 
     81 H81        22.6512  -27.2810  -45.2744 H         1 UNK         0.0851 
     82 H82        23.1384  -26.4198  -43.8283 H         1 UNK         0.0851 
     83 H83        22.9489  -25.5435  -45.3353 H         1 UNK         0.0851 
     84 H84        20.5476  -26.6828  -46.3159 H         1 UNK         0.2976 
     85 H85        19.6398  -29.6363  -39.3757 H         1 UNK         0.3116 
     86 H86        20.5374  -30.1157  -37.4183 H         1 UNK         0.0646 
     87 H87        21.1320  -27.1190  -37.0781 H         1 UNK         0.0847 
     88 H88        21.1176  -28.3342  -35.8019 H         1 UNK         0.0847 
     89 H89        19.6356  -27.9282  -36.6405 H         1 UNK         0.0847 
     90 H90        23.0458  -28.0296  -36.8023 H         1 UNK         0.3040 
     91 H91        25.0754  -29.9504  -37.4796 H         1 UNK         0.1015 
     92 H92        25.3048  -27.0376  -36.5384 H         1 UNK         0.0786 
     93 H93        26.6187  -28.2051  -36.5774 H         1 UNK         0.0786 
     94 H94        25.2592  -28.4615  -35.4972 H         1 UNK         0.0786 
     95 H95        23.7246  -27.2008  -39.2151 H         1 UNK         0.3172 
     96 H96        25.9748  -26.7444  -40.9722 H         1 UNK         0.0595 
     97 H97        24.4391  -25.2763  -42.1835 H         1 UNK         0.0839 
     98 H98        24.2440  -24.9922  -40.4641 H         1 UNK         0.0839 
     99 H99        23.0454  -25.9384  -41.3421 H         1 UNK         0.0839 
    100 H100       26.6007  -28.0371  -42.5247 H         1 UNK         0.2998 
    101 H101       26.8356  -29.6413  -44.0164 H         1 UNK         0.0822 
    102 H102       25.0720  -30.1046  -45.6660 H         1 UNK         0.0787 
    103 H103       23.8376  -29.4233  -44.6213 H         1 UNK         0.0787 
    104 H104       25.0804  -28.3841  -45.3205 H         1 UNK         0.0787 
    105 H105       25.5933  -30.2220  -41.1807 H         1 UNK         0.3055 
    106 H106       24.9543  -31.8641  -39.8608 H         1 UNK         0.1106 
    107 H107       25.9430  -34.1037  -40.1798 H         1 UNK         0.0828 
    108 H108       26.2717  -33.7661  -41.8727 H         1 UNK         0.0828 
    109 H109       27.1246  -32.8799  -40.6088 H         1 UNK         0.0828 
    110 H110       23.0189  -30.9888  -41.8731 H         1 UNK         0.2931 
    111 H111       21.5434  -33.3244  -42.7175 H         1 UNK         0.0412 
    112 H112       20.0243  -32.3927  -39.1053 H         1 UNK         0.3472 
    113 H113       21.5173  -31.6495  -39.6416 H         1 UNK         0.3472 
    114 H114       19.9790  -30.8251  -42.9173 H         1 UNK         0.0970 
    115 H115       21.5762  -30.5769  -43.5040 H         1 UNK         0.0970 
    116 H116       18.4260  -33.2970  -45.5127 H         1 UNK         0.0612 
    117 H117       18.6392  -33.3329  -43.7876 H         1 UNK         0.0612 
@<TRIPOS>BOND
     1    1    2 1    
     2    1   62 1    
     3    1   63 1    
     4    1   64 1    
     5    2    3 2    
     6    2    4 am   BACKBONE|DICT|INTERRES
     7    4    5 1    
     8    4   65 1    
     9    5    6 1    
    10    5   25 1    
    11    5   66 1    
    12    6    7 1    
    13    6   67 1    
    14    6   68 1    
    15    7    8 1    
    16    8    9 1    
    17    8   69 1    
    18    8   70 1    
    19    9   10 ar   
    20    9   14 ar   
    21   10   11 ar   
    22   10   71 1    
    23   11   12 ar   
    24   11   61 1    
    25   12   13 ar   
    26   12   72 1    
    27   13   14 ar   
    28   13   15 1    
    29   14   73 1    
    30   15   16 1    
    31   15   74 1    
    32   15   75 1    
    33   16   17 1    
    34   17   18 1    
    35   17   76 1    
    36   17   77 1    
    37   18   19 1    
    38   18   27 1    
    39   18   78 1    
    40   19   20 am   BACKBONE|DICT|INTERRES
    41   19   79 1    
    42   20   21 2    
    43   20   22 1    
    44   22   23 1    
    45   22   24 1    
    46   22   80 1    
    47   23   81 1    
    48   23   82 1    
    49   23   83 1    
    50   24   25 am   BACKBONE|DICT|INTERRES
    51   24   84 1    
    52   25   26 2    
    53   27   28 2    
    54   27   29 am   BACKBONE|DICT|INTERRES
    55   29   30 1    
    56   29   85 1    
    57   30   31 1    
    58   30   32 1    
    59   30   86 1    
    60   31   87 1    
    61   31   88 1    
    62   31   89 1    
    63   32   33 2    
    64   32   34 am   BACKBONE|DICT|INTERRES
    65   34   35 1    
    66   34   90 1    
    67   35   36 1    
    68   35   37 1    
    69   35   91 1    
    70   36   92 1    
    71   36   93 1    
    72   36   94 1    
    73   37   38 2    
    74   37   39 am   BACKBONE|DICT|INTERRES
    75   39   40 1    
    76   39   95 1    
    77   40   41 1    
    78   40   42 1    
    79   40   96 1    
    80   41   97 1    
    81   41   98 1    
    82   41   99 1    
    83   42   43 2    
    84   42   44 am   BACKBONE|DICT|INTERRES
    85   44   45 1    
    86   44  100 1    
    87   45   46 1    
    88   45   47 1    
    89   45  101 1    
    90   46  102 1    
    91   46  103 1    
    92   46  104 1    
    93   47   48 2    
    94   47   49 am   BACKBONE|DICT|INTERRES
    95   49   50 1    
    96   49  105 1    
    97   50   51 1    
    98   50   52 1    
    99   50  106 1    
   100   51  107 1    
   101   51  108 1    
   102   51  109 1    
   103   52   53 2    
   104   52   54 am   BACKBONE|DICT|INTERRES
   105   54   55 1    
   106   54  110 1    
   107   55   56 1    
   108   55   59 1    
   109   55  111 1    
   110   56   57 am   BACKBONE|DICT|INTERRES
   111   56   58 2    
   112   57  112 1    
   113   57  113 1    
   114   59   60 1    
   115   59  114 1    
   116   59  115 1    
   117   60   61 1    
   118   61  116 1    
   119   61  117 1    
@<TRIPOS>SUBSTRUCTURE
     1 UNK         1 GROUP             0       ****    0 ROOT    
