@<TRIPOS>MOLECULE
3R8
117   119    1
SMALL
USER_CHARGES


@<TRIPOS>ATOM
      1 CA         19.6574  -25.0529  -49.8336 C.3       0 UNK        -0.2013 
      2 C          20.3768  -25.5116  -48.5741 C.2       0 UNK         0.4866 
      3 O          21.4344  -24.9755  -48.2420 O.2       0 UNK        -0.5176 
      4 N          19.8171  -26.5053  -47.8742 N.am      1 UNK        -0.4884 
      5 CA         20.3196  -27.0265  -46.6008 C.3       1 UNK         0.0853 
      6 C6         19.7199  -28.4177  -46.2553 C.3       10 UNK        -0.0849 
      7 S7         17.9042  -28.5206  -46.4535 S.3       10 UNK        -0.2776 
      8 C8         17.5714  -30.2206  -45.8981 C.3       10 UNK         0.0316 
      9 C9         17.7094  -30.3763  -44.3898 C.ar      10 UNK        -0.0863 
     10 C10        18.6822  -31.2242  -43.8545 C.ar      10 UNK        -0.1009 
     11 C11        18.7782  -31.4161  -42.4732 C.ar      10 UNK        -0.0712 
     12 C12        17.8959  -30.7424  -41.6228 C.ar      10 UNK        -0.0894 
     13 C13        16.9269  -29.8784  -42.1450 C.ar      10 UNK        -0.0745 
     14 C14        16.8372  -29.7034  -43.5292 C.ar      10 UNK        -0.0972 
     15 C15        15.9467  -29.1652  -41.2229 C.3       10 UNK         0.0209 
     16 S16        16.7681  -28.0772  -40.0154 S.3       10 UNK        -0.2568 
     17 C17        17.5199  -26.7883  -41.0714 C.3       10 UNK        -0.0983 
     18 CA         19.0715  -26.7977  -41.0641 C.3       3 UNK         0.0876 
     19 N          19.6022  -25.9199  -42.1204 N.am      3 UNK        -0.4424 
     20 C          20.8909  -25.6410  -42.3672 C.2       2 UNK         0.4918 
     21 O          21.8320  -26.0476  -41.6866 O.2       2 UNK        -0.4875 
     22 CA         21.1735  -24.7710  -43.6004 C.3       2 UNK         0.0481 
     23 CB         22.5147  -24.0224  -43.4897 C.3       2 UNK        -0.1831 
     24 N          21.1926  -25.6207  -44.7878 N.am      2 UNK        -0.4498 
     25 C          20.1040  -26.0013  -45.4674 C.2       1 UNK         0.5027 
     26 O          18.9702  -25.5809  -45.2224 O.2       1 UNK        -0.4969 
     27 C          19.6429  -26.4984  -39.6565 C.2       3 UNK         0.5005 
     28 O          19.9136  -27.4334  -38.9016 O.2       3 UNK        -0.5279 
     29 N          19.8945  -25.2147  -39.3545 N.am      4 UNK        -0.4463 
     30 CA         20.5311  -24.7380  -38.1191 C.3       4 UNK         0.0283 
     31 CB         20.5709  -23.2015  -38.1360 C.3       4 UNK        -0.1875 
     32 C          21.9432  -25.3046  -37.8576 C.2       4 UNK         0.4949 
     33 O          22.3567  -25.3635  -36.6996 O.2       4 UNK        -0.5039 
     34 N          22.6438  -25.7230  -38.9194 N.am      5 UNK        -0.4663 
     35 CA         23.9380  -26.4071  -38.8750 C.3       5 UNK         0.0242 
     36 CB         24.9793  -25.5232  -39.5860 C.3       5 UNK        -0.1982 
     37 C          23.8491  -27.8031  -39.5232 C.2       5 UNK         0.5017 
     38 O          24.8851  -28.3691  -39.8777 O.2       5 UNK        -0.5012 
     39 N          22.6229  -28.3219  -39.6990 N.am      6 UNK        -0.4439 
     40 CA         22.2210  -29.5173  -40.4490 C.3       6 UNK         0.0297 
     41 CB         22.8143  -30.8047  -39.8431 C.3       6 UNK        -0.2006 
     42 C          22.4952  -29.4101  -41.9603 C.2       6 UNK         0.4892 
     43 O          21.5520  -29.4712  -42.7464 O.2       6 UNK        -0.5089 
     44 N          23.7769  -29.2718  -42.3324 N.am      7 UNK        -0.4243 
     45 CA         24.3296  -29.1974  -43.6952 C.3       7 UNK         0.0196 
     46 CB         23.7820  -27.9614  -44.4372 C.3       7 UNK        -0.2007 
     47 C          24.1643  -30.4869  -44.5298 C.2       7 UNK         0.5020 
     48 O          24.4644  -30.4765  -45.7240 O.2       7 UNK        -0.5147 
     49 N          23.7185  -31.5710  -43.8892 N.am      8 UNK        -0.4734 
     50 CA         23.4477  -32.9061  -44.4154 C.3       8 UNK         0.0238 
     51 CB         22.3422  -32.8705  -45.4974 C.3       8 UNK        -0.1912 
     52 C          23.0758  -33.7777  -43.2019 C.2       8 UNK         0.5038 
     53 O          23.5222  -33.4761  -42.0915 O.2       8 UNK        -0.5046 
     54 N          22.2468  -34.8088  -43.4122 N.am      9 UNK        -0.4200 
     55 CA         21.6927  -35.6976  -42.3722 C.3       9 UNK         0.0839 
     56 C          22.7394  -36.6271  -41.6830 C.2       9 UNK         0.5513 
     57 N          23.9174  -36.8359  -42.2590 N.am      9 UNK        -0.7519 
     58 O          22.4722  -37.1971  -40.6279 O.2       9 UNK        -0.4960 
     59 C59        20.7852  -34.9507  -41.3469 C.3       10 UNK        -0.0876 
     60 S60        19.3732  -34.0932  -42.1273 S.3       10 UNK        -0.2414 
     61 C61        19.8383  -32.3481  -41.9066 C.3       10 UNK         0.0169 
     62 H62        18.7433  -25.6195  -50.0104 H         1 UNK         0.0903 
     63 H63        19.3925  -23.9991  -49.7514 H         1 UNK         0.0903 
     64 H64        20.3051  -25.1750  -50.7014 H         1 UNK         0.0903 
     65 H65        18.9287  -26.8904  -48.1653 H         1 UNK         0.3096 
     66 H66        21.3966  -27.1684  -46.7184 H         1 UNK         0.1121 
     67 H67        19.9902  -28.7152  -45.2390 H         1 UNK         0.0849 
     68 H68        20.1654  -29.1701  -46.9079 H         1 UNK         0.0849 
     69 H69        16.5547  -30.4908  -46.1870 H         1 UNK         0.0865 
     70 H70        18.2307  -30.9097  -46.4284 H         1 UNK         0.0865 
     71 H71        19.3563  -31.7515  -44.5126 H         1 UNK         0.1346 
     72 H72        17.9613  -30.8874  -40.5531 H         1 UNK         0.1412 
     73 H73        16.0819  -29.0495  -43.9439 H         1 UNK         0.1426 
     74 H74        15.2251  -28.5784  -41.7936 H         1 UNK         0.0716 
     75 H75        15.3688  -29.9146  -40.6803 H         1 UNK         0.0716 
     76 H76        17.1417  -25.8169  -40.7475 H         1 UNK         0.0695 
     77 H77        17.1555  -26.9223  -42.0913 H         1 UNK         0.0695 
     78 H78        19.3997  -27.8065  -41.3265 H         1 UNK         0.0983 
     79 H79        18.9208  -25.5643  -42.7778 H         1 UNK         0.3095 
     80 H80        20.3825  -24.0231  -43.6884 H         1 UNK         0.0454 
     81 H81        22.6800  -23.3778  -44.3530 H         1 UNK         0.0851 
     82 H82        23.3625  -24.7039  -43.4148 H         1 UNK         0.0851 
     83 H83        22.5322  -23.3867  -42.6035 H         1 UNK         0.0851 
     84 H84        22.0912  -25.9999  -45.0472 H         1 UNK         0.2976 
     85 H85        19.6561  -24.5126  -40.0401 H         1 UNK         0.3116 
     86 H86        19.8991  -25.0546  -37.2868 H         1 UNK         0.0646 
     87 H87        19.5700  -22.7770  -38.2164 H         1 UNK         0.0847 
     88 H88        21.0110  -22.8124  -37.2166 H         1 UNK         0.0847 
     89 H89        21.1670  -22.8221  -38.9669 H         1 UNK         0.0847 
     90 H90        22.2252  -25.6575  -39.8447 H         1 UNK         0.3040 
     91 H91        24.2587  -26.5615  -37.8426 H         1 UNK         0.1015 
     92 H92        24.7350  -25.3877  -40.6408 H         1 UNK         0.0786 
     93 H93        25.9753  -25.9648  -39.5335 H         1 UNK         0.0786 
     94 H94        25.0405  -24.5366  -39.1266 H         1 UNK         0.0786 
     95 H95        21.8402  -27.7787  -39.3471 H         1 UNK         0.3172 
     96 H96        21.1375  -29.5805  -40.3346 H         1 UNK         0.0595 
     97 H97        23.9016  -30.8370  -39.9137 H         1 UNK         0.0839 
     98 H98        22.4336  -31.6874  -40.3568 H         1 UNK         0.0839 
     99 H99        22.5460  -30.9045  -38.7915 H         1 UNK         0.0839 
    100 H100       24.4507  -29.1742  -41.5767 H         1 UNK         0.2998 
    101 H101       25.4044  -29.0578  -43.5710 H         1 UNK         0.0822 
    102 H102       22.7257  -28.0806  -44.6763 H         1 UNK         0.0787 
    103 H103       23.8958  -27.0602  -43.8353 H         1 UNK         0.0787 
    104 H104       24.3136  -27.7982  -45.3754 H         1 UNK         0.0787 
    105 H105       23.5639  -31.5023  -42.8906 H         1 UNK         0.3055 
    106 H106       24.3689  -33.3032  -44.8459 H         1 UNK         0.1106 
    107 H107       22.5996  -32.2061  -46.3215 H         1 UNK         0.0828 
    108 H108       22.1809  -33.8539  -45.9397 H         1 UNK         0.0828 
    109 H109       21.3934  -32.5300  -45.0856 H         1 UNK         0.0828 
    110 H110       21.9300  -34.9920  -44.3526 H         1 UNK         0.2931 
    111 H111       21.0460  -36.3887  -42.9142 H         1 UNK         0.0412 
    112 H112       24.5843  -37.4464  -41.8131 H         1 UNK         0.3472 
    113 H113       24.1475  -36.3871  -43.1310 H         1 UNK         0.3472 
    114 H114       20.3612  -35.6588  -40.6328 H         1 UNK         0.0970 
    115 H115       21.3694  -34.2486  -40.7503 H         1 UNK         0.0970 
    116 H116       19.9942  -32.1468  -40.8458 H         1 UNK         0.0612 
    117 H117       20.7891  -32.1570  -42.4039 H         1 UNK         0.0612 
@<TRIPOS>BOND
     1    1    2 1    
     2    1   62 1    
     3    1   63 1    
     4    1   64 1    
     5    2    3 2    
     6    2    4 am   BACKBONE|DICT|INTERRES
     7    4    5 1    
     8    4   65 1    
     9    5    6 1    
    10    5   25 1    
    11    5   66 1    
    12    6    7 1    
    13    6   67 1    
    14    6   68 1    
    15    7    8 1    
    16    8    9 1    
    17    8   69 1    
    18    8   70 1    
    19    9   10 ar   
    20    9   14 ar   
    21   10   11 ar   
    22   10   71 1    
    23   11   12 ar   
    24   11   61 1    
    25   12   13 ar   
    26   12   72 1    
    27   13   14 ar   
    28   13   15 1    
    29   14   73 1    
    30   15   16 1    
    31   15   74 1    
    32   15   75 1    
    33   16   17 1    
    34   17   18 1    
    35   17   76 1    
    36   17   77 1    
    37   18   19 1    
    38   18   27 1    
    39   18   78 1    
    40   19   20 am   BACKBONE|DICT|INTERRES
    41   19   79 1    
    42   20   21 2    
    43   20   22 1    
    44   22   23 1    
    45   22   24 1    
    46   22   80 1    
    47   23   81 1    
    48   23   82 1    
    49   23   83 1    
    50   24   25 am   BACKBONE|DICT|INTERRES
    51   24   84 1    
    52   25   26 2    
    53   27   28 2    
    54   27   29 am   BACKBONE|DICT|INTERRES
    55   29   30 1    
    56   29   85 1    
    57   30   31 1    
    58   30   32 1    
    59   30   86 1    
    60   31   87 1    
    61   31   88 1    
    62   31   89 1    
    63   32   33 2    
    64   32   34 am   BACKBONE|DICT|INTERRES
    65   34   35 1    
    66   34   90 1    
    67   35   36 1    
    68   35   37 1    
    69   35   91 1    
    70   36   92 1    
    71   36   93 1    
    72   36   94 1    
    73   37   38 2    
    74   37   39 am   BACKBONE|DICT|INTERRES
    75   39   40 1    
    76   39   95 1    
    77   40   41 1    
    78   40   42 1    
    79   40   96 1    
    80   41   97 1    
    81   41   98 1    
    82   41   99 1    
    83   42   43 2    
    84   42   44 am   BACKBONE|DICT|INTERRES
    85   44   45 1    
    86   44  100 1    
    87   45   46 1    
    88   45   47 1    
    89   45  101 1    
    90   46  102 1    
    91   46  103 1    
    92   46  104 1    
    93   47   48 2    
    94   47   49 am   BACKBONE|DICT|INTERRES
    95   49   50 1    
    96   49  105 1    
    97   50   51 1    
    98   50   52 1    
    99   50  106 1    
   100   51  107 1    
   101   51  108 1    
   102   51  109 1    
   103   52   53 2    
   104   52   54 am   BACKBONE|DICT|INTERRES
   105   54   55 1    
   106   54  110 1    
   107   55   56 1    
   108   55   59 1    
   109   55  111 1    
   110   56   57 am   BACKBONE|DICT|INTERRES
   111   56   58 2    
   112   57  112 1    
   113   57  113 1    
   114   59   60 1    
   115   59  114 1    
   116   59  115 1    
   117   60   61 1    
   118   61  116 1    
   119   61  117 1    
@<TRIPOS>SUBSTRUCTURE
     1 UNK         1 GROUP             0       ****    0 ROOT    
