@<TRIPOS>MOLECULE
3R8
117   119    1
SMALL
USER_CHARGES


@<TRIPOS>ATOM
      1 CA         14.2630  -22.5720  -46.8168 C.3       0 UNK        -0.2013 
      2 C          14.8114  -23.6013  -45.8397 C.2       0 UNK         0.4866 
      3 O          14.9643  -23.2953  -44.6574 O.2       0 UNK        -0.5176 
      4 N          15.1011  -24.8156  -46.3294 N.am      1 UNK        -0.4884 
      5 CA         15.6662  -25.9485  -45.5815 C.3       1 UNK         0.0853 
      6 C6         14.7057  -26.4904  -44.4785 C.3       10 UNK        -0.0849 
      7 S7         14.6228  -28.3145  -44.4709 S.3       10 UNK        -0.2776 
      8 C8         14.8950  -28.7377  -42.7177 C.3       10 UNK         0.0316 
      9 C9         16.3616  -28.9979  -42.3972 C.ar      10 UNK        -0.0863 
     10 C10        17.0210  -30.0874  -42.9770 C.ar      10 UNK        -0.1009 
     11 C11        18.3578  -30.3551  -42.6694 C.ar      10 UNK        -0.0712 
     12 C12        19.0277  -29.5428  -41.7512 C.ar      10 UNK        -0.0894 
     13 C13        18.3851  -28.4473  -41.1707 C.ar      10 UNK        -0.0745 
     14 C14        17.0518  -28.1772  -41.4987 C.ar      10 UNK        -0.0972 
     15 C15        19.1341  -27.5554  -40.1928 C.3       10 UNK         0.0209 
     16 S16        19.9088  -26.1397  -41.0355 S.3       10 UNK        -0.2568 
     17 C17        21.3747  -26.9004  -41.8151 C.3       10 UNK        -0.0983 
     18 CA         21.1969  -27.2378  -43.3162 C.3       3 UNK         0.0876 
     19 N          20.6753  -26.1037  -44.0810 N.am      3 UNK        -0.4424 
     20 C          20.1297  -26.2041  -45.2975 C.2       2 UNK         0.4918 
     21 O          20.1505  -27.2239  -45.9895 O.2       2 UNK        -0.4875 
     22 CA         19.3875  -24.9584  -45.8093 C.3       2 UNK         0.0481 
     23 CB         20.0209  -24.4334  -47.1079 C.3       2 UNK        -0.1831 
     24 N          17.9695  -25.2503  -46.0367 N.am      2 UNK        -0.4498 
     25 C          17.0971  -25.6319  -45.0888 C.2       1 UNK         0.5027 
     26 O          17.3785  -25.6918  -43.8913 O.2       1 UNK        -0.4969 
     27 C          22.5086  -27.8060  -43.8897 C.2       3 UNK         0.5005 
     28 O          22.7190  -29.0191  -43.8385 O.2       3 UNK        -0.5279 
     29 N          23.3789  -26.9173  -44.3935 N.am      4 UNK        -0.4463 
     30 CA         24.7069  -27.1502  -44.9861 C.3       4 UNK         0.0283 
     31 CB         24.6115  -28.0230  -46.2520 C.3       4 UNK        -0.1875 
     32 C          25.7800  -27.6926  -44.0189 C.2       4 UNK         0.4949 
     33 O          26.9166  -27.2225  -44.0690 O.2       4 UNK        -0.5039 
     34 N          25.4134  -28.6452  -43.1555 N.am      5 UNK        -0.4663 
     35 CA         26.2756  -29.2769  -42.1527 C.3       5 UNK         0.0242 
     36 CB         26.7635  -30.6416  -42.6752 C.3       5 UNK        -0.1982 
     37 C          25.5521  -29.3896  -40.8003 C.2       5 UNK         0.5017 
     38 O          25.7921  -30.3408  -40.0549 O.2       5 UNK        -0.5012 
     39 N          24.6716  -28.4199  -40.5085 N.am      6 UNK        -0.4439 
     40 CA         23.8224  -28.3377  -39.3138 C.3       6 UNK         0.0297 
     41 CB         24.6792  -28.0444  -38.0600 C.3       6 UNK        -0.2006 
     42 C          22.9047  -29.5725  -39.1807 C.2       6 UNK         0.4892 
     43 O          22.3661  -30.0347  -40.1882 O.2       6 UNK        -0.5089 
     44 N          22.7489  -30.0949  -37.9570 N.am      7 UNK        -0.4243 
     45 CA         21.9052  -31.2482  -37.6242 C.3       7 UNK         0.0196 
     46 CB         21.8661  -31.4103  -36.0955 C.3       7 UNK        -0.2007 
     47 C          22.3176  -32.5733  -38.2959 C.2       7 UNK         0.5020 
     48 O          21.5033  -33.4958  -38.3364 O.2       7 UNK        -0.5147 
     49 N          23.5530  -32.6587  -38.8115 N.am      8 UNK        -0.4734 
     50 CA         24.0387  -33.8054  -39.5841 C.3       8 UNK         0.0238 
     51 CB         25.5760  -33.7944  -39.6083 C.3       8 UNK        -0.1912 
     52 C          23.4761  -33.8533  -41.0176 C.2       8 UNK         0.5038 
     53 O          23.4955  -34.9311  -41.6123 O.2       8 UNK        -0.5046 
     54 N          22.9865  -32.7110  -41.5257 N.am      9 UNK        -0.4200 
     55 CA         22.4389  -32.4802  -42.8711 C.3       9 UNK         0.0839 
     56 C          23.5032  -32.6157  -43.9925 C.2       9 UNK         0.5513 
     57 N          23.8149  -31.5236  -44.6746 N.am      9 UNK        -0.7519 
     58 O          24.0068  -33.6957  -44.2887 O.2       9 UNK        -0.4960 
     59 C59        21.1667  -33.3187  -43.1789 C.3       10 UNK        -0.0876 
     60 S60        19.7385  -32.7287  -42.2127 S.3       10 UNK        -0.2414 
     61 C61        19.1033  -31.4770  -43.3732 C.3       10 UNK         0.0169 
     62 H62        13.2777  -22.2364  -46.4941 H         1 UNK         0.0903 
     63 H63        14.9218  -21.7049  -46.8568 H         1 UNK         0.0903 
     64 H64        14.1700  -22.9735  -47.8258 H         1 UNK         0.0903 
     65 H65        14.9433  -24.9902  -47.3131 H         1 UNK         0.3096 
     66 H66        15.7907  -26.7333  -46.3300 H         1 UNK         0.1121 
     67 H67        14.9474  -26.1036  -43.4871 H         1 UNK         0.0849 
     68 H68        13.6875  -26.1476  -44.6688 H         1 UNK         0.0849 
     69 H69        14.3289  -29.6424  -42.4912 H         1 UNK         0.0865 
     70 H70        14.4798  -27.9595  -42.0755 H         1 UNK         0.0865 
     71 H71        16.4939  -30.7151  -43.6827 H         1 UNK         0.1346 
     72 H72        20.0619  -29.7512  -41.5107 H         1 UNK         0.1412 
     73 H73        16.5544  -27.3264  -41.0532 H         1 UNK         0.1426 
     74 H74        19.8891  -28.1262  -39.6494 H         1 UNK         0.0716 
     75 H75        18.4416  -27.1769  -39.4396 H         1 UNK         0.0716 
     76 H76        21.6338  -27.8030  -41.2653 H         1 UNK         0.0695 
     77 H77        22.2080  -26.2095  -41.6737 H         1 UNK         0.0695 
     78 H78        20.4574  -28.0345  -43.4011 H         1 UNK         0.0983 
     79 H79        20.5594  -25.2428  -43.5658 H         1 UNK         0.3095 
     80 H80        19.4493  -24.1683  -45.0578 H         1 UNK         0.0454 
     81 H81        19.5307  -23.5217  -47.4497 H         1 UNK         0.0851 
     82 H82        19.9642  -25.1679  -47.9125 H         1 UNK         0.0851 
     83 H83        21.0751  -24.1964  -46.9586 H         1 UNK         0.0851 
     84 H84        17.6522  -25.2168  -46.9944 H         1 UNK         0.2976 
     85 H85        23.0994  -25.9464  -44.3565 H         1 UNK         0.3116 
     86 H86        25.0543  -26.1654  -45.3033 H         1 UNK         0.0646 
     87 H87        25.5846  -28.1128  -46.7368 H         1 UNK         0.0847 
     88 H88        23.9255  -27.5904  -46.9802 H         1 UNK         0.0847 
     89 H89        24.2683  -29.0327  -46.0301 H         1 UNK         0.0847 
     90 H90        24.4508  -28.9740  -43.2062 H         1 UNK         0.3040 
     91 H91        27.1511  -28.6495  -41.9719 H         1 UNK         0.1015 
     92 H92        27.2453  -30.5468  -43.6484 H         1 UNK         0.0786 
     93 H93        25.9414  -31.3502  -42.7740 H         1 UNK         0.0786 
     94 H94        27.4927  -31.0836  -41.9951 H         1 UNK         0.0786 
     95 H95        24.5425  -27.6925  -41.1964 H         1 UNK         0.3172 
     96 H96        23.1624  -27.4825  -39.4615 H         1 UNK         0.0595 
     97 H97        25.3226  -28.8843  -37.7945 H         1 UNK         0.0839 
     98 H98        24.0563  -27.8121  -37.1953 H         1 UNK         0.0839 
     99 H99        25.3225  -27.1793  -38.2215 H         1 UNK         0.0839 
    100 H100       23.2448  -29.6650  -37.1897 H         1 UNK         0.2998 
    101 H101       20.8944  -31.0219  -37.9706 H         1 UNK         0.0822 
    102 H102       21.4787  -30.5145  -35.6097 H         1 UNK         0.0787 
    103 H103       21.2169  -32.2381  -35.8061 H         1 UNK         0.0787 
    104 H104       22.8564  -31.6151  -35.6866 H         1 UNK         0.0787 
    105 H105       24.1624  -31.8528  -38.7564 H         1 UNK         0.3055 
    106 H106       23.7165  -34.7198  -39.0803 H         1 UNK         0.1106 
    107 H107       25.9618  -34.6901  -40.0970 H         1 UNK         0.0828 
    108 H108       25.9673  -32.9369  -40.1554 H         1 UNK         0.0828 
    109 H109       25.9920  -33.7714  -38.6010 H         1 UNK         0.0828 
    110 H110       22.9907  -31.8884  -40.9328 H         1 UNK         0.2931 
    111 H111       22.1341  -31.4329  -42.8529 H         1 UNK         0.0412 
    112 H112       23.3771  -30.6334  -44.4481 H         1 UNK         0.3472 
    113 H113       24.4841  -31.5851  -45.4244 H         1 UNK         0.3472 
    114 H114       20.9106  -33.2678  -44.2391 H         1 UNK         0.0970 
    115 H115       21.3279  -34.3767  -42.9697 H         1 UNK         0.0970 
    116 H116       19.9310  -31.0299  -43.9263 H         1 UNK         0.0612 
    117 H117       18.4691  -31.9703  -44.1113 H         1 UNK         0.0612 
@<TRIPOS>BOND
     1    1    2 1    
     2    1   62 1    
     3    1   63 1    
     4    1   64 1    
     5    2    3 2    
     6    2    4 am   BACKBONE|DICT|INTERRES
     7    4    5 1    
     8    4   65 1    
     9    5    6 1    
    10    5   25 1    
    11    5   66 1    
    12    6    7 1    
    13    6   67 1    
    14    6   68 1    
    15    7    8 1    
    16    8    9 1    
    17    8   69 1    
    18    8   70 1    
    19    9   10 ar   
    20    9   14 ar   
    21   10   11 ar   
    22   10   71 1    
    23   11   12 ar   
    24   11   61 1    
    25   12   13 ar   
    26   12   72 1    
    27   13   14 ar   
    28   13   15 1    
    29   14   73 1    
    30   15   16 1    
    31   15   74 1    
    32   15   75 1    
    33   16   17 1    
    34   17   18 1    
    35   17   76 1    
    36   17   77 1    
    37   18   19 1    
    38   18   27 1    
    39   18   78 1    
    40   19   20 am   BACKBONE|DICT|INTERRES
    41   19   79 1    
    42   20   21 2    
    43   20   22 1    
    44   22   23 1    
    45   22   24 1    
    46   22   80 1    
    47   23   81 1    
    48   23   82 1    
    49   23   83 1    
    50   24   25 am   BACKBONE|DICT|INTERRES
    51   24   84 1    
    52   25   26 2    
    53   27   28 2    
    54   27   29 am   BACKBONE|DICT|INTERRES
    55   29   30 1    
    56   29   85 1    
    57   30   31 1    
    58   30   32 1    
    59   30   86 1    
    60   31   87 1    
    61   31   88 1    
    62   31   89 1    
    63   32   33 2    
    64   32   34 am   BACKBONE|DICT|INTERRES
    65   34   35 1    
    66   34   90 1    
    67   35   36 1    
    68   35   37 1    
    69   35   91 1    
    70   36   92 1    
    71   36   93 1    
    72   36   94 1    
    73   37   38 2    
    74   37   39 am   BACKBONE|DICT|INTERRES
    75   39   40 1    
    76   39   95 1    
    77   40   41 1    
    78   40   42 1    
    79   40   96 1    
    80   41   97 1    
    81   41   98 1    
    82   41   99 1    
    83   42   43 2    
    84   42   44 am   BACKBONE|DICT|INTERRES
    85   44   45 1    
    86   44  100 1    
    87   45   46 1    
    88   45   47 1    
    89   45  101 1    
    90   46  102 1    
    91   46  103 1    
    92   46  104 1    
    93   47   48 2    
    94   47   49 am   BACKBONE|DICT|INTERRES
    95   49   50 1    
    96   49  105 1    
    97   50   51 1    
    98   50   52 1    
    99   50  106 1    
   100   51  107 1    
   101   51  108 1    
   102   51  109 1    
   103   52   53 2    
   104   52   54 am   BACKBONE|DICT|INTERRES
   105   54   55 1    
   106   54  110 1    
   107   55   56 1    
   108   55   59 1    
   109   55  111 1    
   110   56   57 am   BACKBONE|DICT|INTERRES
   111   56   58 2    
   112   57  112 1    
   113   57  113 1    
   114   59   60 1    
   115   59  114 1    
   116   59  115 1    
   117   60   61 1    
   118   61  116 1    
   119   61  117 1    
@<TRIPOS>SUBSTRUCTURE
     1 UNK         1 GROUP             0       ****    0 ROOT    
