@<TRIPOS>MOLECULE
3R8
117   119    1
SMALL
USER_CHARGES


@<TRIPOS>ATOM
      1 CA         16.7515  -21.9232  -41.0957 C.3       0 UNK        -0.2013 
      2 C          16.8079  -23.2853  -41.7708 C.2       0 UNK         0.4866 
      3 O          15.8986  -23.6314  -42.5249 O.2       0 UNK        -0.5176 
      4 N          17.8671  -24.0619  -41.5018 N.am      1 UNK        -0.4884 
      5 CA         18.1041  -25.3911  -42.0814 C.3       1 UNK         0.0853 
      6 C6         19.1645  -26.1697  -41.2479 C.3       10 UNK        -0.0849 
      7 S7         19.8562  -27.6818  -42.0017 S.3       10 UNK        -0.2776 
      8 C8         18.4603  -28.8407  -41.8287 C.3       10 UNK         0.0316 
      9 C9         18.5864  -29.9521  -42.8550 C.ar      10 UNK        -0.0863 
     10 C10        19.1015  -31.2027  -42.5053 C.ar      10 UNK        -0.1009 
     11 C11        19.2914  -32.1861  -43.4808 C.ar      10 UNK        -0.0712 
     12 C12        18.9842  -31.9026  -44.8158 C.ar      10 UNK        -0.0894 
     13 C13        18.4799  -30.6493  -45.1787 C.ar      10 UNK        -0.0745 
     14 C14        18.2387  -29.6984  -44.1828 C.ar      10 UNK        -0.0972 
     15 C15        18.2591  -30.3088  -46.6511 C.3       10 UNK         0.0209 
     16 S16        18.8805  -28.6532  -47.1354 S.3       10 UNK        -0.2568 
     17 C17        20.5596  -28.6289  -46.4112 C.3       10 UNK        -0.0983 
     18 CA         21.2374  -27.2337  -46.4540 C.3       3 UNK         0.0876 
     19 N          20.3999  -26.1826  -45.8590 N.am      3 UNK        -0.4424 
     20 C          20.4995  -24.8705  -46.1069 C.2       2 UNK         0.4918 
     21 O          21.3394  -24.3968  -46.8739 O.2       2 UNK        -0.4875 
     22 CA         19.5422  -23.9039  -45.3805 C.3       2 UNK         0.0481 
     23 CB         18.3001  -23.6158  -46.2457 C.3       2 UNK        -0.1831 
     24 N          19.1650  -24.2768  -44.0075 N.am      2 UNK        -0.4498 
     25 C          18.4132  -25.3093  -43.5957 C.2       1 UNK         0.5027 
     26 O          17.9567  -26.1646  -44.3539 O.2       1 UNK        -0.4969 
     27 C          22.6283  -27.2576  -45.7803 C.2       3 UNK         0.5005 
     28 O          22.9510  -28.2026  -45.0581 O.2       3 UNK        -0.5279 
     29 N          23.4051  -26.1798  -45.9705 N.am      4 UNK        -0.4463 
     30 CA         24.7548  -25.9396  -45.4339 C.3       4 UNK         0.0283 
     31 CB         25.7688  -26.9013  -46.0888 C.3       4 UNK        -0.1875 
     32 C          24.8431  -25.9674  -43.8913 C.2       4 UNK         0.4949 
     33 O          25.9287  -26.1812  -43.3501 O.2       4 UNK        -0.5039 
     34 N          23.7002  -25.7590  -43.2179 N.am      5 UNK        -0.4663 
     35 CA         23.4853  -25.8598  -41.7692 C.3       5 UNK         0.0242 
     36 CB         24.2129  -24.7186  -41.0268 C.3       5 UNK        -0.1982 
     37 C          23.8131  -27.2581  -41.2021 C.2       5 UNK         0.5017 
     38 O          24.3391  -27.3591  -40.0923 O.2       5 UNK        -0.5012 
     39 N          23.4937  -28.3133  -41.9698 N.am      6 UNK        -0.4439 
     40 CA         23.7326  -29.7178  -41.6138 C.3       6 UNK         0.0297 
     41 CB         23.4484  -30.6013  -42.8348 C.3       6 UNK        -0.2006 
     42 C          22.9407  -30.2206  -40.3902 C.2       6 UNK         0.4892 
     43 O          23.3602  -31.2044  -39.7758 O.2       6 UNK        -0.5089 
     44 N          21.8325  -29.5399  -40.0591 N.am      7 UNK        -0.4243 
     45 CA         20.9675  -29.6755  -38.8789 C.3       7 UNK         0.0196 
     46 CB         21.7383  -29.3469  -37.5850 C.3       7 UNK        -0.2007 
     47 C          20.2332  -31.0213  -38.7699 C.2       7 UNK         0.5020 
     48 O          19.0028  -31.0410  -38.7820 O.2       7 UNK        -0.5147 
     49 N          20.9959  -32.1112  -38.6651 N.am      8 UNK        -0.4734 
     50 CA         20.5114  -33.4882  -38.5656 C.3       8 UNK         0.0238 
     51 CB         20.7608  -34.0014  -37.1367 C.3       8 UNK        -0.1912 
     52 C          21.1645  -34.4205  -39.5992 C.2       8 UNK         0.5038 
     53 O          20.6885  -35.5461  -39.7499 O.2       8 UNK        -0.5046 
     54 N          22.2240  -33.9621  -40.2862 N.am      9 UNK        -0.4200 
     55 CA         23.0007  -34.7277  -41.2812 C.3       9 UNK         0.0839 
     56 C          23.7764  -35.9495  -40.6965 C.2       9 UNK         0.5513 
     57 N          24.0403  -36.0009  -39.3960 N.am      9 UNK        -0.7519 
     58 O          24.1763  -36.8501  -41.4302 O.2       9 UNK        -0.4960 
     59 C59        22.1798  -35.0832  -42.5576 C.3       10 UNK        -0.0876 
     60 S60        21.6464  -33.5963  -43.4663 S.3       10 UNK        -0.2414 
     61 C61        19.8691  -33.5389  -43.0981 C.3       10 UNK         0.0169 
     62 H62        17.6133  -21.7495  -40.4516 H         1 UNK         0.0903 
     63 H63        16.7249  -21.1338  -41.8464 H         1 UNK         0.0903 
     64 H64        15.8518  -21.8439  -40.4860 H         1 UNK         0.0903 
     65 H65        18.5708  -23.7257  -40.8591 H         1 UNK         0.3096 
     66 H66        17.1647  -25.9432  -42.0043 H         1 UNK         0.1121 
     67 H67        18.7488  -26.4277  -40.2724 H         1 UNK         0.0849 
     68 H68        20.0134  -25.5174  -41.0384 H         1 UNK         0.0849 
     69 H69        18.4331  -29.2421  -40.8152 H         1 UNK         0.0865 
     70 H70        17.5144  -28.3202  -41.9818 H         1 UNK         0.0865 
     71 H71        19.3753  -31.4054  -41.4804 H         1 UNK         0.1346 
     72 H72        19.1717  -32.6502  -45.5744 H         1 UNK         0.1412 
     73 H73        17.8553  -28.7251  -44.4552 H         1 UNK         0.1426 
     74 H74        17.1921  -30.3631  -46.8701 H         1 UNK         0.0716 
     75 H75        18.7443  -31.0503  -47.2876 H         1 UNK         0.0716 
     76 H76        20.5080  -28.9710  -45.3776 H         1 UNK         0.0695 
     77 H77        21.1674  -29.3635  -46.9425 H         1 UNK         0.0695 
     78 H78        21.3967  -26.9865  -47.5060 H         1 UNK         0.0983 
     79 H79        19.6439  -26.4926  -45.2561 H         1 UNK         0.3095 
     80 H80        20.0847  -22.9629  -45.2771 H         1 UNK         0.0454 
     81 H81        18.5885  -23.2169  -47.2191 H         1 UNK         0.0851 
     82 H82        17.6495  -22.8796  -45.7738 H         1 UNK         0.0851 
     83 H83        17.7113  -24.5152  -46.4288 H         1 UNK         0.0851 
     84 H84        19.4939  -23.6443  -43.2914 H         1 UNK         0.2976 
     85 H85        23.0019  -25.4197  -46.5124 H         1 UNK         0.3116 
     86 H86        25.0220  -24.9244  -45.7307 H         1 UNK         0.0646 
     87 H87        25.6006  -27.9342  -45.7817 H         1 UNK         0.0847 
     88 H88        26.7919  -26.6433  -45.8127 H         1 UNK         0.0847 
     89 H89        25.7106  -26.8607  -47.1763 H         1 UNK         0.0847 
     90 H90        22.8715  -25.5988  -43.7723 H         1 UNK         0.3040 
     91 H91        22.4155  -25.7213  -41.6093 H         1 UNK         0.1015 
     92 H92        25.2968  -24.8214  -41.0881 H         1 UNK         0.0786 
     93 H93        23.9476  -24.7082  -39.9688 H         1 UNK         0.0786 
     94 H94        23.9446  -23.7445  -41.4355 H         1 UNK         0.0786 
     95 H95        23.1171  -28.1442  -42.8973 H         1 UNK         0.3172 
     96 H96        24.7922  -29.8139  -41.3688 H         1 UNK         0.0595 
     97 H97        22.4015  -30.5472  -43.1387 H         1 UNK         0.0839 
     98 H98        23.6776  -31.6448  -42.6179 H         1 UNK         0.0839 
     99 H99        24.0605  -30.3110  -43.6887 H         1 UNK         0.0839 
    100 H100       21.5572  -28.8030  -40.6961 H         1 UNK         0.2998 
    101 H101       20.1971  -28.9112  -38.9934 H         1 UNK         0.0822 
    102 H102       21.0788  -29.3878  -36.7171 H         1 UNK         0.0787 
    103 H103       22.5570  -30.0439  -37.4039 H         1 UNK         0.0787 
    104 H104       22.1610  -28.3427  -37.6243 H         1 UNK         0.0787 
    105 H105       22.0006  -31.9677  -38.7234 H         1 UNK         0.3055 
    106 H106       19.4372  -33.5224  -38.7617 H         1 UNK         0.1106 
    107 H107       20.2371  -33.3905  -36.4012 H         1 UNK         0.0828 
    108 H108       20.4032  -35.0252  -37.0183 H         1 UNK         0.0828 
    109 H109       21.8216  -33.9936  -36.8839 H         1 UNK         0.0828 
    110 H110       22.5619  -33.0234  -40.1099 H         1 UNK         0.2931 
    111 H111       23.7933  -34.0479  -41.5965 H         1 UNK         0.0412 
    112 H112       24.5511  -36.7876  -39.0267 H         1 UNK         0.3472 
    113 H113       23.7373  -35.2620  -38.7825 H         1 UNK         0.3472 
    114 H114       21.3213  -35.7112  -42.3158 H         1 UNK         0.0970 
    115 H115       22.7856  -35.6664  -43.2530 H         1 UNK         0.0970 
    116 H116       19.7038  -33.7310  -42.0378 H         1 UNK         0.0612 
    117 H117       19.3588  -34.3345  -43.6429 H         1 UNK         0.0612 
@<TRIPOS>BOND
     1    1    2 1    
     2    1   62 1    
     3    1   63 1    
     4    1   64 1    
     5    2    3 2    
     6    2    4 am   BACKBONE|DICT|INTERRES
     7    4    5 1    
     8    4   65 1    
     9    5    6 1    
    10    5   25 1    
    11    5   66 1    
    12    6    7 1    
    13    6   67 1    
    14    6   68 1    
    15    7    8 1    
    16    8    9 1    
    17    8   69 1    
    18    8   70 1    
    19    9   10 ar   
    20    9   14 ar   
    21   10   11 ar   
    22   10   71 1    
    23   11   12 ar   
    24   11   61 1    
    25   12   13 ar   
    26   12   72 1    
    27   13   14 ar   
    28   13   15 1    
    29   14   73 1    
    30   15   16 1    
    31   15   74 1    
    32   15   75 1    
    33   16   17 1    
    34   17   18 1    
    35   17   76 1    
    36   17   77 1    
    37   18   19 1    
    38   18   27 1    
    39   18   78 1    
    40   19   20 am   BACKBONE|DICT|INTERRES
    41   19   79 1    
    42   20   21 2    
    43   20   22 1    
    44   22   23 1    
    45   22   24 1    
    46   22   80 1    
    47   23   81 1    
    48   23   82 1    
    49   23   83 1    
    50   24   25 am   BACKBONE|DICT|INTERRES
    51   24   84 1    
    52   25   26 2    
    53   27   28 2    
    54   27   29 am   BACKBONE|DICT|INTERRES
    55   29   30 1    
    56   29   85 1    
    57   30   31 1    
    58   30   32 1    
    59   30   86 1    
    60   31   87 1    
    61   31   88 1    
    62   31   89 1    
    63   32   33 2    
    64   32   34 am   BACKBONE|DICT|INTERRES
    65   34   35 1    
    66   34   90 1    
    67   35   36 1    
    68   35   37 1    
    69   35   91 1    
    70   36   92 1    
    71   36   93 1    
    72   36   94 1    
    73   37   38 2    
    74   37   39 am   BACKBONE|DICT|INTERRES
    75   39   40 1    
    76   39   95 1    
    77   40   41 1    
    78   40   42 1    
    79   40   96 1    
    80   41   97 1    
    81   41   98 1    
    82   41   99 1    
    83   42   43 2    
    84   42   44 am   BACKBONE|DICT|INTERRES
    85   44   45 1    
    86   44  100 1    
    87   45   46 1    
    88   45   47 1    
    89   45  101 1    
    90   46  102 1    
    91   46  103 1    
    92   46  104 1    
    93   47   48 2    
    94   47   49 am   BACKBONE|DICT|INTERRES
    95   49   50 1    
    96   49  105 1    
    97   50   51 1    
    98   50   52 1    
    99   50  106 1    
   100   51  107 1    
   101   51  108 1    
   102   51  109 1    
   103   52   53 2    
   104   52   54 am   BACKBONE|DICT|INTERRES
   105   54   55 1    
   106   54  110 1    
   107   55   56 1    
   108   55   59 1    
   109   55  111 1    
   110   56   57 am   BACKBONE|DICT|INTERRES
   111   56   58 2    
   112   57  112 1    
   113   57  113 1    
   114   59   60 1    
   115   59  114 1    
   116   59  115 1    
   117   60   61 1    
   118   61  116 1    
   119   61  117 1    
@<TRIPOS>SUBSTRUCTURE
     1 UNK         1 GROUP             0       ****    0 ROOT    
