@<TRIPOS>MOLECULE
3R8
117   119    1
SMALL
USER_CHARGES


@<TRIPOS>ATOM
      1 CA         17.9289  -29.0114  -48.2819 C.3       0 UNK        -0.2013 
      2 C          17.6916  -28.1173  -47.0742 C.2       0 UNK         0.4866 
      3 O          17.5478  -26.9052  -47.2322 O.2       0 UNK        -0.5176 
      4 N          17.6646  -28.7109  -45.8722 N.am      1 UNK        -0.4884 
      5 CA         17.4032  -28.0666  -44.5723 C.3       1 UNK         0.0853 
      6 C6         15.9804  -27.4399  -44.4586 C.3       10 UNK        -0.0849 
      7 S7         14.6327  -28.6251  -44.8082 S.3       10 UNK        -0.2776 
      8 C8         14.1615  -29.1676  -43.1316 C.3       10 UNK         0.0316 
      9 C9         15.3167  -29.8763  -42.4427 C.ar      10 UNK        -0.0863 
     10 C10        15.6683  -31.1733  -42.8261 C.ar      10 UNK        -0.1009 
     11 C11        16.7909  -31.7964  -42.2742 C.ar      10 UNK        -0.0712 
     12 C12        17.5363  -31.1258  -41.3001 C.ar      10 UNK        -0.0894 
     13 C13        17.1949  -29.8269  -40.9055 C.ar      10 UNK        -0.0745 
     14 C14        16.0735  -29.2137  -41.4714 C.ar      10 UNK        -0.0972 
     15 C15        18.0474  -29.0699  -39.8935 C.3       10 UNK         0.0209 
     16 S16        19.8078  -29.0801  -40.3632 S.3       10 UNK        -0.2568 
     17 C17        20.3989  -27.4455  -39.8202 C.3       10 UNK        -0.0983 
     18 CA         21.4696  -26.9185  -40.8048 C.3       3 UNK         0.0876 
     19 N          20.9140  -26.6299  -42.1363 N.am      3 UNK        -0.4424 
     20 C          21.6227  -26.4755  -43.2619 C.2       2 UNK         0.4918 
     21 O          22.8539  -26.4697  -43.2782 O.2       2 UNK        -0.4875 
     22 CA         20.8351  -26.2469  -44.5703 C.3       2 UNK         0.0481 
     23 CB         21.7372  -26.3427  -45.8147 C.3       2 UNK        -0.1831 
     24 N          19.6937  -27.1507  -44.7519 N.am      2 UNK        -0.4498 
     25 C          18.5076  -27.0750  -44.1307 C.2       1 UNK         0.5027 
     26 O          18.2814  -26.2717  -43.2236 O.2       1 UNK        -0.4969 
     27 C          22.3053  -25.7699  -40.1973 C.2       3 UNK         0.5005 
     28 O          22.9384  -25.9758  -39.1615 O.2       3 UNK        -0.5279 
     29 N          22.3909  -24.6184  -40.8810 N.am      4 UNK        -0.4463 
     30 CA         23.4086  -23.5844  -40.6586 C.3       4 UNK         0.0283 
     31 CB         23.1219  -22.3851  -41.5756 C.3       4 UNK        -0.1875 
     32 C          24.8498  -24.0967  -40.8760 C.2       4 UNK         0.4949 
     33 O          25.7760  -23.5602  -40.2695 O.2       4 UNK        -0.5039 
     34 N          25.0094  -25.1526  -41.6902 N.am      5 UNK        -0.4663 
     35 CA         26.2548  -25.9046  -41.8753 C.3       5 UNK         0.0242 
     36 CB         26.2412  -26.5346  -43.2795 C.3       5 UNK        -0.1982 
     37 C          26.4864  -26.9804  -40.7900 C.2       5 UNK         0.5017 
     38 O          27.4131  -27.7776  -40.9343 O.2       5 UNK        -0.5012 
     39 N          25.6428  -27.0042  -39.7452 N.am      6 UNK        -0.4439 
     40 CA         25.6174  -27.9181  -38.5939 C.3       6 UNK         0.0297 
     41 CB         26.9785  -27.9776  -37.8681 C.3       6 UNK        -0.2006 
     42 C          25.0546  -29.3212  -38.8935 C.2       6 UNK         0.4892 
     43 O          24.9553  -30.1278  -37.9676 O.2       6 UNK        -0.5089 
     44 N          24.6621  -29.5896  -40.1437 N.am      7 UNK        -0.4243 
     45 CA         24.0340  -30.8271  -40.5972 C.3       7 UNK         0.0196 
     46 CB         25.0830  -31.9513  -40.7100 C.3       7 UNK        -0.2007 
     47 C          23.3671  -30.5709  -41.9522 C.2       7 UNK         0.5020 
     48 O          23.7365  -29.6192  -42.6434 O.2       7 UNK        -0.5147 
     49 N          22.4249  -31.4430  -42.3185 N.am      8 UNK        -0.4734 
     50 CA         21.7350  -31.4689  -43.6055 C.3       8 UNK         0.0238 
     51 CB         20.6324  -30.3929  -43.6492 C.3       8 UNK        -0.1912 
     52 C          21.1444  -32.8698  -43.8128 C.2       8 UNK         0.5038 
     53 O          21.1100  -33.6652  -42.8690 O.2       8 UNK        -0.5046 
     54 N          20.6712  -33.1272  -45.0380 N.am      9 UNK        -0.4200 
     55 CA         19.9799  -34.3587  -45.4664 C.3       9 UNK         0.0839 
     56 C          20.8956  -35.6146  -45.5887 C.2       9 UNK         0.5513 
     57 N          22.2157  -35.4732  -45.5954 N.am      9 UNK        -0.7519 
     58 O          20.4047  -36.7342  -45.7113 O.2       9 UNK        -0.4960 
     59 C59        18.6708  -34.6547  -44.6730 C.3       10 UNK        -0.0876 
     60 S60        17.5679  -33.2031  -44.5367 S.3       10 UNK        -0.2414 
     61 C61        17.2190  -33.1790  -42.7464 C.3       10 UNK         0.0169 
     62 H62        17.0892  -28.9371  -48.9724 H         1 UNK         0.0903 
     63 H63        18.8311  -28.7006  -48.8081 H         1 UNK         0.0903 
     64 H64        18.0434  -30.0581  -48.0004 H         1 UNK         0.0903 
     65 H65        17.7711  -29.7152  -45.8274 H         1 UNK         0.3096 
     66 H66        17.4677  -28.8745  -43.8439 H         1 UNK         0.1121 
     67 H67        15.8798  -26.6016  -45.1497 H         1 UNK         0.0849 
     68 H68        15.8170  -27.0191  -43.4651 H         1 UNK         0.0849 
     69 H69        13.8245  -28.3086  -42.5490 H         1 UNK         0.0865 
     70 H70        13.3079  -29.8435  -43.2013 H         1 UNK         0.0865 
     71 H71        15.0958  -31.6805  -43.5910 H         1 UNK         0.1346 
     72 H72        18.4083  -31.6002  -40.8706 H         1 UNK         0.1412 
     73 H73        15.8105  -28.2048  -41.1834 H         1 UNK         0.1426 
     74 H74        17.9359  -29.5275  -38.9098 H         1 UNK         0.0716 
     75 H75        17.6962  -28.0415  -39.8005 H         1 UNK         0.0716 
     76 H76        19.5717  -26.7385  -39.7419 H         1 UNK         0.0695 
     77 H77        20.8049  -27.5657  -38.8139 H         1 UNK         0.0695 
     78 H78        22.1946  -27.7234  -40.9485 H         1 UNK         0.0983 
     79 H79        19.9022  -26.5810  -42.2095 H         1 UNK         0.3095 
     80 H80        20.4494  -25.2266  -44.5251 H         1 UNK         0.0454 
     81 H81        22.5533  -25.6203  -45.7661 H         1 UNK         0.0851 
     82 H82        22.1849  -27.3327  -45.9113 H         1 UNK         0.0851 
     83 H83        21.1801  -26.1333  -46.7281 H         1 UNK         0.0851 
     84 H84        19.7910  -27.8523  -45.4709 H         1 UNK         0.2976 
     85 H85        21.8323  -24.5306  -41.7172 H         1 UNK         0.3116 
     86 H86        23.3285  -23.2536  -39.6210 H         1 UNK         0.0646 
     87 H87        23.8481  -21.5875  -41.4117 H         1 UNK         0.0847 
     88 H88        22.1344  -21.9646  -41.3847 H         1 UNK         0.0847 
     89 H89        23.1739  -22.6600  -42.6300 H         1 UNK         0.0847 
     90 H90        24.1967  -25.5257  -42.1744 H         1 UNK         0.3040 
     91 H91        27.0977  -25.2120  -41.8220 H         1 UNK         0.1015 
     92 H92        26.0742  -25.7831  -44.0514 H         1 UNK         0.0786 
     93 H93        25.4600  -27.2905  -43.3737 H         1 UNK         0.0786 
     94 H94        27.1920  -27.0201  -43.5032 H         1 UNK         0.0786 
     95 H95        24.8880  -26.3260  -39.7392 H         1 UNK         0.3172 
     96 H96        24.9089  -27.4686  -37.8968 H         1 UNK         0.0595 
     97 H97        27.3580  -26.9795  -37.6499 H         1 UNK         0.0839 
     98 H98        27.7315  -28.5056  -38.4534 H         1 UNK         0.0839 
     99 H99        26.8884  -28.5033  -36.9168 H         1 UNK         0.0839 
    100 H100       24.7567  -28.8846  -40.8643 H         1 UNK         0.2998 
    101 H101       23.2600  -31.1123  -39.8811 H         1 UNK         0.0822 
    102 H102       25.5371  -32.1752  -39.7447 H         1 UNK         0.0787 
    103 H103       24.6330  -32.8760  -41.0735 H         1 UNK         0.0787 
    104 H104       25.8832  -31.6830  -41.4011 H         1 UNK         0.0787 
    105 H105       22.2015  -32.2340  -41.7251 H         1 UNK         0.3055 
    106 H106       22.4643  -31.2809  -44.3970 H         1 UNK         0.1106 
    107 H107       21.0288  -29.4061  -43.4146 H         1 UNK         0.0828 
    108 H108       20.1769  -30.3325  -44.6375 H         1 UNK         0.0828 
    109 H109       19.8354  -30.6090  -42.9383 H         1 UNK         0.0828 
    110 H110       20.7591  -32.4182  -45.7509 H         1 UNK         0.2931 
    111 H111       19.6754  -34.1523  -46.4931 H         1 UNK         0.0412 
    112 H112       22.7995  -36.2902  -45.6857 H         1 UNK         0.3472 
    113 H113       22.6335  -34.5611  -45.5072 H         1 UNK         0.3472 
    114 H114       18.9133  -35.0363  -43.6802 H         1 UNK         0.0970 
    115 H115       18.1059  -35.4495  -45.1632 H         1 UNK         0.0970 
    116 H116       18.1079  -33.4981  -42.2000 H         1 UNK         0.0612 
    117 H117       16.4348  -33.9027  -42.5211 H         1 UNK         0.0612 
@<TRIPOS>BOND
     1    1    2 1    
     2    1   62 1    
     3    1   63 1    
     4    1   64 1    
     5    2    3 2    
     6    2    4 am   BACKBONE|DICT|INTERRES
     7    4    5 1    
     8    4   65 1    
     9    5    6 1    
    10    5   25 1    
    11    5   66 1    
    12    6    7 1    
    13    6   67 1    
    14    6   68 1    
    15    7    8 1    
    16    8    9 1    
    17    8   69 1    
    18    8   70 1    
    19    9   10 ar   
    20    9   14 ar   
    21   10   11 ar   
    22   10   71 1    
    23   11   12 ar   
    24   11   61 1    
    25   12   13 ar   
    26   12   72 1    
    27   13   14 ar   
    28   13   15 1    
    29   14   73 1    
    30   15   16 1    
    31   15   74 1    
    32   15   75 1    
    33   16   17 1    
    34   17   18 1    
    35   17   76 1    
    36   17   77 1    
    37   18   19 1    
    38   18   27 1    
    39   18   78 1    
    40   19   20 am   BACKBONE|DICT|INTERRES
    41   19   79 1    
    42   20   21 2    
    43   20   22 1    
    44   22   23 1    
    45   22   24 1    
    46   22   80 1    
    47   23   81 1    
    48   23   82 1    
    49   23   83 1    
    50   24   25 am   BACKBONE|DICT|INTERRES
    51   24   84 1    
    52   25   26 2    
    53   27   28 2    
    54   27   29 am   BACKBONE|DICT|INTERRES
    55   29   30 1    
    56   29   85 1    
    57   30   31 1    
    58   30   32 1    
    59   30   86 1    
    60   31   87 1    
    61   31   88 1    
    62   31   89 1    
    63   32   33 2    
    64   32   34 am   BACKBONE|DICT|INTERRES
    65   34   35 1    
    66   34   90 1    
    67   35   36 1    
    68   35   37 1    
    69   35   91 1    
    70   36   92 1    
    71   36   93 1    
    72   36   94 1    
    73   37   38 2    
    74   37   39 am   BACKBONE|DICT|INTERRES
    75   39   40 1    
    76   39   95 1    
    77   40   41 1    
    78   40   42 1    
    79   40   96 1    
    80   41   97 1    
    81   41   98 1    
    82   41   99 1    
    83   42   43 2    
    84   42   44 am   BACKBONE|DICT|INTERRES
    85   44   45 1    
    86   44  100 1    
    87   45   46 1    
    88   45   47 1    
    89   45  101 1    
    90   46  102 1    
    91   46  103 1    
    92   46  104 1    
    93   47   48 2    
    94   47   49 am   BACKBONE|DICT|INTERRES
    95   49   50 1    
    96   49  105 1    
    97   50   51 1    
    98   50   52 1    
    99   50  106 1    
   100   51  107 1    
   101   51  108 1    
   102   51  109 1    
   103   52   53 2    
   104   52   54 am   BACKBONE|DICT|INTERRES
   105   54   55 1    
   106   54  110 1    
   107   55   56 1    
   108   55   59 1    
   109   55  111 1    
   110   56   57 am   BACKBONE|DICT|INTERRES
   111   56   58 2    
   112   57  112 1    
   113   57  113 1    
   114   59   60 1    
   115   59  114 1    
   116   59  115 1    
   117   60   61 1    
   118   61  116 1    
   119   61  117 1    
@<TRIPOS>SUBSTRUCTURE
     1 UNK         1 GROUP             0       ****    0 ROOT    
