@<TRIPOS>MOLECULE
3R8
117   119    1
SMALL
USER_CHARGES


@<TRIPOS>ATOM
      1 CA         15.4476  -26.6310  -39.8489 C.3       0 UNK        -0.2013 
      2 C          15.8062  -26.2338  -41.2731 C.2       0 UNK         0.4866 
      3 O          15.7439  -25.0519  -41.6138 O.2       0 UNK        -0.5176 
      4 N          16.1735  -27.2141  -42.1081 N.am      1 UNK        -0.4884 
      5 CA         16.6342  -27.0103  -43.4852 C.3       1 UNK         0.0853 
      6 C6         16.5374  -28.3227  -44.2996 C.3       10 UNK        -0.0849 
      7 S7         16.3505  -28.0150  -46.0902 S.3       10 UNK        -0.2776 
      8 C8         16.0698  -29.7019  -46.7178 C.3       10 UNK         0.0316 
      9 C9         17.2001  -30.6395  -46.3228 C.ar      10 UNK        -0.0863 
     10 C10        16.9862  -31.6374  -45.3688 C.ar      10 UNK        -0.1009 
     11 C11        18.0329  -32.4698  -44.9643 C.ar      10 UNK        -0.0712 
     12 C12        19.3053  -32.2957  -45.5215 C.ar      10 UNK        -0.0894 
     13 C13        19.5284  -31.3065  -46.4871 C.ar      10 UNK        -0.0745 
     14 C14        18.4674  -30.4907  -46.8909 C.ar      10 UNK        -0.0972 
     15 C15        20.9072  -31.1287  -47.1126 C.3       10 UNK         0.0209 
     16 S16        21.5683  -29.4425  -46.8959 S.3       10 UNK        -0.2568 
     17 C17        21.9241  -29.4376  -45.1103 C.3       10 UNK        -0.0983 
     18 CA         22.1114  -28.0120  -44.5348 C.3       3 UNK         0.0876 
     19 N          20.9416  -27.1534  -44.7575 N.am      3 UNK        -0.4424 
     20 C          20.9684  -25.8145  -44.7179 C.2       2 UNK         0.4918 
     21 O          21.9939  -25.1648  -44.5106 O.2       2 UNK        -0.4875 
     22 CA         19.6429  -25.0575  -44.9248 C.3       2 UNK         0.0481 
     23 CB         19.5842  -24.4784  -46.3475 C.3       2 UNK        -0.1831 
     24 N          18.4165  -25.8235  -44.6751 N.am      2 UNK        -0.4498 
     25 C          18.0589  -26.4091  -43.5237 C.2       1 UNK         0.5027 
     26 O          18.7995  -26.4977  -42.5403 O.2       1 UNK        -0.4969 
     27 C          22.5489  -28.0702  -43.0528 C.2       3 UNK         0.5005 
     28 O          23.6111  -28.6329  -42.7771 O.2       3 UNK        -0.5279 
     29 N          21.7659  -27.4834  -42.1291 N.am      4 UNK        -0.4463 
     30 CA         21.9722  -27.4727  -40.6740 C.3       4 UNK         0.0283 
     31 CB         20.9207  -26.5717  -40.0073 C.3       4 UNK        -0.1875 
     32 C          23.3738  -27.0636  -40.1929 C.2       4 UNK         0.4949 
     33 O          23.8130  -27.5463  -39.1498 O.2       4 UNK        -0.5039 
     34 N          24.0580  -26.2121  -40.9670 N.am      5 UNK        -0.4663 
     35 CA         25.4323  -25.7718  -40.7208 C.3       5 UNK         0.0242 
     36 CB         25.7667  -24.6292  -41.6938 C.3       5 UNK        -0.1982 
     37 C          26.4892  -26.8901  -40.8239 C.2       5 UNK         0.5017 
     38 O          27.5804  -26.7140  -40.2800 O.2       5 UNK        -0.5012 
     39 N          26.1704  -27.9945  -41.5157 N.am      6 UNK        -0.4439 
     40 CA         27.0770  -29.1246  -41.7351 C.3       6 UNK         0.0297 
     41 CB         27.5566  -29.1151  -43.1966 C.3       6 UNK        -0.2006 
     42 C          26.4354  -30.4763  -41.3901 C.2       6 UNK         0.4892 
     43 O          27.1060  -31.3192  -40.7933 O.2       6 UNK        -0.5089 
     44 N          25.1714  -30.6771  -41.7836 N.am      7 UNK        -0.4243 
     45 CA         24.4680  -31.9593  -41.6922 C.3       7 UNK         0.0196 
     46 CB         23.6425  -32.1499  -42.9775 C.3       7 UNK        -0.2007 
     47 C          23.5440  -32.0661  -40.4700 C.2       7 UNK         0.5020 
     48 O          22.9322  -33.1186  -40.2901 O.2       7 UNK        -0.5147 
     49 N          23.3805  -30.9787  -39.7004 N.am      8 UNK        -0.4734 
     50 CA         22.4421  -30.7820  -38.5765 C.3       8 UNK         0.0238 
     51 CB         22.6845  -31.7986  -37.4435 C.3       8 UNK        -0.1912 
     52 C          20.9515  -30.7406  -38.9795 C.2       8 UNK         0.5038 
     53 O          20.1752  -30.0452  -38.3245 O.2       8 UNK        -0.5046 
     54 N          20.5887  -31.4440  -40.0571 N.am      9 UNK        -0.4200 
     55 CA         19.3028  -31.3912  -40.7559 C.3       9 UNK         0.0839 
     56 C          19.1183  -30.0205  -41.4623 C.2       9 UNK         0.5513 
     57 N          18.4113  -29.0822  -40.8507 N.am      9 UNK        -0.7519 
     58 O          19.6234  -29.7981  -42.5567 O.2       9 UNK        -0.4960 
     59 C59        19.1932  -32.5918  -41.7319 C.3       10 UNK        -0.0876 
     60 S60        17.4847  -32.9193  -42.2719 S.3       10 UNK        -0.2414 
     61 C61        17.7671  -33.5727  -43.9485 C.3       10 UNK         0.0169 
     62 H62        15.5110  -27.7084  -39.6971 H         1 UNK         0.0903 
     63 H63        16.1251  -26.1491  -39.1445 H         1 UNK         0.0903 
     64 H64        14.4311  -26.3153  -39.6154 H         1 UNK         0.0903 
     65 H65        16.2187  -28.1643  -41.7673 H         1 UNK         0.3096 
     66 H66        15.9596  -26.2761  -43.9328 H         1 UNK         0.1121 
     67 H67        17.4018  -28.9652  -44.1160 H         1 UNK         0.0849 
     68 H68        15.6650  -28.8979  -43.9844 H         1 UNK         0.0849 
     69 H69        15.1110  -30.0681  -46.3471 H         1 UNK         0.0865 
     70 H70        15.9862  -29.6705  -47.8051 H         1 UNK         0.0865 
     71 H71        16.0065  -31.7625  -44.9278 H         1 UNK         0.1346 
     72 H72        20.1187  -32.9370  -45.2111 H         1 UNK         0.1412 
     73 H73        18.6351  -29.7194  -47.6305 H         1 UNK         0.1426 
     74 H74        20.8367  -31.3423  -48.1799 H         1 UNK         0.0716 
     75 H75        21.6200  -31.8454  -46.7017 H         1 UNK         0.0716 
     76 H76        21.1244  -29.9617  -44.5878 H         1 UNK         0.0695 
     77 H77        22.8289  -30.0297  -44.9651 H         1 UNK         0.0695 
     78 H78        22.9511  -27.5612  -45.0687 H         1 UNK         0.0983 
     79 H79        20.0645  -27.6249  -44.9241 H         1 UNK         0.3095 
     80 H80        19.6439  -24.2233  -44.2204 H         1 UNK         0.0454 
     81 H81        20.4655  -23.8716  -46.5610 H         1 UNK         0.0851 
     82 H82        19.5414  -25.2658  -47.1012 H         1 UNK         0.0851 
     83 H83        18.7139  -23.8358  -46.4813 H         1 UNK         0.0851 
     84 H84        17.7585  -25.8642  -45.4417 H         1 UNK         0.2976 
     85 H85        20.8872  -27.0903  -42.4486 H         1 UNK         0.3116 
     86 H86        21.8079  -28.4939  -40.3391 H         1 UNK         0.0646 
     87 H87        21.0662  -26.5299  -38.9268 H         1 UNK         0.0847 
     88 H88        19.9112  -26.9418  -40.1724 H         1 UNK         0.0847 
     89 H89        20.9678  -25.5497  -40.3848 H         1 UNK         0.0847 
     90 H90        23.6134  -25.8758  -41.8098 H         1 UNK         0.3040 
     91 H91        25.4793  -25.3813  -39.7017 H         1 UNK         0.1015 
     92 H92        25.0828  -23.7891  -41.5709 H         1 UNK         0.0786 
     93 H93        25.7149  -24.9567  -42.7331 H         1 UNK         0.0786 
     94 H94        26.7753  -24.2505  -41.5212 H         1 UNK         0.0786 
     95 H95        25.2410  -28.0614  -41.9224 H         1 UNK         0.3172 
     96 H96        27.9573  -29.0307  -41.0958 H         1 UNK         0.0595 
     97 H97        28.2262  -29.9532  -43.3950 H         1 UNK         0.0839 
     98 H98        28.1054  -28.2016  -43.4259 H         1 UNK         0.0839 
     99 H99        26.7229  -29.1890  -43.8964 H         1 UNK         0.0839 
    100 H100       24.6630  -29.9253  -42.2488 H         1 UNK         0.2998 
    101 H101       25.1895  -32.7768  -41.6287 H         1 UNK         0.0822 
    102 H102       22.8269  -31.4286  -43.0390 H         1 UNK         0.0787 
    103 H103       24.2595  -32.0406  -43.8695 H         1 UNK         0.0787 
    104 H104       23.1970  -33.1450  -43.0139 H         1 UNK         0.0787 
    105 H105       23.9227  -30.1622  -39.9493 H         1 UNK         0.3055 
    106 H106       22.6703  -29.7936  -38.1739 H         1 UNK         0.1106 
    107 H107       22.4276  -32.8157  -37.7402 H         1 UNK         0.0828 
    108 H108       23.7262  -31.7946  -37.1229 H         1 UNK         0.0828 
    109 H109       22.0764  -31.5566  -36.5708 H         1 UNK         0.0828 
    110 H110       21.3044  -32.0256  -40.4767 H         1 UNK         0.2931 
    111 H111       18.5233  -31.4992  -39.9988 H         1 UNK         0.0412 
    112 H112       18.3651  -28.1719  -41.2891 H         1 UNK         0.3472 
    113 H113       18.0680  -29.2276  -39.9139 H         1 UNK         0.3472 
    114 H114       19.8426  -32.4469  -42.5973 H         1 UNK         0.0970 
    115 H115       19.5473  -33.5022  -41.2453 H         1 UNK         0.0970 
    116 H116       18.5868  -34.2927  -43.9270 H         1 UNK         0.0612 
    117 H117       16.8818  -34.1306  -44.2567 H         1 UNK         0.0612 
@<TRIPOS>BOND
     1    1    2 1    
     2    1   62 1    
     3    1   63 1    
     4    1   64 1    
     5    2    3 2    
     6    2    4 am   BACKBONE|DICT|INTERRES
     7    4    5 1    
     8    4   65 1    
     9    5    6 1    
    10    5   25 1    
    11    5   66 1    
    12    6    7 1    
    13    6   67 1    
    14    6   68 1    
    15    7    8 1    
    16    8    9 1    
    17    8   69 1    
    18    8   70 1    
    19    9   10 ar   
    20    9   14 ar   
    21   10   11 ar   
    22   10   71 1    
    23   11   12 ar   
    24   11   61 1    
    25   12   13 ar   
    26   12   72 1    
    27   13   14 ar   
    28   13   15 1    
    29   14   73 1    
    30   15   16 1    
    31   15   74 1    
    32   15   75 1    
    33   16   17 1    
    34   17   18 1    
    35   17   76 1    
    36   17   77 1    
    37   18   19 1    
    38   18   27 1    
    39   18   78 1    
    40   19   20 am   BACKBONE|DICT|INTERRES
    41   19   79 1    
    42   20   21 2    
    43   20   22 1    
    44   22   23 1    
    45   22   24 1    
    46   22   80 1    
    47   23   81 1    
    48   23   82 1    
    49   23   83 1    
    50   24   25 am   BACKBONE|DICT|INTERRES
    51   24   84 1    
    52   25   26 2    
    53   27   28 2    
    54   27   29 am   BACKBONE|DICT|INTERRES
    55   29   30 1    
    56   29   85 1    
    57   30   31 1    
    58   30   32 1    
    59   30   86 1    
    60   31   87 1    
    61   31   88 1    
    62   31   89 1    
    63   32   33 2    
    64   32   34 am   BACKBONE|DICT|INTERRES
    65   34   35 1    
    66   34   90 1    
    67   35   36 1    
    68   35   37 1    
    69   35   91 1    
    70   36   92 1    
    71   36   93 1    
    72   36   94 1    
    73   37   38 2    
    74   37   39 am   BACKBONE|DICT|INTERRES
    75   39   40 1    
    76   39   95 1    
    77   40   41 1    
    78   40   42 1    
    79   40   96 1    
    80   41   97 1    
    81   41   98 1    
    82   41   99 1    
    83   42   43 2    
    84   42   44 am   BACKBONE|DICT|INTERRES
    85   44   45 1    
    86   44  100 1    
    87   45   46 1    
    88   45   47 1    
    89   45  101 1    
    90   46  102 1    
    91   46  103 1    
    92   46  104 1    
    93   47   48 2    
    94   47   49 am   BACKBONE|DICT|INTERRES
    95   49   50 1    
    96   49  105 1    
    97   50   51 1    
    98   50   52 1    
    99   50  106 1    
   100   51  107 1    
   101   51  108 1    
   102   51  109 1    
   103   52   53 2    
   104   52   54 am   BACKBONE|DICT|INTERRES
   105   54   55 1    
   106   54  110 1    
   107   55   56 1    
   108   55   59 1    
   109   55  111 1    
   110   56   57 am   BACKBONE|DICT|INTERRES
   111   56   58 2    
   112   57  112 1    
   113   57  113 1    
   114   59   60 1    
   115   59  114 1    
   116   59  115 1    
   117   60   61 1    
   118   61  116 1    
   119   61  117 1    
@<TRIPOS>SUBSTRUCTURE
     1 UNK         1 GROUP             0       ****    0 ROOT    
