@<TRIPOS>MOLECULE
3R8
117   119    1
SMALL
USER_CHARGES


@<TRIPOS>ATOM
      1 CA         12.5437  -22.3097  -46.5578 C.3       0 UNK        -0.2013 
      2 C          13.9337  -22.9109  -46.7036 C.2       0 UNK         0.4866 
      3 O          14.8731  -22.2014  -47.0651 O.2       0 UNK        -0.5176 
      4 N          14.0719  -24.2150  -46.4331 N.am      1 UNK        -0.4884 
      5 CA         15.3454  -24.9397  -46.4534 C.3       1 UNK         0.0853 
      6 C6         15.1093  -26.4699  -46.5029 C.3       10 UNK        -0.0849 
      7 S7         16.6050  -27.4150  -46.9558 S.3       10 UNK        -0.2776 
      8 C8         16.1142  -29.1060  -46.4849 C.3       10 UNK         0.0316 
      9 C9         16.7024  -29.5382  -45.1461 C.ar      10 UNK        -0.0863 
     10 C10        17.7332  -30.4845  -45.1049 C.ar      10 UNK        -0.1009 
     11 C11        18.2352  -30.9430  -43.8817 C.ar      10 UNK        -0.0712 
     12 C12        17.7090  -30.4312  -42.6927 C.ar      10 UNK        -0.0894 
     13 C13        16.7027  -29.4621  -42.7189 C.ar      10 UNK        -0.0745 
     14 C14        16.1931  -29.0298  -43.9468 C.ar      10 UNK        -0.0972 
     15 C15        16.1727  -28.8768  -41.4183 C.3       10 UNK         0.0209 
     16 S16        16.7971  -27.1894  -41.1323 S.3       10 UNK        -0.2568 
     17 C17        18.6031  -27.4544  -41.0277 C.3       10 UNK        -0.0983 
     18 CA         19.3406  -27.1433  -42.3604 C.3       3 UNK         0.0876 
     19 N          19.0229  -25.7938  -42.8491 N.am      3 UNK        -0.4424 
     20 C          19.0671  -25.4005  -44.1252 C.2       2 UNK         0.4918 
     21 O          19.5463  -26.0794  -45.0354 O.2       2 UNK        -0.4875 
     22 CA         18.4885  -24.0178  -44.4484 C.3       2 UNK         0.0481 
     23 CB         19.5854  -23.0648  -44.9502 C.3       2 UNK        -0.1831 
     24 N          17.4701  -24.1831  -45.4825 N.am      2 UNK        -0.4498 
     25 C          16.2032  -24.5395  -45.2358 C.2       1 UNK         0.5027 
     26 O          15.7089  -24.5876  -44.1062 O.2       1 UNK        -0.4969 
     27 C          20.8616  -27.4284  -42.2768 C.2       3 UNK         0.5005 
     28 O          21.3062  -28.0589  -41.3163 O.2       3 UNK        -0.5279 
     29 N          21.6219  -26.9620  -43.2813 N.am      4 UNK        -0.4463 
     30 CA         23.0616  -27.1297  -43.5126 C.3       4 UNK         0.0283 
     31 CB         23.3203  -28.4972  -44.1816 C.3       4 UNK        -0.1875 
     32 C          23.9163  -26.8798  -42.2529 C.2       4 UNK         0.4949 
     33 O          23.9966  -25.7406  -41.7911 O.2       4 UNK        -0.5039 
     34 N          24.5239  -27.9453  -41.7259 N.am      5 UNK        -0.4663 
     35 CA         25.2605  -28.0017  -40.4719 C.3       5 UNK         0.0242 
     36 CB         26.7523  -27.7343  -40.7392 C.3       5 UNK        -0.1982 
     37 C          25.0466  -29.3985  -39.8775 C.2       5 UNK         0.5017 
     38 O          24.6476  -30.3169  -40.6028 O.2       5 UNK        -0.5012 
     39 N          25.3623  -29.5541  -38.5849 N.am      6 UNK        -0.4439 
     40 CA         25.2257  -30.8040  -37.8235 C.3       6 UNK         0.0297 
     41 CB         25.5924  -30.5460  -36.3533 C.3       6 UNK        -0.2006 
     42 C          26.0399  -31.9896  -38.3781 C.2       6 UNK         0.4892 
     43 O          25.6544  -33.1376  -38.1602 O.2       6 UNK        -0.5089 
     44 N          27.1245  -31.6993  -39.1088 N.am      7 UNK        -0.4243 
     45 CA         27.9319  -32.6881  -39.8261 C.3       7 UNK         0.0196 
     46 CB         29.2589  -32.0358  -40.2476 C.3       7 UNK        -0.2007 
     47 C          27.2209  -33.2942  -41.0526 C.2       7 UNK         0.5020 
     48 O          27.6000  -34.3865  -41.4762 O.2       7 UNK        -0.5147 
     49 N          26.2304  -32.5837  -41.6105 N.am      8 UNK        -0.4734 
     50 CA         25.4815  -32.9896  -42.8013 C.3       8 UNK         0.0238 
     51 CB         25.4524  -31.8226  -43.8035 C.3       8 UNK        -0.1912 
     52 C          24.0550  -33.4337  -42.4506 C.2       8 UNK         0.5038 
     53 O          23.6311  -34.4963  -42.9069 O.2       8 UNK        -0.5046 
     54 N          23.3463  -32.6156  -41.6631 N.am      9 UNK        -0.4200 
     55 CA         21.9317  -32.8026  -41.2980 C.3       9 UNK         0.0839 
     56 C          21.7192  -33.2118  -39.8128 C.2       9 UNK         0.5513 
     57 N          22.7575  -33.4604  -39.0264 N.am      9 UNK        -0.7519 
     58 O          20.5818  -33.3330  -39.3652 O.2       9 UNK        -0.4960 
     59 C59        21.0858  -31.5573  -41.6791 C.3       10 UNK        -0.0876 
     60 S60        20.9648  -31.3269  -43.4880 S.3       10 UNK        -0.2414 
     61 C61        19.3179  -32.0151  -43.8497 C.3       10 UNK         0.0169 
     62 H62        11.8089  -23.0507  -46.2436 H         1 UNK         0.0903 
     63 H63        12.5569  -21.5104  -45.8173 H         1 UNK         0.0903 
     64 H64        12.2154  -21.8887  -47.5078 H         1 UNK         0.0903 
     65 H65        13.2725  -24.7401  -46.1073 H         1 UNK         0.3096 
     66 H66        15.8712  -24.6482  -47.3659 H         1 UNK         0.1121 
     67 H67        14.7096  -26.8302  -45.5541 H         1 UNK         0.0849 
     68 H68        14.3504  -26.7004  -47.2528 H         1 UNK         0.0849 
     69 H69        15.0269  -29.1905  -46.4534 H         1 UNK         0.0865 
     70 H70        16.4390  -29.7859  -47.2740 H         1 UNK         0.0865 
     71 H71        18.1316  -30.8837  -46.0278 H         1 UNK         0.1346 
     72 H72        18.0856  -30.7795  -41.7425 H         1 UNK         0.1412 
     73 H73        15.4041  -28.2918  -43.9621 H         1 UNK         0.1426 
     74 H74        16.4378  -29.5083  -40.5688 H         1 UNK         0.0716 
     75 H75        15.0826  -28.8498  -41.4504 H         1 UNK         0.0716 
     76 H76        18.7886  -28.4824  -40.7114 H         1 UNK         0.0695 
     77 H77        18.9884  -26.8201  -40.2274 H         1 UNK         0.0695 
     78 H78        18.9661  -27.8488  -43.1051 H         1 UNK         0.0983 
     79 H79        18.6229  -25.1693  -42.1638 H         1 UNK         0.3095 
     80 H80        18.0407  -23.5839  -43.5516 H         1 UNK         0.0454 
     81 H81        20.3547  -22.9227  -44.1901 H         1 UNK         0.0851 
     82 H82        19.1779  -22.0816  -45.1860 H         1 UNK         0.0851 
     83 H83        20.0789  -23.4459  -45.8454 H         1 UNK         0.0851 
     84 H84        17.8068  -24.2148  -46.4344 H         1 UNK         0.2976 
     85 H85        21.1184  -26.4807  -44.0210 H         1 UNK         0.3116 
     86 H86        23.3466  -26.3574  -44.2286 H         1 UNK         0.0646 
     87 H87        22.7521  -28.5959  -45.1067 H         1 UNK         0.0847 
     88 H88        23.0358  -29.3265  -43.5349 H         1 UNK         0.0847 
     89 H89        24.3730  -28.6189  -44.4402 H         1 UNK         0.0847 
     90 H90        24.3258  -28.8576  -42.1164 H         1 UNK         0.3040 
     91 H91        24.8609  -27.2603  -39.7761 H         1 UNK         0.1015 
     92 H92        27.3309  -27.7565  -39.8151 H         1 UNK         0.0786 
     93 H93        26.9023  -26.7523  -41.1883 H         1 UNK         0.0786 
     94 H94        27.1805  -28.4774  -41.4135 H         1 UNK         0.0786 
     95 H95        25.6976  -28.7513  -38.0708 H         1 UNK         0.3172 
     96 H96        24.1733  -31.0924  -37.8647 H         1 UNK         0.0595 
     97 H97        25.4728  -31.4517  -35.7567 H         1 UNK         0.0839 
     98 H98        24.9509  -29.7841  -35.9101 H         1 UNK         0.0839 
     99 H99        26.6279  -30.2204  -36.2455 H         1 UNK         0.0839 
    100 H100       27.3767  -30.7292  -39.2264 H         1 UNK         0.2998 
    101 H101       28.1554  -33.5082  -39.1400 H         1 UNK         0.0822 
    102 H102       29.8129  -31.6674  -39.3839 H         1 UNK         0.0787 
    103 H103       29.9014  -32.7538  -40.7597 H         1 UNK         0.0787 
    104 H104       29.0993  -31.1985  -40.9284 H         1 UNK         0.0787 
    105 H105       25.9418  -31.7168  -41.1700 H         1 UNK         0.3055 
    106 H106       25.9729  -33.8338  -43.2908 H         1 UNK         0.1106 
    107 H107       26.4573  -31.5662  -44.1390 H         1 UNK         0.0828 
    108 H108       24.8708  -32.0810  -44.6896 H         1 UNK         0.0828 
    109 H109       25.0074  -30.9269  -43.3709 H         1 UNK         0.0828 
    110 H110       23.7841  -31.7715  -41.3031 H         1 UNK         0.2931 
    111 H111       21.5248  -33.6429  -41.8632 H         1 UNK         0.0412 
    112 H112       23.7059  -33.3887  -39.3632 H         1 UNK         0.3472 
    113 H113       22.5914  -33.7368  -38.0719 H         1 UNK         0.3472 
    114 H114       21.5255  -30.6601  -41.2414 H         1 UNK         0.0970 
    115 H115       20.0807  -31.6255  -41.2650 H         1 UNK         0.0970 
    116 H116       19.0626  -32.7855  -43.1206 H         1 UNK         0.0612 
    117 H117       19.3673  -32.5232  -44.8139 H         1 UNK         0.0612 
@<TRIPOS>BOND
     1    1    2 1    
     2    1   62 1    
     3    1   63 1    
     4    1   64 1    
     5    2    3 2    
     6    2    4 am   BACKBONE|DICT|INTERRES
     7    4    5 1    
     8    4   65 1    
     9    5    6 1    
    10    5   25 1    
    11    5   66 1    
    12    6    7 1    
    13    6   67 1    
    14    6   68 1    
    15    7    8 1    
    16    8    9 1    
    17    8   69 1    
    18    8   70 1    
    19    9   10 ar   
    20    9   14 ar   
    21   10   11 ar   
    22   10   71 1    
    23   11   12 ar   
    24   11   61 1    
    25   12   13 ar   
    26   12   72 1    
    27   13   14 ar   
    28   13   15 1    
    29   14   73 1    
    30   15   16 1    
    31   15   74 1    
    32   15   75 1    
    33   16   17 1    
    34   17   18 1    
    35   17   76 1    
    36   17   77 1    
    37   18   19 1    
    38   18   27 1    
    39   18   78 1    
    40   19   20 am   BACKBONE|DICT|INTERRES
    41   19   79 1    
    42   20   21 2    
    43   20   22 1    
    44   22   23 1    
    45   22   24 1    
    46   22   80 1    
    47   23   81 1    
    48   23   82 1    
    49   23   83 1    
    50   24   25 am   BACKBONE|DICT|INTERRES
    51   24   84 1    
    52   25   26 2    
    53   27   28 2    
    54   27   29 am   BACKBONE|DICT|INTERRES
    55   29   30 1    
    56   29   85 1    
    57   30   31 1    
    58   30   32 1    
    59   30   86 1    
    60   31   87 1    
    61   31   88 1    
    62   31   89 1    
    63   32   33 2    
    64   32   34 am   BACKBONE|DICT|INTERRES
    65   34   35 1    
    66   34   90 1    
    67   35   36 1    
    68   35   37 1    
    69   35   91 1    
    70   36   92 1    
    71   36   93 1    
    72   36   94 1    
    73   37   38 2    
    74   37   39 am   BACKBONE|DICT|INTERRES
    75   39   40 1    
    76   39   95 1    
    77   40   41 1    
    78   40   42 1    
    79   40   96 1    
    80   41   97 1    
    81   41   98 1    
    82   41   99 1    
    83   42   43 2    
    84   42   44 am   BACKBONE|DICT|INTERRES
    85   44   45 1    
    86   44  100 1    
    87   45   46 1    
    88   45   47 1    
    89   45  101 1    
    90   46  102 1    
    91   46  103 1    
    92   46  104 1    
    93   47   48 2    
    94   47   49 am   BACKBONE|DICT|INTERRES
    95   49   50 1    
    96   49  105 1    
    97   50   51 1    
    98   50   52 1    
    99   50  106 1    
   100   51  107 1    
   101   51  108 1    
   102   51  109 1    
   103   52   53 2    
   104   52   54 am   BACKBONE|DICT|INTERRES
   105   54   55 1    
   106   54  110 1    
   107   55   56 1    
   108   55   59 1    
   109   55  111 1    
   110   56   57 am   BACKBONE|DICT|INTERRES
   111   56   58 2    
   112   57  112 1    
   113   57  113 1    
   114   59   60 1    
   115   59  114 1    
   116   59  115 1    
   117   60   61 1    
   118   61  116 1    
   119   61  117 1    
@<TRIPOS>SUBSTRUCTURE
     1 UNK         1 GROUP             0       ****    0 ROOT    
