@<TRIPOS>MOLECULE
3R8
117   119    1
SMALL
USER_CHARGES


@<TRIPOS>ATOM
      1 CA         14.3783  -23.4953  -45.4012 C.3       0 UNK        -0.2013 
      2 C          15.5382  -24.4781  -45.4451 C.2       0 UNK         0.4866 
      3 O          15.8309  -25.0367  -46.5036 O.2       0 UNK        -0.5176 
      4 N          16.2052  -24.6981  -44.3050 N.am      1 UNK        -0.4884 
      5 CA         17.3539  -25.5977  -44.1634 C.3       1 UNK         0.0853 
      6 C6         17.5220  -26.1037  -42.7068 C.3       10 UNK        -0.0849 
      7 S7         16.0832  -27.0527  -42.0948 S.3       10 UNK        -0.2776 
      8 C8         16.1086  -28.5699  -43.1121 C.3       10 UNK         0.0316 
      9 C9         17.4113  -29.3432  -42.9682 C.ar      10 UNK        -0.0863 
     10 C10        17.5897  -30.2354  -41.9066 C.ar      10 UNK        -0.1009 
     11 C11        18.7950  -30.9289  -41.7607 C.ar      10 UNK        -0.0712 
     12 C12        19.8292  -30.7164  -42.6770 C.ar      10 UNK        -0.0894 
     13 C13        19.6613  -29.8246  -43.7399 C.ar      10 UNK        -0.0745 
     14 C14        18.4437  -29.1590  -43.8929 C.ar      10 UNK        -0.0972 
     15 C15        20.8129  -29.5281  -44.6851 C.3       10 UNK         0.0209 
     16 S16        21.9464  -28.3637  -43.8800 S.3       10 UNK        -0.2568 
     17 C17        22.9152  -27.6689  -45.2626 C.3       10 UNK        -0.0983 
     18 CA         22.8181  -26.1223  -45.3835 C.3       3 UNK         0.0876 
     19 N          21.5038  -25.6990  -45.8814 N.am      3 UNK        -0.4424 
     20 C          21.2577  -24.5130  -46.4556 C.2       2 UNK         0.4918 
     21 O          22.1339  -23.6836  -46.7011 O.2       2 UNK        -0.4875 
     22 CA         19.7949  -24.1690  -46.7992 C.3       2 UNK         0.0481 
     23 CB         19.5386  -24.3877  -48.2988 C.3       2 UNK        -0.1831 
     24 N          18.7614  -24.8776  -46.0322 N.am      2 UNK        -0.4498 
     25 C          18.6306  -24.9169  -44.6981 C.2       1 UNK         0.5027 
     26 O          19.4493  -24.4330  -43.9143 O.2       1 UNK        -0.4969 
     27 C          23.2307  -25.4106  -44.0682 C.2       3 UNK         0.5005 
     28 O          24.3841  -25.5470  -43.6607 O.2       3 UNK        -0.5279 
     29 N          22.2856  -24.7161  -43.4089 N.am      4 UNK        -0.4463 
     30 CA         22.3818  -24.1138  -42.0724 C.3       4 UNK         0.0283 
     31 CB         23.4887  -23.0396  -42.0046 C.3       4 UNK        -0.1875 
     32 C          22.4866  -25.1722  -40.9555 C.2       4 UNK         0.4949 
     33 O          23.1651  -24.9437  -39.9533 O.2       4 UNK        -0.5039 
     34 N          21.8013  -26.3096  -41.1581 N.am      5 UNK        -0.4663 
     35 CA         21.7419  -27.4945  -40.2893 C.3       5 UNK         0.0242 
     36 CB         20.9887  -27.1756  -38.9810 C.3       5 UNK        -0.1982 
     37 C          23.1211  -28.1437  -40.0500 C.2       5 UNK         0.5017 
     38 O          23.3977  -28.6264  -38.9493 O.2       5 UNK        -0.5012 
     39 N          23.9677  -28.1440  -41.0886 N.am      6 UNK        -0.4439 
     40 CA         25.3167  -28.7102  -41.0953 C.3       6 UNK         0.0297 
     41 CB         26.1173  -28.0720  -42.2447 C.3       6 UNK        -0.2006 
     42 C          25.2877  -30.2480  -41.1800 C.2       6 UNK         0.4892 
     43 O          25.6434  -30.8152  -42.2150 O.2       6 UNK        -0.5089 
     44 N          24.8585  -30.8828  -40.0805 N.am      7 UNK        -0.4243 
     45 CA         24.6970  -32.3273  -39.8895 C.3       7 UNK         0.0196 
     46 CB         26.0680  -33.0438  -39.9029 C.3       7 UNK        -0.2007 
     47 C          23.6558  -32.9093  -40.8649 C.2       7 UNK         0.5020 
     48 O          22.5310  -32.4097  -40.8951 O.2       7 UNK        -0.5147 
     49 N          24.0257  -33.9591  -41.6123 N.am      8 UNK        -0.4734 
     50 CA         23.2366  -34.7227  -42.5926 C.3       8 UNK         0.0238 
     51 CB         22.7135  -33.8260  -43.7332 C.3       8 UNK        -0.1912 
     52 C          22.1045  -35.5644  -41.9759 C.2       8 UNK         0.5038 
     53 O          22.0128  -36.7549  -42.2791 O.2       8 UNK        -0.5046 
     54 N          21.2764  -34.9477  -41.1268 N.am      9 UNK        -0.4200 
     55 CA         20.2062  -35.6009  -40.3611 C.3       9 UNK         0.0839 
     56 C          20.7678  -36.5302  -39.2517 C.2       9 UNK         0.5513 
     57 N          20.0897  -37.6331  -38.9660 N.am      9 UNK        -0.7519 
     58 O          21.7829  -36.2398  -38.6215 O.2       9 UNK        -0.4960 
     59 C59        19.2136  -34.5716  -39.7618 C.3       10 UNK        -0.0876 
     60 S60        18.4097  -33.5597  -41.0503 S.3       10 UNK        -0.2414 
     61 C61        18.9904  -31.8958  -40.6059 C.3       10 UNK         0.0169 
     62 H62        13.4565  -23.9900  -45.7059 H         1 UNK         0.0903 
     63 H63        14.2287  -23.0850  -44.4027 H         1 UNK         0.0903 
     64 H64        14.5627  -22.6670  -46.0847 H         1 UNK         0.0903 
     65 H65        15.9301  -24.2087  -43.4648 H         1 UNK         0.3096 
     66 H66        17.1807  -26.4683  -44.7965 H         1 UNK         0.1121 
     67 H67        18.4168  -26.7197  -42.6046 H         1 UNK         0.0849 
     68 H68        17.6731  -25.2603  -42.0303 H         1 UNK         0.0849 
     69 H69        15.2744  -29.2048  -42.8092 H         1 UNK         0.0865 
     70 H70        15.9216  -28.3198  -44.1570 H         1 UNK         0.0865 
     71 H71        16.7931  -30.3864  -41.1908 H         1 UNK         0.1346 
     72 H72        20.7739  -31.2268  -42.5491 H         1 UNK         0.1412 
     73 H73        18.3150  -28.4729  -44.7168 H         1 UNK         0.1426 
     74 H74        20.4432  -29.1055  -45.6206 H         1 UNK         0.0716 
     75 H75        21.3460  -30.4457  -44.9385 H         1 UNK         0.0716 
     76 H76        22.6126  -28.1380  -46.2000 H         1 UNK         0.0695 
     77 H77        23.9559  -27.9627  -45.1150 H         1 UNK         0.0695 
     78 H78        23.5575  -25.8179  -46.1280 H         1 UNK         0.0983 
     79 H79        20.7349  -26.3310  -45.7182 H         1 UNK         0.3095 
     80 H80        19.6654  -23.1057  -46.5881 H         1 UNK         0.0454 
     81 H81        20.2649  -23.8443  -48.9051 H         1 UNK         0.0851 
     82 H82        18.5497  -24.0325  -48.5896 H         1 UNK         0.0851 
     83 H83        19.6108  -25.4415  -48.5706 H         1 UNK         0.0851 
     84 H84        17.9840  -25.2413  -46.5723 H         1 UNK         0.2976 
     85 H85        21.3574  -24.6638  -43.8217 H         1 UNK         0.3116 
     86 H86        21.4300  -23.6057  -41.9101 H         1 UNK         0.0646 
     87 H87        24.4859  -23.4766  -42.0596 H         1 UNK         0.0847 
     88 H88        23.3920  -22.3174  -42.8151 H         1 UNK         0.0847 
     89 H89        23.4334  -22.4839  -41.0679 H         1 UNK         0.0847 
     90 H90        21.2993  -26.3922  -42.0315 H         1 UNK         0.3040 
     91 H91        21.1543  -28.2407  -40.8278 H         1 UNK         0.1015 
     92 H92        20.8298  -28.0792  -38.3911 H         1 UNK         0.0786 
     93 H93        20.0072  -26.7469  -39.1837 H         1 UNK         0.0786 
     94 H94        21.5411  -26.4725  -38.3568 H         1 UNK         0.0786 
     95 H95        23.6444  -27.7469  -41.9604 H         1 UNK         0.3172 
     96 H96        25.8125  -28.4410  -40.1602 H         1 UNK         0.0595 
     97 H97        25.6553  -28.2617  -43.2144 H         1 UNK         0.0839 
     98 H98        27.1326  -28.4688  -42.2826 H         1 UNK         0.0839 
     99 H99        26.1972  -26.9920  -42.1192 H         1 UNK         0.0839 
    100 H100       24.4954  -30.2963  -39.3353 H         1 UNK         0.2998 
    101 H101       24.2722  -32.4545  -38.8926 H         1 UNK         0.0822 
    102 H102       25.9670  -34.0976  -39.6398 H         1 UNK         0.0787 
    103 H103       26.7446  -32.6011  -39.1718 H         1 UNK         0.0787 
    104 H104       26.5567  -32.9864  -40.8763 H         1 UNK         0.0787 
    105 H105       24.9710  -34.2926  -41.4811 H         1 UNK         0.3055 
    106 H106       23.9362  -35.4317  -43.0390 H         1 UNK         0.1106 
    107 H107       23.5223  -33.2606  -44.1962 H         1 UNK         0.0828 
    108 H108       22.2473  -34.4268  -44.5150 H         1 UNK         0.0828 
    109 H109       21.9643  -33.1146  -43.3868 H         1 UNK         0.0828 
    110 H110       21.4562  -33.9682  -40.9275 H         1 UNK         0.2931 
    111 H111       19.6494  -36.2252  -41.0634 H         1 UNK         0.0412 
    112 H112       20.4284  -38.2427  -38.2375 H         1 UNK         0.3472 
    113 H113       19.2509  -37.8752  -39.4711 H         1 UNK         0.3472 
    114 H114       18.4234  -35.0843  -39.2098 H         1 UNK         0.0970 
    115 H115       19.7173  -33.9296  -39.0366 H         1 UNK         0.0970 
    116 H116       18.4506  -31.5484  -39.7238 H         1 UNK         0.0612 
    117 H117       20.0436  -31.9304  -40.3280 H         1 UNK         0.0612 
@<TRIPOS>BOND
     1    1    2 1    
     2    1   62 1    
     3    1   63 1    
     4    1   64 1    
     5    2    3 2    
     6    2    4 am   BACKBONE|DICT|INTERRES
     7    4    5 1    
     8    4   65 1    
     9    5    6 1    
    10    5   25 1    
    11    5   66 1    
    12    6    7 1    
    13    6   67 1    
    14    6   68 1    
    15    7    8 1    
    16    8    9 1    
    17    8   69 1    
    18    8   70 1    
    19    9   10 ar   
    20    9   14 ar   
    21   10   11 ar   
    22   10   71 1    
    23   11   12 ar   
    24   11   61 1    
    25   12   13 ar   
    26   12   72 1    
    27   13   14 ar   
    28   13   15 1    
    29   14   73 1    
    30   15   16 1    
    31   15   74 1    
    32   15   75 1    
    33   16   17 1    
    34   17   18 1    
    35   17   76 1    
    36   17   77 1    
    37   18   19 1    
    38   18   27 1    
    39   18   78 1    
    40   19   20 am   BACKBONE|DICT|INTERRES
    41   19   79 1    
    42   20   21 2    
    43   20   22 1    
    44   22   23 1    
    45   22   24 1    
    46   22   80 1    
    47   23   81 1    
    48   23   82 1    
    49   23   83 1    
    50   24   25 am   BACKBONE|DICT|INTERRES
    51   24   84 1    
    52   25   26 2    
    53   27   28 2    
    54   27   29 am   BACKBONE|DICT|INTERRES
    55   29   30 1    
    56   29   85 1    
    57   30   31 1    
    58   30   32 1    
    59   30   86 1    
    60   31   87 1    
    61   31   88 1    
    62   31   89 1    
    63   32   33 2    
    64   32   34 am   BACKBONE|DICT|INTERRES
    65   34   35 1    
    66   34   90 1    
    67   35   36 1    
    68   35   37 1    
    69   35   91 1    
    70   36   92 1    
    71   36   93 1    
    72   36   94 1    
    73   37   38 2    
    74   37   39 am   BACKBONE|DICT|INTERRES
    75   39   40 1    
    76   39   95 1    
    77   40   41 1    
    78   40   42 1    
    79   40   96 1    
    80   41   97 1    
    81   41   98 1    
    82   41   99 1    
    83   42   43 2    
    84   42   44 am   BACKBONE|DICT|INTERRES
    85   44   45 1    
    86   44  100 1    
    87   45   46 1    
    88   45   47 1    
    89   45  101 1    
    90   46  102 1    
    91   46  103 1    
    92   46  104 1    
    93   47   48 2    
    94   47   49 am   BACKBONE|DICT|INTERRES
    95   49   50 1    
    96   49  105 1    
    97   50   51 1    
    98   50   52 1    
    99   50  106 1    
   100   51  107 1    
   101   51  108 1    
   102   51  109 1    
   103   52   53 2    
   104   52   54 am   BACKBONE|DICT|INTERRES
   105   54   55 1    
   106   54  110 1    
   107   55   56 1    
   108   55   59 1    
   109   55  111 1    
   110   56   57 am   BACKBONE|DICT|INTERRES
   111   56   58 2    
   112   57  112 1    
   113   57  113 1    
   114   59   60 1    
   115   59  114 1    
   116   59  115 1    
   117   60   61 1    
   118   61  116 1    
   119   61  117 1    
@<TRIPOS>SUBSTRUCTURE
     1 UNK         1 GROUP             0       ****    0 ROOT    
