@<TRIPOS>MOLECULE
3R8
117   119    1
SMALL
USER_CHARGES


@<TRIPOS>ATOM
      1 CA         14.5728  -23.2218  -44.6189 C.3       0 UNK        -0.2013 
      2 C          15.5601  -24.2313  -44.0521 C.2       0 UNK         0.4866 
      3 O          16.0291  -24.0544  -42.9278 O.2       0 UNK        -0.5176 
      4 N          15.8722  -25.2800  -44.8277 N.am      1 UNK        -0.4884 
      5 CA         16.7936  -26.3786  -44.4974 C.3       1 UNK         0.0853 
      6 C6         16.2944  -27.2953  -43.3457 C.3       10 UNK        -0.0849 
      7 S7         14.6630  -28.0627  -43.6506 S.3       10 UNK        -0.2776 
      8 C8         14.9667  -29.1827  -45.0626 C.3       10 UNK         0.0316 
      9 C9         16.2205  -30.0316  -44.8960 C.ar      10 UNK        -0.0863 
     10 C10        16.2726  -31.0347  -43.9220 C.ar      10 UNK        -0.1009 
     11 C11        17.4328  -31.7962  -43.7544 C.ar      10 UNK        -0.0712 
     12 C12        18.5262  -31.5726  -44.5922 C.ar      10 UNK        -0.0894 
     13 C13        18.5100  -30.5380  -45.5330 C.ar      10 UNK        -0.0745 
     14 C14        17.3411  -29.7914  -45.6996 C.ar      10 UNK        -0.0972 
     15 C15        19.7611  -30.1939  -46.3363 C.3       10 UNK         0.0209 
     16 S16        21.2503  -30.2167  -45.2837 S.3       10 UNK        -0.2568 
     17 C17        22.2362  -28.7893  -45.8510 C.3       10 UNK        -0.0983 
     18 CA         22.2837  -27.5610  -44.8941 C.3       3 UNK         0.0876 
     19 N          21.2209  -26.5924  -45.1845 N.am      3 UNK        -0.4424 
     20 C          21.2813  -25.2907  -44.8657 C.2       2 UNK         0.4918 
     21 O          22.2544  -24.7718  -44.3173 O.2       2 UNK        -0.4875 
     22 CA         20.0521  -24.4151  -45.1836 C.3       2 UNK         0.0481 
     23 CB         20.2704  -23.6548  -46.5012 C.3       2 UNK        -0.1831 
     24 N          18.7603  -25.1139  -45.2394 N.am      2 UNK        -0.4498 
     25 C          18.2335  -25.8707  -44.2644 C.2       1 UNK         0.5027 
     26 O          18.8371  -26.1580  -43.2303 O.2       1 UNK        -0.4969 
     27 C          22.3927  -27.9239  -43.3896 C.2       3 UNK         0.5005 
     28 O          23.4061  -28.5007  -42.9944 O.2       3 UNK        -0.5279 
     29 N          21.3889  -27.5652  -42.5674 N.am      4 UNK        -0.4463 
     30 CA         21.3182  -27.8461  -41.1246 C.3       4 UNK         0.0283 
     31 CB         19.9249  -27.4668  -40.5959 C.3       4 UNK        -0.1875 
     32 C          22.4125  -27.1810  -40.2667 C.2       4 UNK         0.4949 
     33 O          22.5300  -27.5064  -39.0856 O.2       4 UNK        -0.5039 
     34 N          23.2095  -26.2836  -40.8623 N.am      5 UNK        -0.4663 
     35 CA         24.4582  -25.7756  -40.2901 C.3       5 UNK         0.0242 
     36 CB         24.9389  -24.5806  -41.1292 C.3       5 UNK        -0.1982 
     37 C          25.5612  -26.8517  -40.1988 C.2       5 UNK         0.5017 
     38 O          26.4901  -26.6855  -39.4071 O.2       5 UNK        -0.5012 
     39 N          25.4454  -27.9201  -40.9995 N.am      6 UNK        -0.4439 
     40 CA         26.3200  -29.0884  -41.0028 C.3       6 UNK         0.0297 
     41 CB         26.7686  -29.3511  -42.4519 C.3       6 UNK        -0.2006 
     42 C          25.5717  -30.3085  -40.4429 C.2       6 UNK         0.4892 
     43 O          24.3483  -30.2808  -40.2758 O.2       6 UNK        -0.5089 
     44 N          26.3254  -31.3934  -40.2160 N.am      7 UNK        -0.4243 
     45 CA         25.8544  -32.6888  -39.7035 C.3       7 UNK         0.0196 
     46 CB         27.0742  -33.5900  -39.4464 C.3       7 UNK        -0.2007 
     47 C          24.8198  -33.4170  -40.5888 C.2       7 UNK         0.5020 
     48 O          24.2565  -34.4201  -40.1507 O.2       7 UNK        -0.5147 
     49 N          24.5692  -32.9011  -41.8001 N.am      8 UNK        -0.4734 
     50 CA         23.5123  -33.3337  -42.7168 C.3       8 UNK         0.0238 
     51 CB         23.6809  -32.5899  -44.0505 C.3       8 UNK        -0.1912 
     52 C          22.0860  -33.1407  -42.1626 C.2       8 UNK         0.5038 
     53 O          21.1854  -33.8643  -42.5895 O.2       8 UNK        -0.5046 
     54 N          21.9066  -32.2066  -41.2180 N.am      9 UNK        -0.4200 
     55 CA         20.6644  -32.0311  -40.4496 C.3       9 UNK         0.0839 
     56 C          20.8743  -31.3982  -39.0450 C.2       9 UNK         0.5513 
     57 N          22.0368  -30.8526  -38.7061 N.am      9 UNK        -0.7519 
     58 O          19.9618  -31.4214  -38.2239 O.2       9 UNK        -0.4960 
     59 C59        19.5467  -31.3182  -41.2650 C.3       10 UNK        -0.0876 
     60 S60        17.8874  -32.0525  -41.0263 S.3       10 UNK        -0.2414 
     61 C61        17.5356  -32.8284  -42.6406 C.3       10 UNK         0.0169 
     62 H62        13.6988  -23.1495  -43.9722 H         1 UNK         0.0903 
     63 H63        14.2330  -23.4970  -45.6172 H         1 UNK         0.0903 
     64 H64        15.0355  -22.2370  -44.6778 H         1 UNK         0.0903 
     65 H65        15.4350  -25.3504  -45.7365 H         1 UNK         0.3096 
     66 H66        16.8553  -26.9893  -45.3964 H         1 UNK         0.1121 
     67 H67        17.0133  -28.0925  -43.1462 H         1 UNK         0.0849 
     68 H68        16.2269  -26.7282  -42.4157 H         1 UNK         0.0849 
     69 H69        15.0184  -28.5918  -45.9781 H         1 UNK         0.0865 
     70 H70        14.1037  -29.8396  -45.1810 H         1 UNK         0.0865 
     71 H71        15.4221  -31.2010  -43.2747 H         1 UNK         0.1346 
     72 H72        19.4208  -32.1670  -44.4632 H         1 UNK         0.1412 
     73 H73        17.3127  -29.0093  -46.4451 H         1 UNK         0.1426 
     74 H74        19.8819  -30.9119  -47.1482 H         1 UNK         0.0716 
     75 H75        19.6557  -29.2104  -46.7960 H         1 UNK         0.0716 
     76 H76        23.2531  -29.1652  -45.9761 H         1 UNK         0.0695 
     77 H77        21.9231  -28.4917  -46.8528 H         1 UNK         0.0695 
     78 H78        23.2226  -27.0500  -45.1213 H         1 UNK         0.0983 
     79 H79        20.3852  -26.9497  -45.6214 H         1 UNK         0.3095 
     80 H80        19.9750  -23.6792  -44.3807 H         1 UNK         0.0454 
     81 H81        19.4752  -22.9310  -46.6806 H         1 UNK         0.0851 
     82 H82        20.3102  -24.3311  -47.3560 H         1 UNK         0.0851 
     83 H83        21.2093  -23.0993  -46.4821 H         1 UNK         0.0851 
     84 H84        18.1870  -24.9225  -46.0488 H         1 UNK         0.2976 
     85 H85        20.5903  -27.0739  -42.9591 H         1 UNK         0.3116 
     86 H86        21.4504  -28.9226  -41.0061 H         1 UNK         0.0646 
     87 H87        19.1306  -27.9444  -41.1691 H         1 UNK         0.0847 
     88 H88        19.8038  -27.7750  -39.5564 H         1 UNK         0.0847 
     89 H89        19.7613  -26.3893  -40.6378 H         1 UNK         0.0847 
     90 H90        23.0236  -26.0542  -41.8285 H         1 UNK         0.3040 
     91 H91        24.2547  -25.4286  -39.2745 H         1 UNK         0.1015 
     92 H92        24.1956  -23.7832  -41.1470 H         1 UNK         0.0786 
     93 H93        25.1464  -24.8692  -42.1606 H         1 UNK         0.0786 
     94 H94        25.8564  -24.1579  -40.7172 H         1 UNK         0.0786 
     95 H95        24.6133  -28.0131  -41.5788 H         1 UNK         0.3172 
     96 H96        27.2018  -28.9118  -40.3838 H         1 UNK         0.0595 
     97 H97        27.2702  -28.4794  -42.8726 H         1 UNK         0.0839 
     98 H98        25.9243  -29.5917  -43.0997 H         1 UNK         0.0839 
     99 H99        27.4720  -30.1824  -42.5091 H         1 UNK         0.0839 
    100 H100       27.3165  -31.3284  -40.4000 H         1 UNK         0.2998 
    101 H101       25.3632  -32.4983  -38.7469 H         1 UNK         0.0822 
    102 H102       27.7672  -33.1307  -38.7412 H         1 UNK         0.0787 
    103 H103       26.7727  -34.5479  -39.0199 H         1 UNK         0.0787 
    104 H104       27.6198  -33.8012  -40.3671 H         1 UNK         0.0787 
    105 H105       25.0814  -32.0729  -42.0653 H         1 UNK         0.3055 
    106 H106       23.6435  -34.4030  -42.8967 H         1 UNK         0.1106 
    107 H107       23.6183  -31.5088  -43.9176 H         1 UNK         0.0828 
    108 H108       24.6409  -32.8162  -44.5145 H         1 UNK         0.0828 
    109 H109       22.9039  -32.8774  -44.7605 H         1 UNK         0.0828 
    110 H110       22.6998  -31.6492  -40.9285 H         1 UNK         0.2931 
    111 H111       20.3246  -33.0450  -40.2275 H         1 UNK         0.0412 
    112 H112       22.8128  -30.7313  -39.3494 H         1 UNK         0.3472 
    113 H113       22.1169  -30.4558  -37.7837 H         1 UNK         0.3472 
    114 H114       19.4823  -30.2624  -41.0070 H         1 UNK         0.0970 
    115 H115       19.7962  -31.3236  -42.3227 H         1 UNK         0.0970 
    116 H116       16.5989  -33.3829  -42.5699 H         1 UNK         0.0612 
    117 H117       18.3121  -33.5627  -42.8618 H         1 UNK         0.0612 
@<TRIPOS>BOND
     1    1    2 1    
     2    1   62 1    
     3    1   63 1    
     4    1   64 1    
     5    2    3 2    
     6    2    4 am   BACKBONE|DICT|INTERRES
     7    4    5 1    
     8    4   65 1    
     9    5    6 1    
    10    5   25 1    
    11    5   66 1    
    12    6    7 1    
    13    6   67 1    
    14    6   68 1    
    15    7    8 1    
    16    8    9 1    
    17    8   69 1    
    18    8   70 1    
    19    9   10 ar   
    20    9   14 ar   
    21   10   11 ar   
    22   10   71 1    
    23   11   12 ar   
    24   11   61 1    
    25   12   13 ar   
    26   12   72 1    
    27   13   14 ar   
    28   13   15 1    
    29   14   73 1    
    30   15   16 1    
    31   15   74 1    
    32   15   75 1    
    33   16   17 1    
    34   17   18 1    
    35   17   76 1    
    36   17   77 1    
    37   18   19 1    
    38   18   27 1    
    39   18   78 1    
    40   19   20 am   BACKBONE|DICT|INTERRES
    41   19   79 1    
    42   20   21 2    
    43   20   22 1    
    44   22   23 1    
    45   22   24 1    
    46   22   80 1    
    47   23   81 1    
    48   23   82 1    
    49   23   83 1    
    50   24   25 am   BACKBONE|DICT|INTERRES
    51   24   84 1    
    52   25   26 2    
    53   27   28 2    
    54   27   29 am   BACKBONE|DICT|INTERRES
    55   29   30 1    
    56   29   85 1    
    57   30   31 1    
    58   30   32 1    
    59   30   86 1    
    60   31   87 1    
    61   31   88 1    
    62   31   89 1    
    63   32   33 2    
    64   32   34 am   BACKBONE|DICT|INTERRES
    65   34   35 1    
    66   34   90 1    
    67   35   36 1    
    68   35   37 1    
    69   35   91 1    
    70   36   92 1    
    71   36   93 1    
    72   36   94 1    
    73   37   38 2    
    74   37   39 am   BACKBONE|DICT|INTERRES
    75   39   40 1    
    76   39   95 1    
    77   40   41 1    
    78   40   42 1    
    79   40   96 1    
    80   41   97 1    
    81   41   98 1    
    82   41   99 1    
    83   42   43 2    
    84   42   44 am   BACKBONE|DICT|INTERRES
    85   44   45 1    
    86   44  100 1    
    87   45   46 1    
    88   45   47 1    
    89   45  101 1    
    90   46  102 1    
    91   46  103 1    
    92   46  104 1    
    93   47   48 2    
    94   47   49 am   BACKBONE|DICT|INTERRES
    95   49   50 1    
    96   49  105 1    
    97   50   51 1    
    98   50   52 1    
    99   50  106 1    
   100   51  107 1    
   101   51  108 1    
   102   51  109 1    
   103   52   53 2    
   104   52   54 am   BACKBONE|DICT|INTERRES
   105   54   55 1    
   106   54  110 1    
   107   55   56 1    
   108   55   59 1    
   109   55  111 1    
   110   56   57 am   BACKBONE|DICT|INTERRES
   111   56   58 2    
   112   57  112 1    
   113   57  113 1    
   114   59   60 1    
   115   59  114 1    
   116   59  115 1    
   117   60   61 1    
   118   61  116 1    
   119   61  117 1    
@<TRIPOS>SUBSTRUCTURE
     1 UNK         1 GROUP             0       ****    0 ROOT    
