@<TRIPOS>MOLECULE
3R8
117   119    1
SMALL
USER_CHARGES


@<TRIPOS>ATOM
      1 CA         16.5822  -21.5999  -43.4632 C.3       0 UNK        -0.2013 
      2 C          17.0536  -22.5007  -44.5947 C.2       0 UNK         0.4866 
      3 O          17.4651  -22.0040  -45.6432 O.2       0 UNK        -0.5176 
      4 N          16.9998  -23.8235  -44.3914 N.am      1 UNK        -0.4884 
      5 CA         17.4167  -24.8423  -45.3646 C.3       1 UNK         0.0853 
      6 C6         16.7399  -26.2121  -45.0913 C.3       10 UNK        -0.0849 
      7 S7         16.9674  -26.8352  -43.3874 S.3       10 UNK        -0.2776 
      8 C8         15.9352  -28.3407  -43.4111 C.3       10 UNK         0.0316 
      9 C9         16.7873  -29.6025  -43.4322 C.ar      10 UNK        -0.0863 
     10 C10        16.8796  -30.4163  -42.2970 C.ar      10 UNK        -0.1009 
     11 C11        17.6943  -31.5530  -42.3018 C.ar      10 UNK        -0.0712 
     12 C12        18.4144  -31.8755  -43.4542 C.ar      10 UNK        -0.0894 
     13 C13        18.3301  -31.0733  -44.5927 C.ar      10 UNK        -0.0745 
     14 C14        17.4965  -29.9511  -44.5846 C.ar      10 UNK        -0.0972 
     15 C15        19.1672  -31.4110  -45.8159 C.3       10 UNK         0.0209 
     16 S16        20.9033  -30.9043  -45.5925 S.3       10 UNK        -0.2568 
     17 C17        20.7576  -29.0873  -45.6391 C.3       10 UNK        -0.0983 
     18 CA         21.5864  -28.2819  -44.6049 C.3       3 UNK         0.0876 
     19 N          21.2570  -26.8638  -44.7599 N.am      3 UNK        -0.4424 
     20 C          21.8217  -25.8197  -44.1502 C.2       2 UNK         0.4918 
     21 O          22.7796  -25.9178  -43.3866 O.2       2 UNK        -0.4875 
     22 CA         21.1810  -24.4376  -44.3867 C.3       2 UNK         0.0481 
     23 CB         21.8560  -23.7173  -45.5685 C.3       2 UNK        -0.1831 
     24 N          19.7120  -24.4445  -44.5256 N.am      2 UNK        -0.4498 
     25 C          18.9496  -24.9810  -45.4946 C.2       1 UNK         0.5027 
     26 O          19.4094  -25.6027  -46.4534 O.2       1 UNK        -0.4969 
     27 C          21.4468  -28.7523  -43.1332 C.2       3 UNK         0.5005 
     28 O          22.2996  -29.5033  -42.6518 O.2       3 UNK        -0.5279 
     29 N          20.4384  -28.2265  -42.4166 N.am      4 UNK        -0.4463 
     30 CA         20.2661  -28.4071  -40.9713 C.3       4 UNK         0.0283 
     31 CB         18.8977  -27.8690  -40.5269 C.3       4 UNK        -0.1875 
     32 C          21.3737  -27.7363  -40.1436 C.2       4 UNK         0.4949 
     33 O          21.8847  -28.3511  -39.2091 O.2       4 UNK        -0.5039 
     34 N          21.7348  -26.4953  -40.5029 N.am      5 UNK        -0.4663 
     35 CA         22.7803  -25.7072  -39.8373 C.3       5 UNK         0.0242 
     36 CB         22.7101  -24.2460  -40.3098 C.3       5 UNK        -0.1982 
     37 C          24.1875  -26.2880  -40.0540 C.2       5 UNK         0.5017 
     38 O          25.0116  -26.2447  -39.1406 O.2       5 UNK        -0.5012 
     39 N          24.4132  -26.8652  -41.2415 N.am      6 UNK        -0.4439 
     40 CA         25.5981  -27.6479  -41.5991 C.3       6 UNK         0.0297 
     41 CB         25.6262  -27.8290  -43.1260 C.3       6 UNK        -0.2006 
     42 C          25.6699  -29.0202  -40.8976 C.2       6 UNK         0.4892 
     43 O          26.7213  -29.6584  -40.9595 O.2       6 UNK        -0.5089 
     44 N          24.5665  -29.4499  -40.2631 N.am      7 UNK        -0.4243 
     45 CA         24.3635  -30.7300  -39.5773 C.3       7 UNK         0.0196 
     46 CB         25.2719  -30.8435  -38.3343 C.3       7 UNK        -0.2007 
     47 C          24.4789  -31.9352  -40.5281 C.2       7 UNK         0.5020 
     48 O          25.0150  -32.9760  -40.1449 O.2       7 UNK        -0.5147 
     49 N          23.9606  -31.7793  -41.7535 N.am      8 UNK        -0.4734 
     50 CA         23.9790  -32.8027  -42.8029 C.3       8 UNK         0.0238 
     51 CB         24.1739  -32.1091  -44.1616 C.3       8 UNK        -0.1912 
     52 C          22.7368  -33.7172  -42.7787 C.2       8 UNK         0.5038 
     53 O          22.5535  -34.5055  -43.7072 O.2       8 UNK        -0.5046 
     54 N          21.9153  -33.6084  -41.7258 N.am      9 UNK        -0.4200 
     55 CA         20.7533  -34.4612  -41.4363 C.3       9 UNK         0.0839 
     56 C          21.1239  -35.9630  -41.2944 C.2       9 UNK         0.5513 
     57 N          20.2739  -36.8596  -41.7751 N.am      9 UNK        -0.7519 
     58 O          22.1453  -36.3194  -40.7113 O.2       9 UNK        -0.4960 
     59 C59        19.9970  -33.9793  -40.1697 C.3       10 UNK        -0.0876 
     60 S60        19.4388  -32.2450  -40.2756 S.3       10 UNK        -0.2414 
     61 C61        17.8092  -32.4332  -41.0672 C.3       10 UNK         0.0169 
     62 H62        17.3906  -20.9416  -43.1457 H         1 UNK         0.0903 
     63 H63        15.7506  -20.9808  -43.7989 H         1 UNK         0.0903 
     64 H64        16.2505  -22.1721  -42.5970 H         1 UNK         0.0903 
     65 H65        16.6493  -24.1868  -43.5148 H         1 UNK         0.3096 
     66 H66        17.0752  -24.5118  -46.3486 H         1 UNK         0.1121 
     67 H67        15.6679  -26.1154  -45.2709 H         1 UNK         0.0849 
     68 H68        17.0872  -26.9660  -45.8003 H         1 UNK         0.0849 
     69 H69        15.2921  -28.3320  -42.5298 H         1 UNK         0.0865 
     70 H70        15.2646  -28.3358  -44.2715 H         1 UNK         0.0865 
     71 H71        16.3306  -30.1563  -41.4023 H         1 UNK         0.1346 
     72 H72        19.0632  -32.7387  -43.4608 H         1 UNK         0.1412 
     73 H73        17.4236  -29.3284  -45.4649 H         1 UNK         0.1426 
     74 H74        19.1331  -32.4866  -45.9954 H         1 UNK         0.0716 
     75 H75        18.7601  -30.9376  -46.7108 H         1 UNK         0.0716 
     76 H76        21.0451  -28.7758  -46.6446 H         1 UNK         0.0695 
     77 H77        19.7092  -28.8093  -45.5487 H         1 UNK         0.0695 
     78 H78        22.6408  -28.3956  -44.8640 H         1 UNK         0.0983 
     79 H79        20.5111  -26.6450  -45.4151 H         1 UNK         0.3095 
     80 H80        21.3834  -23.8491  -43.4906 H         1 UNK         0.0454 
     81 H81        21.7222  -24.2548  -46.5076 H         1 UNK         0.0851 
     82 H82        21.4578  -22.7111  -45.6987 H         1 UNK         0.0851 
     83 H83        22.9298  -23.6215  -45.4022 H         1 UNK         0.0851 
     84 H84        19.2117  -23.9843  -43.7778 H         1 UNK         0.2976 
     85 H85        19.7656  -27.6396  -42.8883 H         1 UNK         0.3116 
     86 H86        20.2967  -29.4779  -40.7647 H         1 UNK         0.0646 
     87 H87        18.7538  -28.0083  -39.4546 H         1 UNK         0.0847 
     88 H88        18.0846  -28.3895  -41.0254 H         1 UNK         0.0847 
     89 H89        18.7890  -26.8041  -40.7354 H         1 UNK         0.0847 
     90 H90        21.2906  -26.0760  -41.3059 H         1 UNK         0.3040 
     91 H91        22.5812  -25.7275  -38.7633 H         1 UNK         0.1015 
     92 H92        21.7286  -23.8123  -40.1176 H         1 UNK         0.0786 
     93 H93        22.9179  -24.1509  -41.3757 H         1 UNK         0.0786 
     94 H94        23.4423  -23.6332  -39.7822 H         1 UNK         0.0786 
     95 H95        23.7007  -26.7611  -41.9602 H         1 UNK         0.3172 
     96 H96        26.4824  -27.0803  -41.3028 H         1 UNK         0.0595 
     97 H97        26.5300  -28.3520  -43.4417 H         1 UNK         0.0839 
     98 H98        25.6104  -26.8688  -43.6420 H         1 UNK         0.0839 
     99 H99        24.7742  -28.4125  -43.4765 H         1 UNK         0.0839 
    100 H100       23.7538  -28.8461  -40.2780 H         1 UNK         0.2998 
    101 H101       23.3302  -30.7236  -39.2271 H         1 UNK         0.0822 
    102 H102       25.1572  -29.9788  -37.6807 H         1 UNK         0.0787 
    103 H103       25.0216  -31.7280  -37.7473 H         1 UNK         0.0787 
    104 H104       26.3248  -30.9222  -38.6062 H         1 UNK         0.0787 
    105 H105       23.4901  -30.9063  -41.9870 H         1 UNK         0.3055 
    106 H106       24.8370  -33.4612  -42.6498 H         1 UNK         0.1106 
    107 H107       24.1507  -32.8232  -44.9856 H         1 UNK         0.0828 
    108 H108       23.3997  -31.3672  -44.3455 H         1 UNK         0.0828 
    109 H109       25.1355  -31.5977  -44.2054 H         1 UNK         0.0828 
    110 H110       22.1467  -32.9261  -41.0215 H         1 UNK         0.2931 
    111 H111       20.0798  -34.3701  -42.2887 H         1 UNK         0.0412 
    112 H112       20.4880  -37.8400  -41.6769 H         1 UNK         0.3472 
    113 H113       19.4281  -36.5781  -42.2460 H         1 UNK         0.3472 
    114 H114       20.6408  -34.0677  -39.2924 H         1 UNK         0.0970 
    115 H115       19.1346  -34.6169  -39.9652 H         1 UNK         0.0970 
    116 H116       17.0342  -32.1867  -40.3401 H         1 UNK         0.0612 
    117 H117       17.6383  -33.4703  -41.3581 H         1 UNK         0.0612 
@<TRIPOS>BOND
     1    1    2 1    
     2    1   62 1    
     3    1   63 1    
     4    1   64 1    
     5    2    3 2    
     6    2    4 am   BACKBONE|DICT|INTERRES
     7    4    5 1    
     8    4   65 1    
     9    5    6 1    
    10    5   25 1    
    11    5   66 1    
    12    6    7 1    
    13    6   67 1    
    14    6   68 1    
    15    7    8 1    
    16    8    9 1    
    17    8   69 1    
    18    8   70 1    
    19    9   10 ar   
    20    9   14 ar   
    21   10   11 ar   
    22   10   71 1    
    23   11   12 ar   
    24   11   61 1    
    25   12   13 ar   
    26   12   72 1    
    27   13   14 ar   
    28   13   15 1    
    29   14   73 1    
    30   15   16 1    
    31   15   74 1    
    32   15   75 1    
    33   16   17 1    
    34   17   18 1    
    35   17   76 1    
    36   17   77 1    
    37   18   19 1    
    38   18   27 1    
    39   18   78 1    
    40   19   20 am   BACKBONE|DICT|INTERRES
    41   19   79 1    
    42   20   21 2    
    43   20   22 1    
    44   22   23 1    
    45   22   24 1    
    46   22   80 1    
    47   23   81 1    
    48   23   82 1    
    49   23   83 1    
    50   24   25 am   BACKBONE|DICT|INTERRES
    51   24   84 1    
    52   25   26 2    
    53   27   28 2    
    54   27   29 am   BACKBONE|DICT|INTERRES
    55   29   30 1    
    56   29   85 1    
    57   30   31 1    
    58   30   32 1    
    59   30   86 1    
    60   31   87 1    
    61   31   88 1    
    62   31   89 1    
    63   32   33 2    
    64   32   34 am   BACKBONE|DICT|INTERRES
    65   34   35 1    
    66   34   90 1    
    67   35   36 1    
    68   35   37 1    
    69   35   91 1    
    70   36   92 1    
    71   36   93 1    
    72   36   94 1    
    73   37   38 2    
    74   37   39 am   BACKBONE|DICT|INTERRES
    75   39   40 1    
    76   39   95 1    
    77   40   41 1    
    78   40   42 1    
    79   40   96 1    
    80   41   97 1    
    81   41   98 1    
    82   41   99 1    
    83   42   43 2    
    84   42   44 am   BACKBONE|DICT|INTERRES
    85   44   45 1    
    86   44  100 1    
    87   45   46 1    
    88   45   47 1    
    89   45  101 1    
    90   46  102 1    
    91   46  103 1    
    92   46  104 1    
    93   47   48 2    
    94   47   49 am   BACKBONE|DICT|INTERRES
    95   49   50 1    
    96   49  105 1    
    97   50   51 1    
    98   50   52 1    
    99   50  106 1    
   100   51  107 1    
   101   51  108 1    
   102   51  109 1    
   103   52   53 2    
   104   52   54 am   BACKBONE|DICT|INTERRES
   105   54   55 1    
   106   54  110 1    
   107   55   56 1    
   108   55   59 1    
   109   55  111 1    
   110   56   57 am   BACKBONE|DICT|INTERRES
   111   56   58 2    
   112   57  112 1    
   113   57  113 1    
   114   59   60 1    
   115   59  114 1    
   116   59  115 1    
   117   60   61 1    
   118   61  116 1    
   119   61  117 1    
@<TRIPOS>SUBSTRUCTURE
     1 UNK         1 GROUP             0       ****    0 ROOT    
