@<TRIPOS>MOLECULE
3R8
117   119    1
SMALL
USER_CHARGES


@<TRIPOS>ATOM
      1 CA         17.1634  -24.5674  -47.9086 C.3       0 UNK        -0.2013 
      2 C          18.0898  -25.7036  -47.5029 C.2       0 UNK         0.4866 
      3 O          19.2756  -25.6732  -47.8316 O.2       0 UNK        -0.5176 
      4 N          17.5569  -26.7063  -46.7926 N.am      1 UNK        -0.4884 
      5 CA         18.2968  -27.8684  -46.2819 C.3       1 UNK         0.0853 
      6 C6         17.3514  -29.0350  -45.9010 C.3       10 UNK        -0.0849 
      7 S7         15.9411  -28.5593  -44.8464 S.3       10 UNK        -0.2776 
      8 C8         15.2653  -30.2007  -44.4348 C.3       10 UNK         0.0316 
      9 C9         16.1070  -30.9073  -43.3821 C.ar      10 UNK        -0.0863 
     10 C10        16.8592  -32.0445  -43.7023 C.ar      10 UNK        -0.1009 
     11 C11        17.6239  -32.6851  -42.7204 C.ar      10 UNK        -0.0712 
     12 C12        17.6314  -32.1805  -41.4172 C.ar      10 UNK        -0.0894 
     13 C13        16.9002  -31.0343  -41.0934 C.ar      10 UNK        -0.0745 
     14 C14        16.1270  -30.4130  -42.0752 C.ar      10 UNK        -0.0972 
     15 C15        16.9841  -30.4379  -39.6961 C.3       10 UNK         0.0209 
     16 S16        17.9867  -28.9146  -39.6740 S.3       10 UNK        -0.2568 
     17 C17        19.5854  -29.5315  -40.3064 C.3       10 UNK        -0.0983 
     18 CA         20.5592  -28.4239  -40.7633 C.3       3 UNK         0.0876 
     19 N          19.9553  -27.4944  -41.7308 N.am      3 UNK        -0.4424 
     20 C          20.6475  -26.6209  -42.4738 C.2       2 UNK         0.4918 
     21 O          21.8703  -26.4958  -42.3922 O.2       2 UNK        -0.4875 
     22 CA         19.8409  -25.7327  -43.4431 C.3       2 UNK         0.0481 
     23 CB         20.7517  -24.7811  -44.2464 C.3       2 UNK        -0.1831 
     24 N          18.9654  -26.4624  -44.3708 N.am      2 UNK        -0.4498 
     25 C          19.2875  -27.5076  -45.1518 C.2       1 UNK         0.5027 
     26 O          20.3313  -28.1502  -45.0474 O.2       1 UNK        -0.4969 
     27 C          21.2811  -27.7513  -39.5745 C.2       3 UNK         0.5005 
     28 O          22.0942  -28.4087  -38.9222 O.2       3 UNK        -0.5279 
     29 N          21.0441  -26.4488  -39.3573 N.am      4 UNK        -0.4463 
     30 CA         21.8261  -25.5906  -38.4630 C.3       4 UNK         0.0283 
     31 CB         21.2009  -24.1874  -38.4275 C.3       4 UNK        -0.1875 
     32 C          23.3169  -25.5051  -38.8489 C.2       4 UNK         0.4949 
     33 O          24.1568  -25.3463  -37.9631 O.2       4 UNK        -0.5039 
     34 N          23.6368  -25.6700  -40.1421 N.am      5 UNK        -0.4663 
     35 CA         25.0005  -25.7645  -40.6696 C.3       5 UNK         0.0242 
     36 CB         25.0092  -25.2775  -42.1313 C.3       5 UNK        -0.1982 
     37 C          25.5667  -27.1916  -40.5142 C.2       5 UNK         0.5017 
     38 O          26.0130  -27.7871  -41.4955 O.2       5 UNK        -0.5012 
     39 N          25.5305  -27.7085  -39.2772 N.am      6 UNK        -0.4439 
     40 CA         26.0525  -29.0044  -38.8262 C.3       6 UNK         0.0297 
     41 CB         27.5963  -28.9905  -38.8416 C.3       6 UNK        -0.2006 
     42 C          25.4569  -30.2138  -39.5774 C.2       6 UNK         0.4892 
     43 O          26.2062  -31.0837  -40.0261 O.2       6 UNK        -0.5089 
     44 N          24.1187  -30.2489  -39.6807 N.am      7 UNK        -0.4243 
     45 CA         23.3068  -31.3057  -40.3000 C.3       7 UNK         0.0196 
     46 CB         23.3815  -32.6088  -39.4756 C.3       7 UNK        -0.2007 
     47 C          23.6230  -31.5141  -41.7937 C.2       7 UNK         0.5020 
     48 O          23.8387  -32.6466  -42.2275 O.2       7 UNK        -0.5147 
     49 N          23.6573  -30.4063  -42.5494 N.am      8 UNK        -0.4734 
     50 CA         23.9287  -30.3795  -43.9910 C.3       8 UNK         0.0238 
     51 CB         24.0009  -28.9187  -44.4687 C.3       8 UNK        -0.1912 
     52 C          22.9121  -31.1804  -44.8265 C.2       8 UNK         0.5038 
     53 O          23.3235  -31.9744  -45.6744 O.2       8 UNK        -0.5046 
     54 N          21.6192  -30.9658  -44.5472 N.am      9 UNK        -0.4200 
     55 CA         20.4541  -31.5743  -45.2119 C.3       9 UNK         0.0839 
     56 C          20.3035  -31.1855  -46.7164 C.2       9 UNK         0.5513 
     57 N          19.2558  -31.6581  -47.3803 N.am      9 UNK        -0.7519 
     58 O          21.0906  -30.4374  -47.2915 O.2       9 UNK        -0.4960 
     59 C59        20.3502  -33.1096  -44.9784 C.3       10 UNK        -0.0876 
     60 S60        20.2146  -33.5582  -43.2138 S.3       10 UNK        -0.2414 
     61 C61        18.4375  -33.9302  -43.0441 C.3       10 UNK         0.0169 
     62 H62        17.1367  -24.4746  -48.9940 H         1 UNK         0.0903 
     63 H63        16.1440  -24.7261  -47.5570 H         1 UNK         0.0903 
     64 H64        17.5220  -23.6253  -47.4948 H         1 UNK         0.0903 
     65 H65        16.5744  -26.6877  -46.5532 H         1 UNK         0.3096 
     66 H66        18.9227  -28.2284  -47.1026 H         1 UNK         0.1121 
     67 H67        16.9469  -29.4777  -46.8127 H         1 UNK         0.0849 
     68 H68        17.9029  -29.8340  -45.4089 H         1 UNK         0.0849 
     69 H69        15.1799  -30.8024  -45.3411 H         1 UNK         0.0865 
     70 H70        14.2500  -30.0785  -44.0546 H         1 UNK         0.0865 
     71 H71        16.8474  -32.4325  -44.7113 H         1 UNK         0.1346 
     72 H72        18.2344  -32.6658  -40.6616 H         1 UNK         0.1412 
     73 H73        15.5631  -29.5233  -41.8289 H         1 UNK         0.1426 
     74 H74        17.4079  -31.1558  -38.9920 H         1 UNK         0.0716 
     75 H75        15.9799  -30.2095  -39.3361 H         1 UNK         0.0716 
     76 H76        19.4031  -30.1734  -41.1670 H         1 UNK         0.0695 
     77 H77        20.0373  -30.1766  -39.5504 H         1 UNK         0.0695 
     78 H78        21.3571  -28.9284  -41.3109 H         1 UNK         0.0983 
     79 H79        18.9521  -27.5507  -41.8377 H         1 UNK         0.3095 
     80 H80        19.1880  -25.1179  -42.8222 H         1 UNK         0.0454 
     81 H81        20.1691  -24.1122  -44.8797 H         1 UNK         0.0851 
     82 H82        21.4399  -25.3325  -44.8885 H         1 UNK         0.0851 
     83 H83        21.3530  -24.1567  -43.5841 H         1 UNK         0.0851 
     84 H84        18.0579  -26.0473  -44.5288 H         1 UNK         0.2976 
     85 H85        20.3461  -25.9960  -39.9287 H         1 UNK         0.3116 
     86 H86        21.7697  -26.0191  -37.4602 H         1 UNK         0.0646 
     87 H87        21.7492  -23.5342  -37.7472 H         1 UNK         0.0847 
     88 H88        20.1685  -24.2199  -38.0789 H         1 UNK         0.0847 
     89 H89        21.2108  -23.7145  -39.4105 H         1 UNK         0.0847 
     90 H90        22.8959  -25.8535  -40.8123 H         1 UNK         0.3040 
     91 H91        25.6511  -25.0986  -40.0981 H         1 UNK         0.1015 
     92 H92        24.6044  -24.2691  -42.2171 H         1 UNK         0.0786 
     93 H93        24.4237  -25.9298  -42.7799 H         1 UNK         0.0786 
     94 H94        26.0250  -25.2533  -42.5280 H         1 UNK         0.0786 
     95 H95        25.1130  -27.1260  -38.5587 H         1 UNK         0.3172 
     96 H96        25.7378  -29.1121  -37.7872 H         1 UNK         0.0595 
     97 H97        27.9895  -28.9112  -39.8558 H         1 UNK         0.0839 
     98 H98        28.0008  -29.9054  -38.4068 H         1 UNK         0.0839 
     99 H99        27.9924  -28.1566  -38.2622 H         1 UNK         0.0839 
    100 H100       23.5837  -29.4780  -39.2839 H         1 UNK         0.2998 
    101 H101       22.2729  -30.9645  -40.2568 H         1 UNK         0.0822 
    102 H102       24.3813  -33.0438  -39.4922 H         1 UNK         0.0787 
    103 H103       23.1077  -32.4355  -38.4349 H         1 UNK         0.0787 
    104 H104       22.6946  -33.3589  -39.8700 H         1 UNK         0.0787 
    105 H105       23.5488  -29.5110  -42.0963 H         1 UNK         0.3055 
    106 H106       24.9082  -30.8371  -44.1464 H         1 UNK         0.1106 
    107 H107       24.1964  -28.8681  -45.5407 H         1 UNK         0.0828 
    108 H108       23.0689  -28.3822  -44.2837 H         1 UNK         0.0828 
    109 H109       24.8032  -28.3762  -43.9682 H         1 UNK         0.0828 
    110 H110       21.3988  -30.2408  -43.8818 H         1 UNK         0.2931 
    111 H111       19.6014  -31.1164  -44.7130 H         1 UNK         0.0412 
    112 H112       18.5827  -32.2682  -46.9461 H         1 UNK         0.3472 
    113 H113       19.1486  -31.4114  -48.3519 H         1 UNK         0.3472 
    114 H114       19.4960  -33.5334  -45.5063 H         1 UNK         0.0970 
    115 H115       21.2237  -33.6155  -45.3921 H         1 UNK         0.0970 
    116 H116       18.0611  -34.4228  -43.9415 H         1 UNK         0.0612 
    117 H117       18.3151  -34.6527  -42.2358 H         1 UNK         0.0612 
@<TRIPOS>BOND
     1    1    2 1    
     2    1   62 1    
     3    1   63 1    
     4    1   64 1    
     5    2    3 2    
     6    2    4 am   BACKBONE|DICT|INTERRES
     7    4    5 1    
     8    4   65 1    
     9    5    6 1    
    10    5   25 1    
    11    5   66 1    
    12    6    7 1    
    13    6   67 1    
    14    6   68 1    
    15    7    8 1    
    16    8    9 1    
    17    8   69 1    
    18    8   70 1    
    19    9   10 ar   
    20    9   14 ar   
    21   10   11 ar   
    22   10   71 1    
    23   11   12 ar   
    24   11   61 1    
    25   12   13 ar   
    26   12   72 1    
    27   13   14 ar   
    28   13   15 1    
    29   14   73 1    
    30   15   16 1    
    31   15   74 1    
    32   15   75 1    
    33   16   17 1    
    34   17   18 1    
    35   17   76 1    
    36   17   77 1    
    37   18   19 1    
    38   18   27 1    
    39   18   78 1    
    40   19   20 am   BACKBONE|DICT|INTERRES
    41   19   79 1    
    42   20   21 2    
    43   20   22 1    
    44   22   23 1    
    45   22   24 1    
    46   22   80 1    
    47   23   81 1    
    48   23   82 1    
    49   23   83 1    
    50   24   25 am   BACKBONE|DICT|INTERRES
    51   24   84 1    
    52   25   26 2    
    53   27   28 2    
    54   27   29 am   BACKBONE|DICT|INTERRES
    55   29   30 1    
    56   29   85 1    
    57   30   31 1    
    58   30   32 1    
    59   30   86 1    
    60   31   87 1    
    61   31   88 1    
    62   31   89 1    
    63   32   33 2    
    64   32   34 am   BACKBONE|DICT|INTERRES
    65   34   35 1    
    66   34   90 1    
    67   35   36 1    
    68   35   37 1    
    69   35   91 1    
    70   36   92 1    
    71   36   93 1    
    72   36   94 1    
    73   37   38 2    
    74   37   39 am   BACKBONE|DICT|INTERRES
    75   39   40 1    
    76   39   95 1    
    77   40   41 1    
    78   40   42 1    
    79   40   96 1    
    80   41   97 1    
    81   41   98 1    
    82   41   99 1    
    83   42   43 2    
    84   42   44 am   BACKBONE|DICT|INTERRES
    85   44   45 1    
    86   44  100 1    
    87   45   46 1    
    88   45   47 1    
    89   45  101 1    
    90   46  102 1    
    91   46  103 1    
    92   46  104 1    
    93   47   48 2    
    94   47   49 am   BACKBONE|DICT|INTERRES
    95   49   50 1    
    96   49  105 1    
    97   50   51 1    
    98   50   52 1    
    99   50  106 1    
   100   51  107 1    
   101   51  108 1    
   102   51  109 1    
   103   52   53 2    
   104   52   54 am   BACKBONE|DICT|INTERRES
   105   54   55 1    
   106   54  110 1    
   107   55   56 1    
   108   55   59 1    
   109   55  111 1    
   110   56   57 am   BACKBONE|DICT|INTERRES
   111   56   58 2    
   112   57  112 1    
   113   57  113 1    
   114   59   60 1    
   115   59  114 1    
   116   59  115 1    
   117   60   61 1    
   118   61  116 1    
   119   61  117 1    
@<TRIPOS>SUBSTRUCTURE
     1 UNK         1 GROUP             0       ****    0 ROOT    
