@<TRIPOS>MOLECULE
3R8
117   119    1
SMALL
USER_CHARGES


@<TRIPOS>ATOM
      1 CA         21.7125  -22.4678  -44.9650 C.3       0 UNK        -0.2013 
      2 C          20.9108  -22.3789  -46.2618 C.2       0 UNK         0.4866 
      3 O          20.7718  -21.2874  -46.8106 O.2       0 UNK        -0.5176 
      4 N          20.3813  -23.4854  -46.8025 N.am      1 UNK        -0.4884 
      5 CA         20.3752  -24.8340  -46.2259 C.3       1 UNK         0.0853 
      6 C6         20.1160  -25.8974  -47.3248 C.3       10 UNK        -0.0849 
      7 S7         20.3539  -27.6157  -46.7440 S.3       10 UNK        -0.2776 
      8 C8         18.6870  -28.3123  -47.0044 C.3       10 UNK         0.0316 
      9 C9         18.4074  -29.5608  -46.1707 C.ar      10 UNK        -0.0863 
     10 C10        19.3202  -30.6231  -46.1136 C.ar      10 UNK        -0.1009 
     11 C11        19.0369  -31.7671  -45.3578 C.ar      10 UNK        -0.0712 
     12 C12        17.8127  -31.8582  -44.6898 C.ar      10 UNK        -0.0894 
     13 C13        16.9073  -30.7988  -44.7137 C.ar      10 UNK        -0.0745 
     14 C14        17.2033  -29.6576  -45.4638 C.ar      10 UNK        -0.0972 
     15 C15        15.6317  -30.8797  -43.8915 C.3       10 UNK         0.0209 
     16 S16        15.7114  -29.8037  -42.4249 S.3       10 UNK        -0.2568 
     17 C17        17.1508  -30.4563  -41.4937 C.3       10 UNK        -0.0983 
     18 CA         18.5056  -29.7578  -41.8155 C.3       3 UNK         0.0876 
     19 N          18.3475  -28.3212  -42.0698 N.am      3 UNK        -0.4424 
     20 C          19.3055  -27.5017  -42.5132 C.2       2 UNK         0.4918 
     21 O          20.4964  -27.8078  -42.6202 O.2       2 UNK        -0.4875 
     22 CA         18.8533  -26.1003  -42.9313 C.3       2 UNK         0.0481 
     23 CB         18.9975  -25.0933  -41.7775 C.3       2 UNK        -0.1831 
     24 N          19.6923  -25.7161  -44.0573 N.am      2 UNK        -0.4498 
     25 C          19.3478  -24.9259  -45.0762 C.2       1 UNK         0.5027 
     26 O          18.2815  -24.3097  -45.1454 O.2       1 UNK        -0.4969 
     27 C          19.5557  -30.0516  -40.7235 C.2       3 UNK         0.5005 
     28 O          20.3993  -30.9351  -40.8894 O.2       3 UNK        -0.5279 
     29 N          19.4999  -29.2645  -39.6430 N.am      4 UNK        -0.4463 
     30 CA         20.4731  -29.2531  -38.5563 C.3       4 UNK         0.0283 
     31 CB         19.7250  -29.1069  -37.2213 C.3       4 UNK        -0.1875 
     32 C          21.4436  -28.0810  -38.7498 C.2       4 UNK         0.4949 
     33 O          21.0758  -27.0705  -39.3543 O.2       4 UNK        -0.5039 
     34 N          22.6537  -28.2321  -38.1973 N.am      5 UNK        -0.4663 
     35 CA         23.7624  -27.2681  -38.1343 C.3       5 UNK         0.0242 
     36 CB         23.3651  -26.0035  -37.3462 C.3       5 UNK        -0.1982 
     37 C          24.3918  -26.9012  -39.4903 C.2       5 UNK         0.5017 
     38 O          25.6102  -27.0144  -39.6257 O.2       5 UNK        -0.5012 
     39 N          23.5733  -26.4578  -40.4531 N.am      6 UNK        -0.4439 
     40 CA         24.0043  -26.0655  -41.7956 C.3       6 UNK         0.0297 
     41 CB         22.9436  -25.1778  -42.4640 C.3       6 UNK        -0.2006 
     42 C          24.3557  -27.2933  -42.6473 C.2       6 UNK         0.4892 
     43 O          25.5165  -27.4430  -43.0310 O.2       6 UNK        -0.5089 
     44 N          23.3653  -28.1609  -42.9043 N.am      7 UNK        -0.4243 
     45 CA         23.5880  -29.4610  -43.5399 C.3       7 UNK         0.0196 
     46 CB         22.2824  -29.9881  -44.1551 C.3       7 UNK        -0.2007 
     47 C          24.1549  -30.4714  -42.5348 C.2       7 UNK         0.5020 
     48 O          25.1263  -31.1581  -42.8511 O.2       7 UNK        -0.5147 
     49 N          23.5268  -30.5367  -41.3486 N.am      8 UNK        -0.4734 
     50 CA         23.8149  -31.4612  -40.2416 C.3       8 UNK         0.0238 
     51 CB         25.1673  -31.1163  -39.5833 C.3       8 UNK        -0.1912 
     52 C          23.7029  -32.9430  -40.6585 C.2       8 UNK         0.5038 
     53 O          24.4839  -33.7799  -40.2018 O.2       8 UNK        -0.5046 
     54 N          22.7383  -33.2245  -41.5411 N.am      9 UNK        -0.4200 
     55 CA         22.4745  -34.5378  -42.1456 C.3       9 UNK         0.0839 
     56 C          21.7074  -35.5352  -41.2292 C.2       9 UNK         0.5513 
     57 N          21.1776  -35.1177  -40.0854 N.am      9 UNK        -0.7519 
     58 O          21.6064  -36.7148  -41.5572 O.2       9 UNK        -0.4960 
     59 C59        21.8081  -34.3827  -43.5406 C.3       10 UNK        -0.0876 
     60 S60        20.3104  -33.3444  -43.4809 S.3       10 UNK        -0.2414 
     61 C61        20.0578  -32.8923  -45.2290 C.3       10 UNK         0.0169 
     62 H62        21.0996  -22.8326  -44.1418 H         1 UNK         0.0903 
     63 H63        22.5743  -23.1227  -45.0864 H         1 UNK         0.0903 
     64 H64        22.0872  -21.4842  -44.6823 H         1 UNK         0.0903 
     65 H65        19.8374  -23.3821  -47.6474 H         1 UNK         0.3096 
     66 H66        21.3685  -25.0283  -45.8159 H         1 UNK         0.1121 
     67 H67        19.1204  -25.7733  -47.7552 H         1 UNK         0.0849 
     68 H68        20.8125  -25.7437  -48.1509 H         1 UNK         0.0849 
     69 H69        18.5621  -28.5540  -48.0607 H         1 UNK         0.0865 
     70 H70        17.9469  -27.5445  -46.7733 H         1 UNK         0.0865 
     71 H71        20.2587  -30.5501  -46.6458 H         1 UNK         0.1346 
     72 H72        17.5873  -32.7392  -44.1044 H         1 UNK         0.1412 
     73 H73        16.4950  -28.8404  -45.4830 H         1 UNK         0.1426 
     74 H74        15.4325  -31.9047  -43.5745 H         1 UNK         0.0716 
     75 H75        14.7835  -30.5785  -44.5078 H         1 UNK         0.0716 
     76 H76        17.2337  -31.5316  -41.6616 H         1 UNK         0.0695 
     77 H77        16.9030  -30.3401  -40.4366 H         1 UNK         0.0695 
     78 H78        18.8978  -30.1873  -42.7391 H         1 UNK         0.0983 
     79 H79        17.3953  -27.9864  -42.0329 H         1 UNK         0.3095 
     80 H80        17.8107  -26.1441  -43.2540 H         1 UNK         0.0454 
     81 H81        18.3372  -25.3550  -40.9502 H         1 UNK         0.0851 
     82 H82        18.7355  -24.0842  -42.0951 H         1 UNK         0.0851 
     83 H83        20.0127  -25.0679  -41.3811 H         1 UNK         0.0851 
     84 H84        20.5433  -26.2619  -44.1190 H         1 UNK         0.2976 
     85 H85        18.8359  -28.5032  -39.6490 H         1 UNK         0.3116 
     86 H86        21.0352  -30.1888  -38.5414 H         1 UNK         0.0646 
     87 H87        19.0223  -29.9264  -37.0696 H         1 UNK         0.0847 
     88 H88        19.1652  -28.1720  -37.1703 H         1 UNK         0.0847 
     89 H89        20.4183  -29.1167  -36.3792 H         1 UNK         0.0847 
     90 H90        22.8406  -29.1089  -37.7303 H         1 UNK         0.3040 
     91 H91        24.5467  -27.7664  -37.5612 H         1 UNK         0.1015 
     92 H92        24.2190  -25.3351  -37.2281 H         1 UNK         0.0786 
     93 H93        23.0113  -26.2555  -36.3464 H         1 UNK         0.0786 
     94 H94        22.5790  -25.4365  -37.8456 H         1 UNK         0.0786 
     95 H95        22.5759  -26.4545  -40.2469 H         1 UNK         0.3172 
     96 H96        24.9113  -25.4646  -41.6979 H         1 UNK         0.0595 
     97 H97        21.9783  -25.6734  -42.5134 H         1 UNK         0.0839 
     98 H98        23.2364  -24.9213  -43.4825 H         1 UNK         0.0839 
     99 H99        22.8096  -24.2434  -41.9188 H         1 UNK         0.0839 
    100 H100       22.4169  -27.9571  -42.5999 H         1 UNK         0.2998 
    101 H101       24.3125  -29.3403  -44.3485 H         1 UNK         0.0822 
    102 H102       22.4572  -30.9247  -44.6845 H         1 UNK         0.0787 
    103 H103       21.8714  -29.2808  -44.8733 H         1 UNK         0.0787 
    104 H104       21.5165  -30.1792  -43.4029 H         1 UNK         0.0787 
    105 H105       22.7012  -29.9649  -41.2314 H         1 UNK         0.3055 
    106 H106       23.0340  -31.3049  -39.4966 H         1 UNK         0.1106 
    107 H107       25.2116  -30.0671  -39.2917 H         1 UNK         0.0828 
    108 H108       25.3278  -31.7102  -38.6828 H         1 UNK         0.0828 
    109 H109       26.0042  -31.3117  -40.2544 H         1 UNK         0.0828 
    110 H110       22.1038  -32.4851  -41.8145 H         1 UNK         0.2931 
    111 H111       23.4457  -35.0053  -42.3197 H         1 UNK         0.0412 
    112 H112       21.2414  -34.1476  -39.8214 H         1 UNK         0.3472 
    113 H113       20.6884  -35.7733  -39.4966 H         1 UNK         0.3472 
    114 H114       21.5598  -35.3534  -43.9741 H         1 UNK         0.0970 
    115 H115       22.5201  -33.9226  -44.2275 H         1 UNK         0.0970 
    116 H116       21.0112  -32.5965  -45.6681 H         1 UNK         0.0612 
    117 H117       19.7094  -33.7651  -45.7825 H         1 UNK         0.0612 
@<TRIPOS>BOND
     1    1    2 1    
     2    1   62 1    
     3    1   63 1    
     4    1   64 1    
     5    2    3 2    
     6    2    4 am   BACKBONE|DICT|INTERRES
     7    4    5 1    
     8    4   65 1    
     9    5    6 1    
    10    5   25 1    
    11    5   66 1    
    12    6    7 1    
    13    6   67 1    
    14    6   68 1    
    15    7    8 1    
    16    8    9 1    
    17    8   69 1    
    18    8   70 1    
    19    9   10 ar   
    20    9   14 ar   
    21   10   11 ar   
    22   10   71 1    
    23   11   12 ar   
    24   11   61 1    
    25   12   13 ar   
    26   12   72 1    
    27   13   14 ar   
    28   13   15 1    
    29   14   73 1    
    30   15   16 1    
    31   15   74 1    
    32   15   75 1    
    33   16   17 1    
    34   17   18 1    
    35   17   76 1    
    36   17   77 1    
    37   18   19 1    
    38   18   27 1    
    39   18   78 1    
    40   19   20 am   BACKBONE|DICT|INTERRES
    41   19   79 1    
    42   20   21 2    
    43   20   22 1    
    44   22   23 1    
    45   22   24 1    
    46   22   80 1    
    47   23   81 1    
    48   23   82 1    
    49   23   83 1    
    50   24   25 am   BACKBONE|DICT|INTERRES
    51   24   84 1    
    52   25   26 2    
    53   27   28 2    
    54   27   29 am   BACKBONE|DICT|INTERRES
    55   29   30 1    
    56   29   85 1    
    57   30   31 1    
    58   30   32 1    
    59   30   86 1    
    60   31   87 1    
    61   31   88 1    
    62   31   89 1    
    63   32   33 2    
    64   32   34 am   BACKBONE|DICT|INTERRES
    65   34   35 1    
    66   34   90 1    
    67   35   36 1    
    68   35   37 1    
    69   35   91 1    
    70   36   92 1    
    71   36   93 1    
    72   36   94 1    
    73   37   38 2    
    74   37   39 am   BACKBONE|DICT|INTERRES
    75   39   40 1    
    76   39   95 1    
    77   40   41 1    
    78   40   42 1    
    79   40   96 1    
    80   41   97 1    
    81   41   98 1    
    82   41   99 1    
    83   42   43 2    
    84   42   44 am   BACKBONE|DICT|INTERRES
    85   44   45 1    
    86   44  100 1    
    87   45   46 1    
    88   45   47 1    
    89   45  101 1    
    90   46  102 1    
    91   46  103 1    
    92   46  104 1    
    93   47   48 2    
    94   47   49 am   BACKBONE|DICT|INTERRES
    95   49   50 1    
    96   49  105 1    
    97   50   51 1    
    98   50   52 1    
    99   50  106 1    
   100   51  107 1    
   101   51  108 1    
   102   51  109 1    
   103   52   53 2    
   104   52   54 am   BACKBONE|DICT|INTERRES
   105   54   55 1    
   106   54  110 1    
   107   55   56 1    
   108   55   59 1    
   109   55  111 1    
   110   56   57 am   BACKBONE|DICT|INTERRES
   111   56   58 2    
   112   57  112 1    
   113   57  113 1    
   114   59   60 1    
   115   59  114 1    
   116   59  115 1    
   117   60   61 1    
   118   61  116 1    
   119   61  117 1    
@<TRIPOS>SUBSTRUCTURE
     1 UNK         1 GROUP             0       ****    0 ROOT    
