@<TRIPOS>MOLECULE
3R8
117   119    1
SMALL
USER_CHARGES


@<TRIPOS>ATOM
      1 CA         19.1935  -25.1927  -49.9991 C.3       0 UNK        -0.2013 
      2 C          19.5073  -26.4198  -49.1561 C.2       0 UNK         0.4866 
      3 O          19.5912  -27.5255  -49.6920 O.2       0 UNK        -0.5176 
      4 N          19.6850  -26.2334  -47.8449 N.am      1 UNK        -0.4884 
      5 CA         20.0091  -27.2844  -46.8793 C.3       1 UNK         0.0853 
      6 C6         18.8139  -28.2159  -46.5326 C.3       10 UNK        -0.0849 
      7 S7         17.3223  -27.3395  -45.9516 S.3       10 UNK        -0.2776 
      8 C8         16.1681  -28.7339  -45.7603 C.3       10 UNK         0.0316 
      9 C9         16.3216  -29.3850  -44.3955 C.ar      10 UNK        -0.0863 
     10 C10        17.1957  -30.4600  -44.2082 C.ar      10 UNK        -0.1009 
     11 C11        17.3554  -31.0273  -42.9404 C.ar      10 UNK        -0.0712 
     12 C12        16.5997  -30.5449  -41.8673 C.ar      10 UNK        -0.0894 
     13 C13        15.7491  -29.4484  -42.0374 C.ar      10 UNK        -0.0745 
     14 C14        15.6042  -28.8833  -43.3070 C.ar      10 UNK        -0.0972 
     15 C15        15.0274  -28.8291  -40.8464 C.3       10 UNK         0.0209 
     16 S16        16.1654  -28.1517  -39.5841 S.3       10 UNK        -0.2568 
     17 C17        17.4478  -27.2908  -40.5646 C.3       10 UNK        -0.0983 
     18 CA         18.7629  -28.1229  -40.6081 C.3       3 UNK         0.0876 
     19 N          19.5882  -27.8427  -41.7871 N.am      3 UNK        -0.4424 
     20 C          20.3107  -26.7332  -41.9957 C.2       2 UNK         0.4918 
     21 O          20.3215  -25.7656  -41.2340 O.2       2 UNK        -0.4875 
     22 CA         21.1971  -26.7080  -43.2454 C.3       2 UNK         0.0481 
     23 CB         22.4353  -27.6052  -43.0621 C.3       2 UNK        -0.1831 
     24 N          20.4679  -27.1050  -44.4525 N.am      2 UNK        -0.4498 
     25 C          20.7557  -26.6592  -45.6837 C.2       1 UNK         0.5027 
     26 O          21.6154  -25.8037  -45.9091 O.2       1 UNK        -0.4969 
     27 C          19.6150  -28.0877  -39.3217 C.2       3 UNK         0.5005 
     28 O          20.4759  -28.9533  -39.1605 O.2       3 UNK        -0.5279 
     29 N          19.4143  -27.0791  -38.4613 N.am      4 UNK        -0.4463 
     30 CA         20.1667  -26.8493  -37.2227 C.3       4 UNK         0.0283 
     31 CB         19.5743  -25.6345  -36.4908 C.3       4 UNK        -0.1875 
     32 C          21.6851  -26.6690  -37.4191 C.2       4 UNK         0.4949 
     33 O          22.4429  -26.9498  -36.4905 O.2       4 UNK        -0.5039 
     34 N          22.1090  -26.2334  -38.6156 N.am      5 UNK        -0.4663 
     35 CA         23.5202  -26.1462  -39.0047 C.3       5 UNK         0.0242 
     36 CB         23.6727  -25.1319  -40.1508 C.3       5 UNK        -0.1982 
     37 C          24.1494  -27.5088  -39.3645 C.2       5 UNK         0.5017 
     38 O          25.3728  -27.5795  -39.4753 O.2       5 UNK        -0.5012 
     39 N          23.3258  -28.5554  -39.5452 N.am      6 UNK        -0.4439 
     40 CA         23.6436  -29.9823  -39.7266 C.3       6 UNK         0.0297 
     41 CB         24.3134  -30.5454  -38.4593 C.3       6 UNK        -0.2006 
     42 C          24.4479  -30.3888  -40.9775 C.2       6 UNK         0.4892 
     43 O          24.3266  -31.5401  -41.3960 O.2       6 UNK        -0.5089 
     44 N          25.2454  -29.4773  -41.5486 N.am      7 UNK        -0.4243 
     45 CA         26.2269  -29.7174  -42.6151 C.3       7 UNK         0.0196 
     46 CB         26.8788  -28.3805  -43.0040 C.3       7 UNK        -0.2007 
     47 C          25.6937  -30.4362  -43.8678 C.2       7 UNK         0.5020 
     48 O          26.3894  -31.2926  -44.4138 O.2       7 UNK        -0.5147 
     49 N          24.4752  -30.0834  -44.2945 N.am      8 UNK        -0.4734 
     50 CA         23.7965  -30.7000  -45.4398 C.3       8 UNK         0.0238 
     51 CB         22.8513  -29.6700  -46.0789 C.3       8 UNK        -0.1912 
     52 C          23.0077  -31.9667  -45.0641 C.2       8 UNK         0.5038 
     53 O          22.6821  -32.7503  -45.9568 O.2       8 UNK        -0.5046 
     54 N          22.6843  -32.1278  -43.7758 N.am      9 UNK        -0.4200 
     55 CA         21.8850  -33.2405  -43.2448 C.3       9 UNK         0.0839 
     56 C          22.7503  -34.4827  -42.9071 C.2       9 UNK         0.5513 
     57 N          23.9847  -34.3068  -42.4515 N.am      9 UNK        -0.7519 
     58 O          22.2976  -35.6135  -43.0640 O.2       9 UNK        -0.4960 
     59 C59        21.0418  -32.8149  -42.0148 C.3       10 UNK        -0.0876 
     60 S60        20.0050  -31.3476  -42.3341 S.3       10 UNK        -0.2414 
     61 C61        18.3967  -32.1102  -42.7132 C.3       10 UNK         0.0169 
     62 H62        19.1477  -24.2851  -49.3975 H         1 UNK         0.0903 
     63 H63        19.9592  -25.0556  -50.7623 H         1 UNK         0.0903 
     64 H64        18.2328  -25.3169  -50.4982 H         1 UNK         0.0903 
     65 H65        19.6542  -25.3000  -47.4561 H         1 UNK         0.3096 
     66 H66        20.7657  -27.9167  -47.3496 H         1 UNK         0.1121 
     67 H67        19.1068  -28.9747  -45.8061 H         1 UNK         0.0849 
     68 H68        18.5363  -28.7757  -47.4272 H         1 UNK         0.0849 
     69 H69        15.1483  -28.3646  -45.8796 H         1 UNK         0.0865 
     70 H70        16.3177  -29.4645  -46.5568 H         1 UNK         0.0865 
     71 H71        17.7760  -30.8358  -45.0396 H         1 UNK         0.1346 
     72 H72        16.7282  -30.9732  -40.8825 H         1 UNK         0.1412 
     73 H73        14.9526  -28.0310  -43.4461 H         1 UNK         0.1426 
     74 H74        14.3908  -29.5828  -40.3812 H         1 UNK         0.0716 
     75 H75        14.3624  -28.0284  -41.1738 H         1 UNK         0.0716 
     76 H76        17.6027  -26.2847  -40.1732 H         1 UNK         0.0695 
     77 H77        17.0705  -27.1355  -41.5756 H         1 UNK         0.0695 
     78 H78        18.4937  -29.1712  -40.7164 H         1 UNK         0.0983 
     79 H79        19.6964  -28.6251  -42.4157 H         1 UNK         0.3095 
     80 H80        21.5387  -25.6764  -43.3573 H         1 UNK         0.0454 
     81 H81        23.1320  -27.4793  -43.8907 H         1 UNK         0.0851 
     82 H82        22.1617  -28.6587  -42.9961 H         1 UNK         0.0851 
     83 H83        22.9772  -27.3550  -42.1524 H         1 UNK         0.0851 
     84 H84        19.6724  -27.7167  -44.3334 H         1 UNK         0.2976 
     85 H85        18.6985  -26.4030  -38.6859 H         1 UNK         0.3116 
     86 H86        20.0270  -27.7295  -36.5919 H         1 UNK         0.0646 
     87 H87        19.6576  -24.7243  -37.0860 H         1 UNK         0.0847 
     88 H88        18.5215  -25.7869  -36.2525 H         1 UNK         0.0847 
     89 H89        20.0937  -25.4551  -35.5482 H         1 UNK         0.0847 
     90 H90        21.4200  -26.0097  -39.3251 H         1 UNK         0.3040 
     91 H91        24.0886  -25.7646  -38.1532 H         1 UNK         0.1015 
     92 H92        24.7067  -25.0758  -40.4945 H         1 UNK         0.0786 
     93 H93        23.3892  -24.1307  -39.8257 H         1 UNK         0.0786 
     94 H94        23.0548  -25.3833  -41.0107 H         1 UNK         0.0786 
     95 H95        22.3302  -28.3861  -39.4259 H         1 UNK         0.3172 
     96 H96        22.6761  -30.4764  -39.8277 H         1 UNK         0.0595 
     97 H97        25.2907  -30.0951  -38.2824 H         1 UNK         0.0839 
     98 H98        24.4626  -31.6231  -38.5409 H         1 UNK         0.0839 
     99 H99        23.6984  -30.3708  -37.5763 H         1 UNK         0.0839 
    100 H100       25.3260  -28.5931  -41.0546 H         1 UNK         0.2998 
    101 H101       27.0004  -30.3587  -42.1877 H         1 UNK         0.0822 
    102 H102       27.6337  -28.5227  -43.7787 H         1 UNK         0.0787 
    103 H103       27.3760  -27.9187  -42.1506 H         1 UNK         0.0787 
    104 H104       26.1451  -27.6707  -43.3883 H         1 UNK         0.0787 
    105 H105       23.9806  -29.3657  -43.7878 H         1 UNK         0.3055 
    106 H106       24.5403  -30.9871  -46.1870 H         1 UNK         0.1106 
    107 H107       22.0244  -29.4207  -45.4145 H         1 UNK         0.0828 
    108 H108       23.3748  -28.7488  -46.3357 H         1 UNK         0.0828 
    109 H109       22.4174  -30.0626  -46.9997 H         1 UNK         0.0828 
    110 H110       23.0822  -31.5049  -43.0861 H         1 UNK         0.2931 
    111 H111       21.1778  -33.5493  -44.0176 H         1 UNK         0.0412 
    112 H112       24.3174  -33.3708  -42.2460 H         1 UNK         0.3472 
    113 H113       24.5559  -35.1076  -42.2333 H         1 UNK         0.3472 
    114 H114       20.4076  -33.6385  -41.6814 H         1 UNK         0.0970 
    115 H115       21.6943  -32.5804  -41.1716 H         1 UNK         0.0970 
    116 H116       18.4904  -32.7412  -43.5984 H         1 UNK         0.0612 
    117 H117       18.0935  -32.7601  -41.8910 H         1 UNK         0.0612 
@<TRIPOS>BOND
     1    1    2 1    
     2    1   62 1    
     3    1   63 1    
     4    1   64 1    
     5    2    3 2    
     6    2    4 am   BACKBONE|DICT|INTERRES
     7    4    5 1    
     8    4   65 1    
     9    5    6 1    
    10    5   25 1    
    11    5   66 1    
    12    6    7 1    
    13    6   67 1    
    14    6   68 1    
    15    7    8 1    
    16    8    9 1    
    17    8   69 1    
    18    8   70 1    
    19    9   10 ar   
    20    9   14 ar   
    21   10   11 ar   
    22   10   71 1    
    23   11   12 ar   
    24   11   61 1    
    25   12   13 ar   
    26   12   72 1    
    27   13   14 ar   
    28   13   15 1    
    29   14   73 1    
    30   15   16 1    
    31   15   74 1    
    32   15   75 1    
    33   16   17 1    
    34   17   18 1    
    35   17   76 1    
    36   17   77 1    
    37   18   19 1    
    38   18   27 1    
    39   18   78 1    
    40   19   20 am   BACKBONE|DICT|INTERRES
    41   19   79 1    
    42   20   21 2    
    43   20   22 1    
    44   22   23 1    
    45   22   24 1    
    46   22   80 1    
    47   23   81 1    
    48   23   82 1    
    49   23   83 1    
    50   24   25 am   BACKBONE|DICT|INTERRES
    51   24   84 1    
    52   25   26 2    
    53   27   28 2    
    54   27   29 am   BACKBONE|DICT|INTERRES
    55   29   30 1    
    56   29   85 1    
    57   30   31 1    
    58   30   32 1    
    59   30   86 1    
    60   31   87 1    
    61   31   88 1    
    62   31   89 1    
    63   32   33 2    
    64   32   34 am   BACKBONE|DICT|INTERRES
    65   34   35 1    
    66   34   90 1    
    67   35   36 1    
    68   35   37 1    
    69   35   91 1    
    70   36   92 1    
    71   36   93 1    
    72   36   94 1    
    73   37   38 2    
    74   37   39 am   BACKBONE|DICT|INTERRES
    75   39   40 1    
    76   39   95 1    
    77   40   41 1    
    78   40   42 1    
    79   40   96 1    
    80   41   97 1    
    81   41   98 1    
    82   41   99 1    
    83   42   43 2    
    84   42   44 am   BACKBONE|DICT|INTERRES
    85   44   45 1    
    86   44  100 1    
    87   45   46 1    
    88   45   47 1    
    89   45  101 1    
    90   46  102 1    
    91   46  103 1    
    92   46  104 1    
    93   47   48 2    
    94   47   49 am   BACKBONE|DICT|INTERRES
    95   49   50 1    
    96   49  105 1    
    97   50   51 1    
    98   50   52 1    
    99   50  106 1    
   100   51  107 1    
   101   51  108 1    
   102   51  109 1    
   103   52   53 2    
   104   52   54 am   BACKBONE|DICT|INTERRES
   105   54   55 1    
   106   54  110 1    
   107   55   56 1    
   108   55   59 1    
   109   55  111 1    
   110   56   57 am   BACKBONE|DICT|INTERRES
   111   56   58 2    
   112   57  112 1    
   113   57  113 1    
   114   59   60 1    
   115   59  114 1    
   116   59  115 1    
   117   60   61 1    
   118   61  116 1    
   119   61  117 1    
@<TRIPOS>SUBSTRUCTURE
     1 UNK         1 GROUP             0       ****    0 ROOT    
