@<TRIPOS>MOLECULE
3R8
117   119    1
SMALL
USER_CHARGES


@<TRIPOS>ATOM
      1 CA         16.4324  -25.0923  -47.4911 C.3       0 UNK        -0.2013 
      2 C          17.5961  -25.7508  -46.7678 C.2       0 UNK         0.4866 
      3 O          17.5625  -25.8787  -45.5443 O.2       0 UNK        -0.5176 
      4 N          18.6388  -26.1549  -47.5085 N.am      1 UNK        -0.4884 
      5 CA         19.8411  -26.8868  -47.0584 C.3       1 UNK         0.0853 
      6 C6         19.5117  -28.2516  -46.3829 C.3       10 UNK        -0.0849 
      7 S7         18.5732  -29.4080  -47.4386 S.3       10 UNK        -0.2776 
      8 C8         16.8860  -29.3412  -46.7365 C.3       10 UNK         0.0316 
      9 C9         16.8216  -29.6743  -45.2485 C.ar      10 UNK        -0.0863 
     10 C10        17.2857  -30.9066  -44.7773 C.ar      10 UNK        -0.1009 
     11 C11        17.2081  -31.2215  -43.4176 C.ar      10 UNK        -0.0712 
     12 C12        16.6422  -30.3021  -42.5304 C.ar      10 UNK        -0.0894 
     13 C13        16.1898  -29.0590  -42.9814 C.ar      10 UNK        -0.0745 
     14 C14        16.2768  -28.7543  -44.3442 C.ar      10 UNK        -0.0972 
     15 C15        15.6095  -28.0514  -41.9941 C.3       10 UNK         0.0209 
     16 S16        16.7593  -27.6660  -40.6272 S.3       10 UNK        -0.2568 
     17 C17        17.8898  -26.4459  -41.3813 C.3       10 UNK        -0.0983 
     18 CA         18.9861  -27.0631  -42.2937 C.3       3 UNK         0.0876 
     19 N          19.4675  -26.0922  -43.2767 N.am      3 UNK        -0.4424 
     20 C          20.3734  -25.1165  -43.1052 C.2       2 UNK         0.4918 
     21 O          20.8919  -24.8474  -42.0213 O.2       2 UNK        -0.4875 
     22 CA         20.7467  -24.2868  -44.3571 C.3       2 UNK         0.0481 
     23 CB         22.2380  -23.8903  -44.3798 C.3       2 UNK        -0.1831 
     24 N          20.3184  -24.9377  -45.6056 N.am      2 UNK        -0.4498 
     25 C          20.7855  -26.0812  -46.1323 C.2       1 UNK         0.5027 
     26 O          21.8906  -26.5511  -45.8695 O.2       1 UNK        -0.4969 
     27 C          20.1313  -27.8132  -41.5690 C.2       3 UNK         0.5005 
     28 O          21.1712  -28.0792  -42.1773 O.2       3 UNK        -0.5279 
     29 N          19.9272  -28.1578  -40.2909 N.am      4 UNK        -0.4463 
     30 CA         20.8394  -28.9451  -39.4545 C.3       4 UNK         0.0283 
     31 CB         20.1470  -29.2678  -38.1214 C.3       4 UNK        -0.1875 
     32 C          22.2208  -28.3088  -39.2076 C.2       4 UNK         0.4949 
     33 O          23.1330  -29.0191  -38.7846 O.2       4 UNK        -0.5039 
     34 N          22.3804  -27.0087  -39.4971 N.am      5 UNK        -0.4663 
     35 CA         23.6739  -26.3187  -39.4731 C.3       5 UNK         0.0242 
     36 CB         23.4618  -24.8057  -39.6343 C.3       5 UNK        -0.1982 
     37 C          24.6537  -26.8473  -40.5372 C.2       5 UNK         0.5017 
     38 O          25.8648  -26.7742  -40.3242 O.2       5 UNK        -0.5012 
     39 N          24.1304  -27.4152  -41.6346 N.am      6 UNK        -0.4439 
     40 CA         24.9043  -28.1116  -42.6611 C.3       6 UNK         0.0297 
     41 CB         24.1458  -28.0459  -43.9971 C.3       6 UNK        -0.2006 
     42 C          25.2096  -29.5557  -42.2235 C.2       6 UNK         0.4892 
     43 O          24.6968  -30.5018  -42.8226 O.2       6 UNK        -0.5089 
     44 N          26.0266  -29.6892  -41.1677 N.am      7 UNK        -0.4243 
     45 CA         26.5638  -30.9348  -40.6009 C.3       7 UNK         0.0196 
     46 CB         27.6568  -31.5029  -41.5309 C.3       7 UNK        -0.2007 
     47 C          25.4831  -31.9786  -40.2494 C.2       7 UNK         0.5020 
     48 O          25.6193  -33.1509  -40.6040 O.2       7 UNK        -0.5147 
     49 N          24.4127  -31.5239  -39.5810 N.am      8 UNK        -0.4734 
     50 CA         23.2284  -32.2959  -39.1765 C.3       8 UNK         0.0238 
     51 CB         23.6024  -33.4175  -38.1825 C.3       8 UNK        -0.1912 
     52 C          22.3711  -32.8031  -40.3550 C.2       8 UNK         0.5038 
     53 O          21.5832  -33.7280  -40.1565 O.2       8 UNK        -0.5046 
     54 N          22.5313  -32.1846  -41.5362 N.am      9 UNK        -0.4200 
     55 CA         21.7995  -32.4117  -42.7960 C.3       9 UNK         0.0839 
     56 C          21.7898  -33.8681  -43.3520 C.2       9 UNK         0.5513 
     57 N          22.7192  -34.7278  -42.9523 N.am      9 UNK        -0.7519 
     58 O          20.9638  -34.2140  -44.1931 O.2       9 UNK        -0.4960 
     59 C59        20.4293  -31.6749  -42.8543 C.3       10 UNK        -0.0876 
     60 S60        19.1271  -32.3184  -41.7462 S.3       10 UNK        -0.2414 
     61 C61        17.7374  -32.5513  -42.8994 C.3       10 UNK         0.0169 
     62 H62        16.2889  -24.0766  -47.1237 H         1 UNK         0.0903 
     63 H63        16.5939  -25.0458  -48.5678 H         1 UNK         0.0903 
     64 H64        15.5157  -25.6526  -47.3093 H         1 UNK         0.0903 
     65 H65        18.6073  -25.9891  -48.5057 H         1 UNK         0.3096 
     66 H66        20.4217  -27.0939  -47.9591 H         1 UNK         0.1121 
     67 H67        18.9844  -28.1009  -45.4414 H         1 UNK         0.0849 
     68 H68        20.4338  -28.7701  -46.1118 H         1 UNK         0.0849 
     69 H69        16.4566  -28.3593  -46.9331 H         1 UNK         0.0865 
     70 H70        16.2594  -30.0516  -47.2773 H         1 UNK         0.0865 
     71 H71        17.7137  -31.6166  -45.4721 H         1 UNK         0.1346 
     72 H72        16.5800  -30.5458  -41.4783 H         1 UNK         0.1412 
     73 H73        15.9222  -27.7966  -44.7005 H         1 UNK         0.1426 
     74 H74        15.3182  -27.1278  -42.4968 H         1 UNK         0.0716 
     75 H75        14.6959  -28.4710  -41.5710 H         1 UNK         0.0716 
     76 H76        18.3399  -25.8383  -40.5941 H         1 UNK         0.0695 
     77 H77        17.2734  -25.7552  -41.9595 H         1 UNK         0.0695 
     78 H78        18.5204  -27.8328  -42.9049 H         1 UNK         0.0983 
     79 H79        19.0293  -26.1636  -44.1886 H         1 UNK         0.3095 
     80 H80        20.1655  -23.3661  -44.2916 H         1 UNK         0.0454 
     81 H81        22.4968  -23.3609  -45.2964 H         1 UNK         0.0851 
     82 H82        22.8927  -24.7574  -44.2931 H         1 UNK         0.0851 
     83 H83        22.4749  -23.2296  -43.5453 H         1 UNK         0.0851 
     84 H84        19.3954  -24.6670  -45.9202 H         1 UNK         0.2976 
     85 H85        19.0312  -27.9189  -39.8849 H         1 UNK         0.3116 
     86 H86        21.0179  -29.8864  -39.9782 H         1 UNK         0.0646 
     87 H87        19.2226  -29.8240  -38.2787 H         1 UNK         0.0847 
     88 H88        20.7861  -29.8817  -37.4852 H         1 UNK         0.0847 
     89 H89        19.9058  -28.3624  -37.5631 H         1 UNK         0.0847 
     90 H90        21.5923  -26.4941  -39.8657 H         1 UNK         0.3040 
     91 H91        24.1282  -26.4973  -38.4958 H         1 UNK         0.1015 
     92 H92        23.0644  -24.5554  -40.6178 H         1 UNK         0.0786 
     93 H93        24.4047  -24.2688  -39.5219 H         1 UNK         0.0786 
     94 H94        22.7755  -24.4154  -38.8827 H         1 UNK         0.0786 
     95 H95        23.1194  -27.4841  -41.7144 H         1 UNK         0.3172 
     96 H96        25.8597  -27.6021  -42.8032 H         1 UNK         0.0595 
     97 H97        23.1621  -28.5126  -43.9329 H         1 UNK         0.0839 
     98 H98        24.6973  -28.5562  -44.7875 H         1 UNK         0.0839 
     99 H99        24.0057  -27.0140  -44.3167 H         1 UNK         0.0839 
    100 H100       26.3334  -28.8317  -40.7206 H         1 UNK         0.2998 
    101 H101       27.0407  -30.6648  -39.6574 H         1 UNK         0.0822 
    102 H102       28.1410  -32.3719  -41.0834 H         1 UNK         0.0787 
    103 H103       27.2447  -31.8171  -42.4908 H         1 UNK         0.0787 
    104 H104       28.4353  -30.7653  -41.7257 H         1 UNK         0.0787 
    105 H105       24.3606  -30.5335  -39.3575 H         1 UNK         0.3055 
    106 H106       22.5864  -31.5988  -38.6371 H         1 UNK         0.1106 
    107 H107       22.7095  -33.8697  -37.7490 H         1 UNK         0.0828 
    108 H108       24.1663  -34.2172  -38.6632 H         1 UNK         0.0828 
    109 H109       24.2003  -33.0332  -37.3563 H         1 UNK         0.0828 
    110 H110       23.2725  -31.4977  -41.6100 H         1 UNK         0.2931 
    111 H111       22.4193  -31.8922  -43.5274 H         1 UNK         0.0412 
    112 H112       22.7215  -35.6647  -43.3237 H         1 UNK         0.3472 
    113 H113       23.4063  -34.4503  -42.2681 H         1 UNK         0.3472 
    114 H114       20.0620  -31.6726  -43.8817 H         1 UNK         0.0970 
    115 H115       20.5769  -30.6241  -42.6083 H         1 UNK         0.0970 
    116 H116       16.9341  -33.0773  -42.3820 H         1 UNK         0.0612 
    117 H117       18.0548  -33.1985  -43.7188 H         1 UNK         0.0612 
@<TRIPOS>BOND
     1    1    2 1    
     2    1   62 1    
     3    1   63 1    
     4    1   64 1    
     5    2    3 2    
     6    2    4 am   BACKBONE|DICT|INTERRES
     7    4    5 1    
     8    4   65 1    
     9    5    6 1    
    10    5   25 1    
    11    5   66 1    
    12    6    7 1    
    13    6   67 1    
    14    6   68 1    
    15    7    8 1    
    16    8    9 1    
    17    8   69 1    
    18    8   70 1    
    19    9   10 ar   
    20    9   14 ar   
    21   10   11 ar   
    22   10   71 1    
    23   11   12 ar   
    24   11   61 1    
    25   12   13 ar   
    26   12   72 1    
    27   13   14 ar   
    28   13   15 1    
    29   14   73 1    
    30   15   16 1    
    31   15   74 1    
    32   15   75 1    
    33   16   17 1    
    34   17   18 1    
    35   17   76 1    
    36   17   77 1    
    37   18   19 1    
    38   18   27 1    
    39   18   78 1    
    40   19   20 am   BACKBONE|DICT|INTERRES
    41   19   79 1    
    42   20   21 2    
    43   20   22 1    
    44   22   23 1    
    45   22   24 1    
    46   22   80 1    
    47   23   81 1    
    48   23   82 1    
    49   23   83 1    
    50   24   25 am   BACKBONE|DICT|INTERRES
    51   24   84 1    
    52   25   26 2    
    53   27   28 2    
    54   27   29 am   BACKBONE|DICT|INTERRES
    55   29   30 1    
    56   29   85 1    
    57   30   31 1    
    58   30   32 1    
    59   30   86 1    
    60   31   87 1    
    61   31   88 1    
    62   31   89 1    
    63   32   33 2    
    64   32   34 am   BACKBONE|DICT|INTERRES
    65   34   35 1    
    66   34   90 1    
    67   35   36 1    
    68   35   37 1    
    69   35   91 1    
    70   36   92 1    
    71   36   93 1    
    72   36   94 1    
    73   37   38 2    
    74   37   39 am   BACKBONE|DICT|INTERRES
    75   39   40 1    
    76   39   95 1    
    77   40   41 1    
    78   40   42 1    
    79   40   96 1    
    80   41   97 1    
    81   41   98 1    
    82   41   99 1    
    83   42   43 2    
    84   42   44 am   BACKBONE|DICT|INTERRES
    85   44   45 1    
    86   44  100 1    
    87   45   46 1    
    88   45   47 1    
    89   45  101 1    
    90   46  102 1    
    91   46  103 1    
    92   46  104 1    
    93   47   48 2    
    94   47   49 am   BACKBONE|DICT|INTERRES
    95   49   50 1    
    96   49  105 1    
    97   50   51 1    
    98   50   52 1    
    99   50  106 1    
   100   51  107 1    
   101   51  108 1    
   102   51  109 1    
   103   52   53 2    
   104   52   54 am   BACKBONE|DICT|INTERRES
   105   54   55 1    
   106   54  110 1    
   107   55   56 1    
   108   55   59 1    
   109   55  111 1    
   110   56   57 am   BACKBONE|DICT|INTERRES
   111   56   58 2    
   112   57  112 1    
   113   57  113 1    
   114   59   60 1    
   115   59  114 1    
   116   59  115 1    
   117   60   61 1    
   118   61  116 1    
   119   61  117 1    
@<TRIPOS>SUBSTRUCTURE
     1 UNK         1 GROUP             0       ****    0 ROOT    
