@<TRIPOS>MOLECULE
3R8
117   119    1
SMALL
USER_CHARGES


@<TRIPOS>ATOM
      1 CA         16.8609  -23.7205  -46.6320 C.3       0 UNK        -0.2013 
      2 C          15.6074  -24.5363  -46.3267 C.2       0 UNK         0.4866 
      3 O          14.5701  -23.9553  -46.0150 O.2       0 UNK        -0.5176 
      4 N          15.6420  -25.8747  -46.4010 N.am      1 UNK        -0.4884 
      5 CA         16.8025  -26.7227  -46.7140 C.3       1 UNK         0.0853 
      6 C6         16.3639  -28.1335  -47.1873 C.3       10 UNK        -0.0849 
      7 S7         15.3125  -29.0362  -45.9907 S.3       10 UNK        -0.2776 
      8 C8         16.2138  -30.6082  -45.7843 C.3       10 UNK         0.0316 
      9 C9         17.3832  -30.5008  -44.8127 C.ar      10 UNK        -0.0863 
     10 C10        17.1430  -30.4255  -43.4376 C.ar      10 UNK        -0.1009 
     11 C11        18.2044  -30.3873  -42.5278 C.ar      10 UNK        -0.0712 
     12 C12        19.5186  -30.4242  -43.0062 C.ar      10 UNK        -0.0894 
     13 C13        19.7742  -30.5071  -44.3780 C.ar      10 UNK        -0.0745 
     14 C14        18.7022  -30.5358  -45.2768 C.ar      10 UNK        -0.0972 
     15 C15        21.2040  -30.6234  -44.8888 C.3       10 UNK         0.0209 
     16 S16        21.9702  -29.0000  -45.2011 S.3       10 UNK        -0.2568 
     17 C17        22.5137  -28.5114  -43.5297 C.3       10 UNK        -0.0983 
     18 CA         21.8760  -27.1909  -43.0265 C.3       3 UNK         0.0876 
     19 N          20.4144  -27.2741  -43.0242 N.am      3 UNK        -0.4424 
     20 C          19.5590  -26.2476  -43.0607 C.2       2 UNK         0.4918 
     21 O          19.8990  -25.0625  -43.0893 O.2       2 UNK        -0.4875 
     22 CA         18.0674  -26.6230  -43.0477 C.3       2 UNK         0.0481 
     23 CB         17.3090  -25.8124  -41.9835 C.3       2 UNK        -0.1831 
     24 N          17.3819  -26.4815  -44.3357 N.am      2 UNK        -0.4498 
     25 C          17.8209  -26.8225  -45.5593 C.2       1 UNK         0.5027 
     26 O          18.9581  -27.2103  -45.8189 O.2       1 UNK        -0.4969 
     27 C          22.3997  -26.7896  -41.6278 C.2       3 UNK         0.5005 
     28 O          23.0903  -27.5752  -40.9738 O.2       3 UNK        -0.5279 
     29 N          22.0259  -25.5841  -41.1753 N.am      4 UNK        -0.4463 
     30 CA         22.3404  -25.0137  -39.8633 C.3       4 UNK         0.0283 
     31 CB         21.7273  -23.6072  -39.7611 C.3       4 UNK        -0.1875 
     32 C          23.8529  -24.9804  -39.5846 C.2       4 UNK         0.4949 
     33 O          24.5819  -24.2642  -40.2731 O.2       4 UNK        -0.5039 
     34 N          24.2784  -25.7810  -38.5967 N.am      5 UNK        -0.4663 
     35 CA         25.6647  -26.0062  -38.1648 C.3       5 UNK         0.0242 
     36 CB         26.2609  -24.7214  -37.5486 C.3       5 UNK        -0.1982 
     37 C          26.5698  -26.6234  -39.2540 C.2       5 UNK         0.5017 
     38 O          27.7821  -26.4006  -39.2281 O.2       5 UNK        -0.5012 
     39 N          25.9790  -27.3910  -40.1799 N.am      6 UNK        -0.4439 
     40 CA         26.6685  -28.0720  -41.2732 C.3       6 UNK         0.0297 
     41 CB         26.4323  -27.2977  -42.5872 C.3       6 UNK        -0.2006 
     42 C          26.2515  -29.5532  -41.2968 C.2       6 UNK         0.4892 
     43 O          26.4155  -30.2315  -40.2804 O.2       6 UNK        -0.5089 
     44 N          25.7785  -30.0435  -42.4509 N.am      7 UNK        -0.4243 
     45 CA         25.4061  -31.4393  -42.7030 C.3       7 UNK         0.0196 
     46 CB         25.1050  -31.6012  -44.2029 C.3       7 UNK        -0.2007 
     47 C          24.2164  -31.9360  -41.8590 C.2       7 UNK         0.5020 
     48 O          23.4027  -31.1392  -41.3901 O.2       7 UNK        -0.5147 
     49 N          24.1245  -33.2631  -41.7080 N.am      8 UNK        -0.4734 
     50 CA         23.0205  -33.9431  -41.0259 C.3       8 UNK         0.0238 
     51 CB         23.4204  -35.4032  -40.7557 C.3       8 UNK        -0.1912 
     52 C          21.7179  -33.8841  -41.8433 C.2       8 UNK         0.5038 
     53 O          21.7664  -33.8968  -43.0759 O.2       8 UNK        -0.5046 
     54 N          20.5842  -33.8543  -41.1344 N.am      9 UNK        -0.4200 
     55 CA         19.2312  -33.7650  -41.7103 C.3       9 UNK         0.0839 
     56 C          18.6703  -35.1056  -42.2676 C.2       9 UNK         0.5513 
     57 N          19.3465  -36.2356  -42.0978 N.am      9 UNK        -0.7519 
     58 O          17.5998  -35.1206  -42.8695 O.2       9 UNK        -0.4960 
     59 C59        18.2279  -33.1030  -40.7247 C.3       10 UNK        -0.0876 
     60 S60        18.8295  -31.5182  -40.0390 S.3       10 UNK        -0.2414 
     61 C61        17.9181  -30.2917  -41.0330 C.3       10 UNK         0.0169 
     62 H62        16.6373  -22.6543  -46.5968 H         1 UNK         0.0903 
     63 H63        17.6449  -23.9153  -45.9010 H         1 UNK         0.0903 
     64 H64        17.2416  -23.9409  -47.6287 H         1 UNK         0.0903 
     65 H65        14.7947  -26.3893  -46.2016 H         1 UNK         0.3096 
     66 H66        17.3380  -26.2675  -47.5493 H         1 UNK         0.1121 
     67 H67        15.7987  -28.0413  -48.1161 H         1 UNK         0.0849 
     68 H68        17.2377  -28.7360  -47.4434 H         1 UNK         0.0849 
     69 H69        15.5159  -31.3582  -45.4090 H         1 UNK         0.0865 
     70 H70        16.5448  -30.9741  -46.7576 H         1 UNK         0.0865 
     71 H71        16.1232  -30.4020  -43.0781 H         1 UNK         0.1346 
     72 H72        20.3424  -30.4217  -42.3049 H         1 UNK         0.1412 
     73 H73        18.8977  -30.6055  -46.3380 H         1 UNK         0.1426 
     74 H74        21.2139  -31.1929  -45.8193 H         1 UNK         0.0716 
     75 H75        21.8112  -31.1966  -44.1859 H         1 UNK         0.0716 
     76 H76        23.5982  -28.4197  -43.5641 H         1 UNK         0.0695 
     77 H77        22.3069  -29.3204  -42.8306 H         1 UNK         0.0695 
     78 H78        22.1716  -26.3984  -43.7178 H         1 UNK         0.0983 
     79 H79        20.0363  -28.2098  -43.0688 H         1 UNK         0.3095 
     80 H80        17.9854  -27.6728  -42.7701 H         1 UNK         0.0454 
     81 H81        17.2701  -24.7521  -42.2367 H         1 UNK         0.0851 
     82 H82        17.7924  -25.8967  -41.0091 H         1 UNK         0.0851 
     83 H83        16.2853  -26.1679  -41.8657 H         1 UNK         0.0851 
     84 H84        16.4222  -26.1723  -44.2840 H         1 UNK         0.2976 
     85 H85        21.4273  -25.0311  -41.7806 H         1 UNK         0.3116 
     86 H86        21.8569  -25.6438  -39.1139 H         1 UNK         0.0646 
     87 H87        20.6439  -23.6351  -39.8794 H         1 UNK         0.0847 
     88 H88        22.1305  -22.9350  -40.5197 H         1 UNK         0.0847 
     89 H89        21.9352  -23.1611  -38.7876 H         1 UNK         0.0847 
     90 H90        23.5858  -26.3471  -38.1247 H         1 UNK         0.3040 
     91 H91        25.6157  -26.7538  -37.3713 H         1 UNK         0.1015 
     92 H92        26.4146  -23.9456  -38.2993 H         1 UNK         0.0786 
     93 H93        27.2283  -24.9203  -37.0856 H         1 UNK         0.0786 
     94 H94        25.6119  -24.3146  -36.7731 H         1 UNK         0.0786 
     95 H95        24.9719  -27.5278  -40.1440 H         1 UNK         0.3172 
     96 H96        27.7448  -28.0818  -41.0899 H         1 UNK         0.0595 
     97 H97        25.3731  -27.2008  -42.8199 H         1 UNK         0.0839 
     98 H98        26.9292  -27.7740  -43.4334 H         1 UNK         0.0839 
     99 H99        26.8374  -26.2881  -42.5147 H         1 UNK         0.0839 
    100 H100       25.6652  -29.4057  -43.2236 H         1 UNK         0.2998 
    101 H101       26.2721  -32.0561  -42.4536 H         1 UNK         0.0822 
    102 H102       25.9745  -31.3534  -44.8120 H         1 UNK         0.0787 
    103 H103       24.8265  -32.6282  -44.4436 H         1 UNK         0.0787 
    104 H104       24.2815  -30.9606  -44.5186 H         1 UNK         0.0787 
    105 H105       24.8054  -33.8541  -42.1629 H         1 UNK         0.3055 
    106 H106       22.8555  -33.4414  -40.0692 H         1 UNK         0.1106 
    107 H107       23.5954  -35.9523  -41.6820 H         1 UNK         0.0828 
    108 H108       22.6377  -35.9297  -40.2081 H         1 UNK         0.0828 
    109 H109       24.3274  -35.4622  -40.1536 H         1 UNK         0.0828 
    110 H110       20.6300  -33.8602  -40.1263 H         1 UNK         0.2931 
    111 H111       19.2986  -33.1126  -42.5813 H         1 UNK         0.0412 
    112 H112       18.9719  -37.0959  -42.4666 H         1 UNK         0.3472 
    113 H113       20.2289  -36.2355  -41.6126 H         1 UNK         0.3472 
    114 H114       18.0255  -33.7728  -39.8871 H         1 UNK         0.0970 
    115 H115       17.2659  -32.9364  -41.2136 H         1 UNK         0.0970 
    116 H116       16.8516  -30.4066  -40.8328 H         1 UNK         0.0612 
    117 H117       18.1904  -29.2933  -40.6887 H         1 UNK         0.0612 
@<TRIPOS>BOND
     1    1    2 1    
     2    1   62 1    
     3    1   63 1    
     4    1   64 1    
     5    2    3 2    
     6    2    4 am   BACKBONE|DICT|INTERRES
     7    4    5 1    
     8    4   65 1    
     9    5    6 1    
    10    5   25 1    
    11    5   66 1    
    12    6    7 1    
    13    6   67 1    
    14    6   68 1    
    15    7    8 1    
    16    8    9 1    
    17    8   69 1    
    18    8   70 1    
    19    9   10 ar   
    20    9   14 ar   
    21   10   11 ar   
    22   10   71 1    
    23   11   12 ar   
    24   11   61 1    
    25   12   13 ar   
    26   12   72 1    
    27   13   14 ar   
    28   13   15 1    
    29   14   73 1    
    30   15   16 1    
    31   15   74 1    
    32   15   75 1    
    33   16   17 1    
    34   17   18 1    
    35   17   76 1    
    36   17   77 1    
    37   18   19 1    
    38   18   27 1    
    39   18   78 1    
    40   19   20 am   BACKBONE|DICT|INTERRES
    41   19   79 1    
    42   20   21 2    
    43   20   22 1    
    44   22   23 1    
    45   22   24 1    
    46   22   80 1    
    47   23   81 1    
    48   23   82 1    
    49   23   83 1    
    50   24   25 am   BACKBONE|DICT|INTERRES
    51   24   84 1    
    52   25   26 2    
    53   27   28 2    
    54   27   29 am   BACKBONE|DICT|INTERRES
    55   29   30 1    
    56   29   85 1    
    57   30   31 1    
    58   30   32 1    
    59   30   86 1    
    60   31   87 1    
    61   31   88 1    
    62   31   89 1    
    63   32   33 2    
    64   32   34 am   BACKBONE|DICT|INTERRES
    65   34   35 1    
    66   34   90 1    
    67   35   36 1    
    68   35   37 1    
    69   35   91 1    
    70   36   92 1    
    71   36   93 1    
    72   36   94 1    
    73   37   38 2    
    74   37   39 am   BACKBONE|DICT|INTERRES
    75   39   40 1    
    76   39   95 1    
    77   40   41 1    
    78   40   42 1    
    79   40   96 1    
    80   41   97 1    
    81   41   98 1    
    82   41   99 1    
    83   42   43 2    
    84   42   44 am   BACKBONE|DICT|INTERRES
    85   44   45 1    
    86   44  100 1    
    87   45   46 1    
    88   45   47 1    
    89   45  101 1    
    90   46  102 1    
    91   46  103 1    
    92   46  104 1    
    93   47   48 2    
    94   47   49 am   BACKBONE|DICT|INTERRES
    95   49   50 1    
    96   49  105 1    
    97   50   51 1    
    98   50   52 1    
    99   50  106 1    
   100   51  107 1    
   101   51  108 1    
   102   51  109 1    
   103   52   53 2    
   104   52   54 am   BACKBONE|DICT|INTERRES
   105   54   55 1    
   106   54  110 1    
   107   55   56 1    
   108   55   59 1    
   109   55  111 1    
   110   56   57 am   BACKBONE|DICT|INTERRES
   111   56   58 2    
   112   57  112 1    
   113   57  113 1    
   114   59   60 1    
   115   59  114 1    
   116   59  115 1    
   117   60   61 1    
   118   61  116 1    
   119   61  117 1    
@<TRIPOS>SUBSTRUCTURE
     1 UNK         1 GROUP             0       ****    0 ROOT    
