@<TRIPOS>MOLECULE
3R8
117   119    1
SMALL
USER_CHARGES


@<TRIPOS>ATOM
      1 CA         17.9086  -25.9366  -48.7440 C.3       0 UNK        -0.2013 
      2 C          18.0110  -26.7998  -47.4956 C.2       0 UNK         0.4866 
      3 O          18.6015  -27.8784  -47.5450 O.2       0 UNK        -0.5176 
      4 N          17.4382  -26.3352  -46.3785 N.am      1 UNK        -0.4884 
      5 CA         17.4537  -27.0066  -45.0753 C.3       1 UNK         0.0853 
      6 C6         16.2851  -26.5269  -44.1772 C.3       10 UNK        -0.0849 
      7 S7         14.6949  -27.1853  -44.7848 S.3       10 UNK        -0.2776 
      8 C8         14.2674  -28.4214  -43.5093 C.3       10 UNK         0.0316 
      9 C9         15.4157  -29.3682  -43.1729 C.ar      10 UNK        -0.0863 
     10 C10        15.9837  -30.1805  -44.1607 C.ar      10 UNK        -0.1009 
     11 C11        17.0505  -31.0291  -43.8515 C.ar      10 UNK        -0.0712 
     12 C12        17.5224  -31.0919  -42.5385 C.ar      10 UNK        -0.0894 
     13 C13        16.9537  -30.2995  -41.5376 C.ar      10 UNK        -0.0745 
     14 C14        15.9062  -29.4331  -41.8635 C.ar      10 UNK        -0.0972 
     15 C15        17.4326  -30.4242  -40.0967 C.3       10 UNK         0.0209 
     16 S16        19.2315  -30.2028  -39.9243 S.3       10 UNK        -0.2568 
     17 C17        19.3856  -28.3918  -39.8183 C.3       10 UNK        -0.0983 
     18 CA         20.7220  -27.9213  -40.4440 C.3       3 UNK         0.0876 
     19 N          20.6012  -27.6631  -41.8758 N.am      3 UNK        -0.4424 
     20 C          21.2361  -28.3215  -42.8463 C.2       2 UNK         0.4918 
     21 O          21.8715  -29.3598  -42.6697 O.2       2 UNK        -0.4875 
     22 CA         21.1545  -27.6886  -44.2490 C.3       2 UNK         0.0481 
     23 CB         22.0545  -28.3976  -45.2750 C.3       2 UNK        -0.1831 
     24 N          19.7851  -27.6719  -44.7601 N.am      2 UNK        -0.4498 
     25 C          18.8231  -26.8144  -44.3996 C.2       1 UNK         0.5027 
     26 O          18.9926  -25.8960  -43.5942 O.2       1 UNK        -0.4969 
     27 C          21.2256  -26.6183  -39.8017 C.2       3 UNK         0.5005 
     28 O          20.9884  -25.5342  -40.3435 O.2       3 UNK        -0.5279 
     29 N          21.9552  -26.7472  -38.6841 N.am      4 UNK        -0.4463 
     30 CA         22.6798  -25.7076  -37.9321 C.3       4 UNK         0.0283 
     31 CB         21.7528  -24.5715  -37.4565 C.3       4 UNK        -0.1875 
     32 C          23.9108  -25.1606  -38.6795 C.2       4 UNK         0.4949 
     33 O          24.9871  -25.0752  -38.0891 O.2       4 UNK        -0.5039 
     34 N          23.7500  -24.8544  -39.9730 N.am      5 UNK        -0.4663 
     35 CA         24.8306  -24.5403  -40.9142 C.3       5 UNK         0.0242 
     36 CB         24.2239  -23.8612  -42.1530 C.3       5 UNK        -0.1982 
     37 C          25.6452  -25.7828  -41.3290 C.2       5 UNK         0.5017 
     38 O          26.7587  -25.6364  -41.8337 O.2       5 UNK        -0.5012 
     39 N          25.0776  -26.9728  -41.1091 N.am      6 UNK        -0.4439 
     40 CA         25.6631  -28.2906  -41.3202 C.3       6 UNK         0.0297 
     41 CB         25.5028  -28.7095  -42.7931 C.3       6 UNK        -0.2006 
     42 C          24.9535  -29.2667  -40.3706 C.2       6 UNK         0.4892 
     43 O          23.9801  -28.8815  -39.7153 O.2       6 UNK        -0.5089 
     44 N          25.4545  -30.5061  -40.3005 N.am      7 UNK        -0.4243 
     45 CA         24.8821  -31.5713  -39.4715 C.3       7 UNK         0.0196 
     46 CB         25.8899  -32.7264  -39.3493 C.3       7 UNK        -0.2007 
     47 C          23.5306  -32.0842  -39.9998 C.2       7 UNK         0.5020 
     48 O          22.6299  -32.3397  -39.2007 O.2       7 UNK        -0.5147 
     49 N          23.4211  -32.2251  -41.3255 N.am      8 UNK        -0.4734 
     50 CA         22.2409  -32.6716  -42.0634 C.3       8 UNK         0.0238 
     51 CB         21.9386  -34.1567  -41.7677 C.3       8 UNK        -0.1912 
     52 C          22.4966  -32.4647  -43.5631 C.2       8 UNK         0.5038 
     53 O          23.6451  -32.2465  -43.9630 O.2       8 UNK        -0.5046 
     54 N          21.4264  -32.5600  -44.3608 N.am      9 UNK        -0.4200 
     55 CA         21.4565  -32.4864  -45.8295 C.3       9 UNK         0.0839 
     56 C          22.2182  -33.6776  -46.4721 C.2       9 UNK         0.5513 
     57 N          22.9125  -33.4462  -47.5777 N.am      9 UNK        -0.7519 
     58 O          22.1455  -34.8128  -46.0054 O.2       9 UNK        -0.4960 
     59 C59        20.0314  -32.3647  -46.4338 C.3       10 UNK        -0.0876 
     60 S60        19.0704  -30.9851  -45.7200 S.3       10 UNK        -0.2414 
     61 C61        17.7014  -31.8818  -44.9264 C.3       10 UNK         0.0169 
     62 H62        17.3531  -25.0170  -48.5608 H         1 UNK         0.0903 
     63 H63        18.9040  -25.6675  -49.0961 H         1 UNK         0.0903 
     64 H64        17.4030  -26.4854  -49.5381 H         1 UNK         0.0903 
     65 H65        16.9743  -25.4380  -46.3974 H         1 UNK         0.3096 
     66 H66        17.3344  -28.0793  -45.2393 H         1 UNK         0.1121 
     67 H67        16.2333  -25.4369  -44.1545 H         1 UNK         0.0849 
     68 H68        16.4302  -26.8351  -43.1402 H         1 UNK         0.0849 
     69 H69        13.9289  -27.8929  -42.6167 H         1 UNK         0.0865 
     70 H70        13.4147  -29.0066  -43.8563 H         1 UNK         0.0865 
     71 H71        15.6113  -30.1323  -45.1751 H         1 UNK         0.1346 
     72 H72        18.3361  -31.7599  -42.2919 H         1 UNK         0.1412 
     73 H73        15.4617  -28.8190  -41.0920 H         1 UNK         0.1426 
     74 H74        17.1724  -31.4200  -39.7353 H         1 UNK         0.0716 
     75 H75        16.9169  -29.7185  -39.4435 H         1 UNK         0.0716 
     76 H76        19.3234  -28.1354  -38.7586 H         1 UNK         0.0695 
     77 H77        18.5336  -27.9085  -40.3006 H         1 UNK         0.0695 
     78 H78        21.4880  -28.6794  -40.2691 H         1 UNK         0.0983 
     79 H79        20.1296  -26.7966  -42.1169 H         1 UNK         0.3095 
     80 H80        21.5068  -26.6586  -44.1622 H         1 UNK         0.0454 
     81 H81        21.7695  -29.4411  -45.3967 H         1 UNK         0.0851 
     82 H82        23.0987  -28.3779  -44.9637 H         1 UNK         0.0851 
     83 H83        21.9993  -27.9184  -46.2525 H         1 UNK         0.0851 
     84 H84        19.5555  -28.3770  -45.4508 H         1 UNK         0.2976 
     85 H85        22.1425  -27.6910  -38.3682 H         1 UNK         0.3116 
     86 H86        23.0568  -26.2092  -37.0392 H         1 UNK         0.0646 
     87 H87        21.3676  -23.9769  -38.2851 H         1 UNK         0.0847 
     88 H88        22.2880  -23.8889  -36.7953 H         1 UNK         0.0847 
     89 H89        20.9013  -24.9613  -36.8989 H         1 UNK         0.0847 
     90 H90        22.8090  -24.9343  -40.3514 H         1 UNK         0.3040 
     91 H91        25.5193  -23.8412  -40.4345 H         1 UNK         0.1015 
     92 H92        23.5189  -24.5158  -42.6676 H         1 UNK         0.0786 
     93 H93        25.0002  -23.5891  -42.8697 H         1 UNK         0.0786 
     94 H94        23.6970  -22.9452  -41.8849 H         1 UNK         0.0786 
     95 H95        24.1946  -27.0046  -40.6150 H         1 UNK         0.3172 
     96 H96        26.7218  -28.2604  -41.0548 H         1 UNK         0.0595 
     97 H97        25.9871  -29.6664  -42.9893 H         1 UNK         0.0839 
     98 H98        25.9498  -27.9793  -43.4678 H         1 UNK         0.0839 
     99 H99        24.4532  -28.8172  -43.0641 H         1 UNK         0.0839 
    100 H100       26.2621  -30.7428  -40.8589 H         1 UNK         0.2998 
    101 H101       24.7111  -31.1662  -38.4713 H         1 UNK         0.0822 
    102 H102       25.4923  -33.5242  -38.7203 H         1 UNK         0.0787 
    103 H103       26.1251  -33.1643  -40.3203 H         1 UNK         0.0787 
    104 H104       26.8232  -32.3928  -38.8953 H         1 UNK         0.0787 
    105 H105       24.1941  -31.9613  -41.9247 H         1 UNK         0.3055 
    106 H106       21.3935  -32.0481  -41.7676 H         1 UNK         0.1106 
    107 H107       21.0844  -34.5112  -42.3455 H         1 UNK         0.0828 
    108 H108       22.7873  -34.7944  -42.0181 H         1 UNK         0.0828 
    109 H109       21.6964  -34.3199  -40.7180 H         1 UNK         0.0828 
    110 H110       20.5252  -32.7483  -43.9515 H         1 UNK         0.2931 
    111 H111       22.0040  -31.5787  -46.0865 H         1 UNK         0.0412 
    112 H112       23.3999  -34.2104  -48.0196 H         1 UNK         0.3472 
    113 H113       22.9700  -32.5207  -47.9741 H         1 UNK         0.3472 
    114 H114       19.4824  -33.3006  -46.3139 H         1 UNK         0.0970 
    115 H115       20.0955  -32.1960  -47.5104 H         1 UNK         0.0970 
    116 H116       18.0697  -32.8081  -44.4828 H         1 UNK         0.0612 
    117 H117       16.9699  -32.1688  -45.6833 H         1 UNK         0.0612 
@<TRIPOS>BOND
     1    1    2 1    
     2    1   62 1    
     3    1   63 1    
     4    1   64 1    
     5    2    3 2    
     6    2    4 am   BACKBONE|DICT|INTERRES
     7    4    5 1    
     8    4   65 1    
     9    5    6 1    
    10    5   25 1    
    11    5   66 1    
    12    6    7 1    
    13    6   67 1    
    14    6   68 1    
    15    7    8 1    
    16    8    9 1    
    17    8   69 1    
    18    8   70 1    
    19    9   10 ar   
    20    9   14 ar   
    21   10   11 ar   
    22   10   71 1    
    23   11   12 ar   
    24   11   61 1    
    25   12   13 ar   
    26   12   72 1    
    27   13   14 ar   
    28   13   15 1    
    29   14   73 1    
    30   15   16 1    
    31   15   74 1    
    32   15   75 1    
    33   16   17 1    
    34   17   18 1    
    35   17   76 1    
    36   17   77 1    
    37   18   19 1    
    38   18   27 1    
    39   18   78 1    
    40   19   20 am   BACKBONE|DICT|INTERRES
    41   19   79 1    
    42   20   21 2    
    43   20   22 1    
    44   22   23 1    
    45   22   24 1    
    46   22   80 1    
    47   23   81 1    
    48   23   82 1    
    49   23   83 1    
    50   24   25 am   BACKBONE|DICT|INTERRES
    51   24   84 1    
    52   25   26 2    
    53   27   28 2    
    54   27   29 am   BACKBONE|DICT|INTERRES
    55   29   30 1    
    56   29   85 1    
    57   30   31 1    
    58   30   32 1    
    59   30   86 1    
    60   31   87 1    
    61   31   88 1    
    62   31   89 1    
    63   32   33 2    
    64   32   34 am   BACKBONE|DICT|INTERRES
    65   34   35 1    
    66   34   90 1    
    67   35   36 1    
    68   35   37 1    
    69   35   91 1    
    70   36   92 1    
    71   36   93 1    
    72   36   94 1    
    73   37   38 2    
    74   37   39 am   BACKBONE|DICT|INTERRES
    75   39   40 1    
    76   39   95 1    
    77   40   41 1    
    78   40   42 1    
    79   40   96 1    
    80   41   97 1    
    81   41   98 1    
    82   41   99 1    
    83   42   43 2    
    84   42   44 am   BACKBONE|DICT|INTERRES
    85   44   45 1    
    86   44  100 1    
    87   45   46 1    
    88   45   47 1    
    89   45  101 1    
    90   46  102 1    
    91   46  103 1    
    92   46  104 1    
    93   47   48 2    
    94   47   49 am   BACKBONE|DICT|INTERRES
    95   49   50 1    
    96   49  105 1    
    97   50   51 1    
    98   50   52 1    
    99   50  106 1    
   100   51  107 1    
   101   51  108 1    
   102   51  109 1    
   103   52   53 2    
   104   52   54 am   BACKBONE|DICT|INTERRES
   105   54   55 1    
   106   54  110 1    
   107   55   56 1    
   108   55   59 1    
   109   55  111 1    
   110   56   57 am   BACKBONE|DICT|INTERRES
   111   56   58 2    
   112   57  112 1    
   113   57  113 1    
   114   59   60 1    
   115   59  114 1    
   116   59  115 1    
   117   60   61 1    
   118   61  116 1    
   119   61  117 1    
@<TRIPOS>SUBSTRUCTURE
     1 UNK         1 GROUP             0       ****    0 ROOT    
