@<TRIPOS>MOLECULE
3R8
117   119    1
SMALL
USER_CHARGES


@<TRIPOS>ATOM
      1 CA         15.7285  -27.8872  -43.3755 C.3       0 UNK        -0.2013 
      2 C          16.3496  -26.8540  -44.3025 C.2       0 UNK         0.4866 
      3 O          15.8134  -25.7535  -44.4319 O.2       0 UNK        -0.5176 
      4 N          17.4581  -27.2088  -44.9658 N.am      1 UNK        -0.4884 
      5 CA         18.1343  -26.3847  -45.9761 C.3       1 UNK         0.0853 
      6 C6         19.2035  -27.1816  -46.7664 C.3       10 UNK        -0.0849 
      7 S7         18.5364  -28.6783  -47.5717 S.3       10 UNK        -0.2776 
      8 C8         19.4880  -30.0074  -46.7645 C.3       10 UNK         0.0316 
      9 C9         18.9020  -30.3970  -45.4144 C.ar      10 UNK        -0.0863 
     10 C10        17.9128  -31.3834  -45.3417 C.ar      10 UNK        -0.1009 
     11 C11        17.4073  -31.7911  -44.1037 C.ar      10 UNK        -0.0712 
     12 C12        17.8623  -31.1740  -42.9372 C.ar      10 UNK        -0.0894 
     13 C13        18.8647  -30.2060  -42.9953 C.ar      10 UNK        -0.0745 
     14 C14        19.3840  -29.8202  -44.2349 C.ar      10 UNK        -0.0972 
     15 C15        19.4280  -29.6300  -41.7115 C.3       10 UNK         0.0209 
     16 S16        18.5394  -28.1346  -41.1974 S.3       10 UNK        -0.2568 
     17 C17        19.7261  -27.4630  -39.9864 C.3       10 UNK        -0.0983 
     18 CA         20.8847  -26.7296  -40.7007 C.3       3 UNK         0.0876 
     19 N          20.3917  -25.6781  -41.5950 N.am      3 UNK        -0.4424 
     20 C          21.1280  -25.0685  -42.5280 C.2       2 UNK         0.4918 
     21 O          22.3450  -25.2163  -42.6391 O.2       2 UNK        -0.4875 
     22 CA         20.3428  -24.2916  -43.5909 C.3       2 UNK         0.0481 
     23 CB         21.2863  -23.5033  -44.5293 C.3       2 UNK        -0.1831 
     24 N          19.5525  -25.2906  -44.3159 N.am      2 UNK        -0.4498 
     25 C          18.7587  -25.1068  -45.3782 C.2       1 UNK         0.5027 
     26 O          18.5173  -24.0119  -45.8884 O.2       1 UNK        -0.4969 
     27 C          21.9768  -26.2530  -39.7243 C.2       3 UNK         0.5005 
     28 O          22.1151  -25.0529  -39.4766 O.2       3 UNK        -0.5279 
     29 N          22.7713  -27.2204  -39.2473 N.am      4 UNK        -0.4463 
     30 CA         24.0666  -27.1019  -38.5681 C.3       4 UNK         0.0283 
     31 CB         24.0678  -26.1020  -37.3946 C.3       4 UNK        -0.1875 
     32 C          25.2012  -26.8329  -39.5689 C.2       4 UNK         0.4949 
     33 O          26.1985  -27.5536  -39.5424 O.2       4 UNK        -0.5039 
     34 N          25.0183  -25.8554  -40.4694 N.am      5 UNK        -0.4663 
     35 CA         25.9092  -25.6169  -41.6097 C.3       5 UNK         0.0242 
     36 CB         25.6784  -24.2092  -42.1836 C.3       5 UNK        -0.1982 
     37 C          25.7344  -26.7062  -42.6809 C.2       5 UNK         0.5017 
     38 O          26.7155  -27.3391  -43.0699 O.2       5 UNK        -0.5012 
     39 N          24.4794  -26.9584  -43.0778 N.am      6 UNK        -0.4439 
     40 CA         24.0618  -28.0503  -43.9634 C.3       6 UNK         0.0297 
     41 CB         22.8845  -27.5746  -44.8364 C.3       6 UNK        -0.2006 
     42 C          23.7206  -29.3332  -43.1759 C.2       6 UNK         0.4892 
     43 O          22.7796  -30.0395  -43.5415 O.2       6 UNK        -0.5089 
     44 N          24.4925  -29.6112  -42.1144 N.am      7 UNK        -0.4243 
     45 CA         24.4079  -30.7782  -41.2305 C.3       7 UNK         0.0196 
     46 CB         24.8416  -32.0550  -41.9892 C.3       7 UNK        -0.2007 
     47 C          23.0420  -30.8988  -40.5223 C.2       7 UNK         0.5020 
     48 O          22.4813  -29.8809  -40.1084 O.2       7 UNK        -0.5147 
     49 N          22.5520  -32.1336  -40.3661 N.am      8 UNK        -0.4734 
     50 CA         21.3077  -32.4869  -39.6836 C.3       8 UNK         0.0238 
     51 CB         21.6313  -32.9925  -38.2643 C.3       8 UNK        -0.1912 
     52 C          20.5307  -33.5115  -40.5284 C.2       8 UNK         0.5038 
     53 O          20.1133  -34.5486  -40.0100 O.2       8 UNK        -0.5046 
     54 N          20.3751  -33.2078  -41.8241 N.am      9 UNK        -0.4200 
     55 CA         19.7965  -34.0808  -42.8595 C.3       9 UNK         0.0839 
     56 C          20.7238  -35.2766  -43.2341 C.2       9 UNK         0.5513 
     57 N          20.2303  -36.2377  -44.0025 N.am      9 UNK        -0.7519 
     58 O          21.8983  -35.3260  -42.8720 O.2       9 UNK        -0.4960 
     59 C59        18.3177  -34.4904  -42.5579 C.3       10 UNK        -0.0876 
     60 S60        17.2745  -34.5536  -44.0603 S.3       10 UNK        -0.2414 
     61 C61        16.4185  -32.9424  -44.0148 C.3       10 UNK         0.0169 
     62 H62        16.2670  -28.8334  -43.4028 H         1 UNK         0.0903 
     63 H63        15.7322  -27.5224  -42.3489 H         1 UNK         0.0903 
     64 H64        14.6960  -28.0796  -43.6653 H         1 UNK         0.0903 
     65 H65        17.8267  -28.1434  -44.8459 H         1 UNK         0.3096 
     66 H66        17.3707  -26.0600  -46.6870 H         1 UNK         0.1121 
     67 H67        20.0389  -27.4561  -46.1211 H         1 UNK         0.0849 
     68 H68        19.6314  -26.5553  -47.5519 H         1 UNK         0.0849 
     69 H69        19.4902  -30.8780  -47.4223 H         1 UNK         0.0865 
     70 H70        20.5343  -29.7151  -46.6616 H         1 UNK         0.0865 
     71 H71        17.5611  -31.8610  -46.2461 H         1 UNK         0.1346 
     72 H72        17.4730  -31.4817  -41.9766 H         1 UNK         0.1412 
     73 H73        20.1813  -29.0916  -44.2761 H         1 UNK         0.1426 
     74 H74        20.4884  -29.4237  -41.8510 H         1 UNK         0.0716 
     75 H75        19.3588  -30.3629  -40.9094 H         1 UNK         0.0716 
     76 H76        20.0963  -28.2820  -39.3661 H         1 UNK         0.0695 
     77 H77        19.1946  -26.7835  -39.3177 H         1 UNK         0.0695 
     78 H78        21.3857  -27.4506  -41.3495 H         1 UNK         0.0983 
     79 H79        19.3986  -25.5012  -41.5592 H         1 UNK         0.3095 
     80 H80        19.6687  -23.5968  -43.0869 H         1 UNK         0.0454 
     81 H81        20.7367  -22.8524  -45.2080 H         1 UNK         0.0851 
     82 H82        21.9063  -24.1696  -45.1302 H         1 UNK         0.0851 
     83 H83        21.9580  -22.8623  -43.9568 H         1 UNK         0.0851 
     84 H84        19.6357  -26.2320  -43.9580 H         1 UNK         0.2976 
     85 H85        22.5597  -28.1780  -39.5352 H         1 UNK         0.3116 
     86 H86        24.2508  -28.0904  -38.1437 H         1 UNK         0.0646 
     87 H87        24.0032  -25.0671  -37.7310 H         1 UNK         0.0847 
     88 H88        24.9888  -26.1906  -36.8175 H         1 UNK         0.0847 
     89 H89        23.2381  -26.2878  -36.7127 H         1 UNK         0.0847 
     90 H90        24.1624  -25.3146  -40.4236 H         1 UNK         0.3040 
     91 H91        26.9418  -25.6656  -41.2557 H         1 UNK         0.1015 
     92 H92        24.6580  -24.0680  -42.5383 H         1 UNK         0.0786 
     93 H93        26.3438  -24.0204  -43.0271 H         1 UNK         0.0786 
     94 H94        25.8793  -23.4416  -41.4362 H         1 UNK         0.0786 
     95 H95        23.7355  -26.3466  -42.7439 H         1 UNK         0.3172 
     96 H96        24.8859  -28.3006  -44.6342 H         1 UNK         0.0595 
     97 H97        21.9873  -27.4059  -44.2422 H         1 UNK         0.0839 
     98 H98        22.6367  -28.3169  -45.5962 H         1 UNK         0.0839 
     99 H99        23.1223  -26.6467  -45.3567 H         1 UNK         0.0839 
    100 H100       25.2277  -28.9532  -41.8945 H         1 UNK         0.2998 
    101 H101       25.1363  -30.6029  -40.4372 H         1 UNK         0.0822 
    102 H102       25.7973  -31.9050  -42.4918 H         1 UNK         0.0787 
    103 H103       24.9753  -32.8991  -41.3116 H         1 UNK         0.0787 
    104 H104       24.1142  -32.3461  -42.7487 H         1 UNK         0.0787 
    105 H105       23.0652  -32.9063  -40.7694 H         1 UNK         0.3055 
    106 H106       20.6697  -31.6084  -39.5826 H         1 UNK         0.1106 
    107 H107       22.1585  -32.2342  -37.6852 H         1 UNK         0.0828 
    108 H108       22.2523  -33.8888  -38.2873 H         1 UNK         0.0828 
    109 H109       20.7197  -33.2388  -37.7183 H         1 UNK         0.0828 
    110 H110       20.7929  -32.3547  -42.1672 H         1 UNK         0.2931 
    111 H111       19.7986  -33.4457  -43.7461 H         1 UNK         0.0412 
    112 H112       20.8186  -37.0118  -44.2692 H         1 UNK         0.3472 
    113 H113       19.2745  -36.1913  -44.3239 H         1 UNK         0.3472 
    114 H114       17.8579  -33.7967  -41.8545 H         1 UNK         0.0970 
    115 H115       18.2762  -35.4583  -42.0547 H         1 UNK         0.0970 
    116 H116       15.8225  -32.8717  -43.1036 H         1 UNK         0.0612 
    117 H117       15.7155  -32.8898  -44.8473 H         1 UNK         0.0612 
@<TRIPOS>BOND
     1    1    2 1    
     2    1   62 1    
     3    1   63 1    
     4    1   64 1    
     5    2    3 2    
     6    2    4 am   BACKBONE|DICT|INTERRES
     7    4    5 1    
     8    4   65 1    
     9    5    6 1    
    10    5   25 1    
    11    5   66 1    
    12    6    7 1    
    13    6   67 1    
    14    6   68 1    
    15    7    8 1    
    16    8    9 1    
    17    8   69 1    
    18    8   70 1    
    19    9   10 ar   
    20    9   14 ar   
    21   10   11 ar   
    22   10   71 1    
    23   11   12 ar   
    24   11   61 1    
    25   12   13 ar   
    26   12   72 1    
    27   13   14 ar   
    28   13   15 1    
    29   14   73 1    
    30   15   16 1    
    31   15   74 1    
    32   15   75 1    
    33   16   17 1    
    34   17   18 1    
    35   17   76 1    
    36   17   77 1    
    37   18   19 1    
    38   18   27 1    
    39   18   78 1    
    40   19   20 am   BACKBONE|DICT|INTERRES
    41   19   79 1    
    42   20   21 2    
    43   20   22 1    
    44   22   23 1    
    45   22   24 1    
    46   22   80 1    
    47   23   81 1    
    48   23   82 1    
    49   23   83 1    
    50   24   25 am   BACKBONE|DICT|INTERRES
    51   24   84 1    
    52   25   26 2    
    53   27   28 2    
    54   27   29 am   BACKBONE|DICT|INTERRES
    55   29   30 1    
    56   29   85 1    
    57   30   31 1    
    58   30   32 1    
    59   30   86 1    
    60   31   87 1    
    61   31   88 1    
    62   31   89 1    
    63   32   33 2    
    64   32   34 am   BACKBONE|DICT|INTERRES
    65   34   35 1    
    66   34   90 1    
    67   35   36 1    
    68   35   37 1    
    69   35   91 1    
    70   36   92 1    
    71   36   93 1    
    72   36   94 1    
    73   37   38 2    
    74   37   39 am   BACKBONE|DICT|INTERRES
    75   39   40 1    
    76   39   95 1    
    77   40   41 1    
    78   40   42 1    
    79   40   96 1    
    80   41   97 1    
    81   41   98 1    
    82   41   99 1    
    83   42   43 2    
    84   42   44 am   BACKBONE|DICT|INTERRES
    85   44   45 1    
    86   44  100 1    
    87   45   46 1    
    88   45   47 1    
    89   45  101 1    
    90   46  102 1    
    91   46  103 1    
    92   46  104 1    
    93   47   48 2    
    94   47   49 am   BACKBONE|DICT|INTERRES
    95   49   50 1    
    96   49  105 1    
    97   50   51 1    
    98   50   52 1    
    99   50  106 1    
   100   51  107 1    
   101   51  108 1    
   102   51  109 1    
   103   52   53 2    
   104   52   54 am   BACKBONE|DICT|INTERRES
   105   54   55 1    
   106   54  110 1    
   107   55   56 1    
   108   55   59 1    
   109   55  111 1    
   110   56   57 am   BACKBONE|DICT|INTERRES
   111   56   58 2    
   112   57  112 1    
   113   57  113 1    
   114   59   60 1    
   115   59  114 1    
   116   59  115 1    
   117   60   61 1    
   118   61  116 1    
   119   61  117 1    
@<TRIPOS>SUBSTRUCTURE
     1 UNK         1 GROUP             0       ****    0 ROOT    
