@<TRIPOS>MOLECULE
3R8
117   119    1
SMALL
USER_CHARGES


@<TRIPOS>ATOM
      1 CA         12.9833  -24.2347  -43.2659 C.3       0 UNK        -0.2013 
      2 C          14.3827  -24.7466  -43.5770 C.2       0 UNK         0.4866 
      3 O          15.2442  -24.7080  -42.6987 O.2       0 UNK        -0.5176 
      4 N          14.5877  -25.2266  -44.8131 N.am      1 UNK        -0.4884 
      5 CA         15.8331  -25.7445  -45.4053 C.3       1 UNK         0.0853 
      6 C6         16.5409  -26.8516  -44.5764 C.3       10 UNK        -0.0849 
      7 S7         15.4828  -28.2970  -44.2207 S.3       10 UNK        -0.2776 
      8 C8         16.5691  -29.6932  -44.6806 C.3       10 UNK         0.0316 
      9 C9         17.9219  -29.6826  -43.9699 C.ar      10 UNK        -0.0863 
     10 C10        18.0094  -29.4963  -42.5861 C.ar      10 UNK        -0.1009 
     11 C11        19.2521  -29.4747  -41.9453 C.ar      10 UNK        -0.0712 
     12 C12        20.4176  -29.6606  -42.6956 C.ar      10 UNK        -0.0894 
     13 C13        20.3440  -29.8662  -44.0761 C.ar      10 UNK        -0.0745 
     14 C14        19.0951  -29.8762  -44.7057 C.ar      10 UNK        -0.0972 
     15 C15        21.6111  -30.1106  -44.8835 C.3       10 UNK         0.0209 
     16 S16        22.6053  -28.6020  -45.1293 S.3       10 UNK        -0.2568 
     17 C17        21.4888  -27.5803  -46.1584 C.3       10 UNK        -0.0983 
     18 CA         21.1909  -26.1442  -45.6412 C.3       3 UNK         0.0876 
     19 N          20.0971  -25.5609  -46.4159 N.am      3 UNK        -0.4424 
     20 C          19.9099  -24.2566  -46.6481 C.2       2 UNK         0.4918 
     21 O          20.7141  -23.3774  -46.3381 O.2       2 UNK        -0.4875 
     22 CA         18.5883  -23.8750  -47.3406 C.3       2 UNK         0.0481 
     23 CB         18.7431  -23.9369  -48.8688 C.3       2 UNK        -0.1831 
     24 N          17.4820  -24.7447  -46.9215 N.am      2 UNK        -0.4498 
     25 C          16.8270  -24.6145  -45.7576 C.2       1 UNK         0.5027 
     26 O          17.0074  -23.6697  -44.9860 O.2       1 UNK        -0.4969 
     27 C          20.8245  -26.0832  -44.1416 C.2       3 UNK         0.5005 
     28 O          19.6460  -26.1752  -43.7927 O.2       3 UNK        -0.5279 
     29 N          21.8438  -25.9470  -43.2856 N.am      4 UNK        -0.4463 
     30 CA         21.7245  -25.9944  -41.8275 C.3       4 UNK         0.0283 
     31 CB         21.4341  -24.5838  -41.2786 C.3       4 UNK        -0.1875 
     32 C          22.9686  -26.6378  -41.1884 C.2       4 UNK         0.4949 
     33 O          23.2691  -26.3562  -40.0277 O.2       4 UNK        -0.5039 
     34 N          23.6896  -27.4756  -41.9489 N.am      5 UNK        -0.4663 
     35 CA         24.8858  -28.1828  -41.4909 C.3       5 UNK         0.0242 
     36 CB         25.6971  -28.6523  -42.7104 C.3       5 UNK        -0.1982 
     37 C          24.4823  -29.3700  -40.6077 C.2       5 UNK         0.5017 
     38 O          23.9058  -30.3270  -41.1254 O.2       5 UNK        -0.5012 
     39 N          24.7801  -29.2903  -39.3034 N.am      6 UNK        -0.4439 
     40 CA         24.3741  -30.2558  -38.2726 C.3       6 UNK         0.0297 
     41 CB         24.9037  -29.7975  -36.9047 C.3       6 UNK        -0.2006 
     42 C          24.7909  -31.7124  -38.5461 C.2       6 UNK         0.4892 
     43 O          24.0220  -32.6259  -38.2443 O.2       6 UNK        -0.5089 
     44 N          25.9778  -31.8977  -39.1409 N.am      7 UNK        -0.4243 
     45 CA         26.5172  -33.2014  -39.5381 C.3       7 UNK         0.0196 
     46 CB         27.9899  -33.0370  -39.9470 C.3       7 UNK        -0.2007 
     47 C          25.7185  -33.8794  -40.6662 C.2       7 UNK         0.5020 
     48 O          25.6672  -35.1087  -40.7098 O.2       7 UNK        -0.5147 
     49 N          25.1119  -33.0762  -41.5499 N.am      8 UNK        -0.4734 
     50 CA         24.2240  -33.5429  -42.6163 C.3       8 UNK         0.0238 
     51 CB         24.3788  -32.6233  -43.8369 C.3       8 UNK        -0.1912 
     52 C          22.7605  -33.6116  -42.1465 C.2       8 UNK         0.5038 
     53 O          22.0263  -34.4881  -42.6038 O.2       8 UNK        -0.5046 
     54 N          22.3741  -32.7042  -41.2388 N.am      9 UNK        -0.4200 
     55 CA         21.0769  -32.6688  -40.5483 C.3       9 UNK         0.0839 
     56 C          20.7900  -33.9539  -39.7230 C.2       9 UNK         0.5513 
     57 N          21.7391  -34.4144  -38.9158 N.am      9 UNK        -0.7519 
     58 O          19.7125  -34.5352  -39.8202 O.2       9 UNK        -0.4960 
     59 C59        20.9548  -31.3995  -39.6613 C.3       10 UNK        -0.0876 
     60 S60        19.2443  -30.7896  -39.5047 S.3       10 UNK        -0.2414 
     61 C61        19.3247  -29.2329  -40.4456 C.3       10 UNK         0.0169 
     62 H62        12.3120  -24.3292  -44.1193 H         1 UNK         0.0903 
     63 H63        12.5553  -24.7958  -42.4354 H         1 UNK         0.0903 
     64 H64        13.0234  -23.1834  -42.9817 H         1 UNK         0.0903 
     65 H65        13.8096  -25.2036  -45.4580 H         1 UNK         0.3096 
     66 H66        15.5225  -26.1994  -46.3476 H         1 UNK         0.1121 
     67 H67        16.9088  -26.4576  -43.6276 H         1 UNK         0.0849 
     68 H68        17.4298  -27.1951  -45.1081 H         1 UNK         0.0849 
     69 H69        16.0584  -30.6277  -44.4451 H         1 UNK         0.0865 
     70 H70        16.7025  -29.6821  -45.7635 H         1 UNK         0.0865 
     71 H71        17.1072  -29.3536  -42.0073 H         1 UNK         0.1346 
     72 H72        21.3837  -29.6490  -42.2104 H         1 UNK         0.1412 
     73 H73        19.0374  -30.0387  -45.7733 H         1 UNK         0.1426 
     74 H74        21.3753  -30.5458  -45.8558 H         1 UNK         0.0716 
     75 H75        22.2141  -30.8503  -44.3612 H         1 UNK         0.0716 
     76 H76        20.5530  -28.1209  -46.2990 H         1 UNK         0.0695 
     77 H77        21.9316  -27.5160  -47.1535 H         1 UNK         0.0695 
     78 H78        22.0876  -25.5388  -45.7925 H         1 UNK         0.0983 
     79 H79        19.3539  -26.1949  -46.6621 H         1 UNK         0.3095 
     80 H80        18.3523  -22.8435  -47.0701 H         1 UNK         0.0454 
     81 H81        18.9791  -24.9438  -49.2151 H         1 UNK         0.0851 
     82 H82        19.5476  -23.2811  -49.2046 H         1 UNK         0.0851 
     83 H83        17.8327  -23.6127  -49.3730 H         1 UNK         0.0851 
     84 H84        17.2584  -25.5196  -47.5302 H         1 UNK         0.2976 
     85 H85        22.7834  -25.8591  -43.6491 H         1 UNK         0.3116 
     86 H86        20.8871  -26.6427  -41.5613 H         1 UNK         0.0646 
     87 H87        20.5266  -24.1674  -41.7162 H         1 UNK         0.0847 
     88 H88        22.2540  -23.8959  -41.4872 H         1 UNK         0.0847 
     89 H89        21.2880  -24.6029  -40.1979 H         1 UNK         0.0847 
     90 H90        23.3402  -27.7318  -42.8626 H         1 UNK         0.3040 
     91 H91        25.5086  -27.4959  -40.9133 H         1 UNK         0.1015 
     92 H92        25.1188  -29.3158  -43.3542 H         1 UNK         0.0786 
     93 H93        26.5904  -29.1961  -42.4004 H         1 UNK         0.0786 
     94 H94        26.0262  -27.8072  -43.3153 H         1 UNK         0.0786 
     95 H95        25.2371  -28.4524  -38.9717 H         1 UNK         0.3172 
     96 H96        23.2846  -30.2326  -38.2298 H         1 UNK         0.0595 
     97 H97        25.9932  -29.7482  -36.8873 H         1 UNK         0.0839 
     98 H98        24.5966  -30.4867  -36.1164 H         1 UNK         0.0839 
     99 H99        24.5176  -28.8136  -36.6375 H         1 UNK         0.0839 
    100 H100       26.5396  -31.0853  -39.3503 H         1 UNK         0.2998 
    101 H101       26.4745  -33.8595  -38.6673 H         1 UNK         0.0822 
    102 H102       28.5874  -32.6358  -39.1281 H         1 UNK         0.0787 
    103 H103       28.4270  -33.9976  -40.2239 H         1 UNK         0.0787 
    104 H104       28.1000  -32.3703  -40.8033 H         1 UNK         0.0787 
    105 H105       25.1650  -32.0746  -41.4130 H         1 UNK         0.3055 
    106 H106       24.5129  -34.5519  -42.9201 H         1 UNK         0.1106 
    107 H107       24.2082  -31.5791  -43.5773 H         1 UNK         0.0828 
    108 H108       23.6746  -32.8922  -44.6255 H         1 UNK         0.0828 
    109 H109       25.3807  -32.6980  -44.2595 H         1 UNK         0.0828 
    110 H110       23.0328  -31.9741  -40.9884 H         1 UNK         0.2931 
    111 H111       20.3257  -32.6087  -41.3386 H         1 UNK         0.0412 
    112 H112       21.5713  -35.2497  -38.3781 H         1 UNK         0.3472 
    113 H113       22.6052  -33.8983  -38.7946 H         1 UNK         0.3472 
    114 H114       21.5629  -30.5923  -40.0655 H         1 UNK         0.0970 
    115 H115       21.3528  -31.5746  -38.6601 H         1 UNK         0.0970 
    116 H116       18.4924  -28.5985  -40.1370 H         1 UNK         0.0612 
    117 H117       20.2307  -28.6829  -40.1869 H         1 UNK         0.0612 
@<TRIPOS>BOND
     1    1    2 1    
     2    1   62 1    
     3    1   63 1    
     4    1   64 1    
     5    2    3 2    
     6    2    4 am   BACKBONE|DICT|INTERRES
     7    4    5 1    
     8    4   65 1    
     9    5    6 1    
    10    5   25 1    
    11    5   66 1    
    12    6    7 1    
    13    6   67 1    
    14    6   68 1    
    15    7    8 1    
    16    8    9 1    
    17    8   69 1    
    18    8   70 1    
    19    9   10 ar   
    20    9   14 ar   
    21   10   11 ar   
    22   10   71 1    
    23   11   12 ar   
    24   11   61 1    
    25   12   13 ar   
    26   12   72 1    
    27   13   14 ar   
    28   13   15 1    
    29   14   73 1    
    30   15   16 1    
    31   15   74 1    
    32   15   75 1    
    33   16   17 1    
    34   17   18 1    
    35   17   76 1    
    36   17   77 1    
    37   18   19 1    
    38   18   27 1    
    39   18   78 1    
    40   19   20 am   BACKBONE|DICT|INTERRES
    41   19   79 1    
    42   20   21 2    
    43   20   22 1    
    44   22   23 1    
    45   22   24 1    
    46   22   80 1    
    47   23   81 1    
    48   23   82 1    
    49   23   83 1    
    50   24   25 am   BACKBONE|DICT|INTERRES
    51   24   84 1    
    52   25   26 2    
    53   27   28 2    
    54   27   29 am   BACKBONE|DICT|INTERRES
    55   29   30 1    
    56   29   85 1    
    57   30   31 1    
    58   30   32 1    
    59   30   86 1    
    60   31   87 1    
    61   31   88 1    
    62   31   89 1    
    63   32   33 2    
    64   32   34 am   BACKBONE|DICT|INTERRES
    65   34   35 1    
    66   34   90 1    
    67   35   36 1    
    68   35   37 1    
    69   35   91 1    
    70   36   92 1    
    71   36   93 1    
    72   36   94 1    
    73   37   38 2    
    74   37   39 am   BACKBONE|DICT|INTERRES
    75   39   40 1    
    76   39   95 1    
    77   40   41 1    
    78   40   42 1    
    79   40   96 1    
    80   41   97 1    
    81   41   98 1    
    82   41   99 1    
    83   42   43 2    
    84   42   44 am   BACKBONE|DICT|INTERRES
    85   44   45 1    
    86   44  100 1    
    87   45   46 1    
    88   45   47 1    
    89   45  101 1    
    90   46  102 1    
    91   46  103 1    
    92   46  104 1    
    93   47   48 2    
    94   47   49 am   BACKBONE|DICT|INTERRES
    95   49   50 1    
    96   49  105 1    
    97   50   51 1    
    98   50   52 1    
    99   50  106 1    
   100   51  107 1    
   101   51  108 1    
   102   51  109 1    
   103   52   53 2    
   104   52   54 am   BACKBONE|DICT|INTERRES
   105   54   55 1    
   106   54  110 1    
   107   55   56 1    
   108   55   59 1    
   109   55  111 1    
   110   56   57 am   BACKBONE|DICT|INTERRES
   111   56   58 2    
   112   57  112 1    
   113   57  113 1    
   114   59   60 1    
   115   59  114 1    
   116   59  115 1    
   117   60   61 1    
   118   61  116 1    
   119   61  117 1    
@<TRIPOS>SUBSTRUCTURE
     1 UNK         1 GROUP             0       ****    0 ROOT    
