@<TRIPOS>MOLECULE
3R8
117   119    1
SMALL
USER_CHARGES


@<TRIPOS>ATOM
      1 CA         15.9170  -22.5907  -48.0122 C.3       0 UNK        -0.2013 
      2 C          17.2420  -22.6360  -47.2658 C.2       0 UNK         0.4866 
      3 O          17.6303  -21.6448  -46.6461 O.2       0 UNK        -0.5176 
      4 N          17.9428  -23.7745  -47.3277 N.am      1 UNK        -0.4884 
      5 CA         19.1953  -24.0298  -46.6090 C.3       1 UNK         0.0853 
      6 C6         20.0295  -25.1343  -47.3120 C.3       10 UNK        -0.0849 
      7 S7         19.1933  -26.7562  -47.4311 S.3       10 UNK        -0.2776 
      8 C8         20.1377  -27.6934  -46.1854 C.3       10 UNK         0.0316 
      9 C9         19.4112  -28.9194  -45.6458 C.ar      10 UNK        -0.0863 
     10 C10        20.1417  -30.0742  -45.3480 C.ar      10 UNK        -0.1009 
     11 C11        19.5286  -31.1638  -44.7245 C.ar      10 UNK        -0.0712 
     12 C12        18.1691  -31.1031  -44.4106 C.ar      10 UNK        -0.0894 
     13 C13        17.4294  -29.9517  -44.6925 C.ar      10 UNK        -0.0745 
     14 C14        18.0476  -28.8729  -45.3319 C.ar      10 UNK        -0.0972 
     15 C15        15.9891  -29.8427  -44.2194 C.3       10 UNK         0.0209 
     16 S16        15.9190  -29.5638  -42.4175 S.3       10 UNK        -0.2568 
     17 C17        16.5157  -27.8440  -42.2617 C.3       10 UNK        -0.0983 
     18 CA         18.0536  -27.7137  -42.1099 C.3       3 UNK         0.0876 
     19 N          18.4927  -26.3456  -42.3935 N.am      3 UNK        -0.4424 
     20 C          19.7639  -25.9403  -42.4898 C.2       2 UNK         0.4918 
     21 O          20.7348  -26.6838  -42.3392 O.2       2 UNK        -0.4875 
     22 CA         19.9805  -24.4575  -42.8463 C.3       2 UNK         0.0481 
     23 CB         21.2861  -23.9106  -42.2420 C.3       2 UNK        -0.1831 
     24 N          20.0015  -24.2395  -44.2960 N.am      2 UNK        -0.4498 
     25 C          18.9388  -24.3219  -45.1102 C.2       1 UNK         0.5027 
     26 O          17.8036  -24.6098  -44.7181 O.2       1 UNK        -0.4969 
     27 C          18.5802  -28.2298  -40.7568 C.2       3 UNK         0.5005 
     28 O          18.6351  -27.4691  -39.7872 O.2       3 UNK        -0.5279 
     29 N          19.0100  -29.4999  -40.7464 N.am      4 UNK        -0.4463 
     30 CA         19.6857  -30.2420  -39.6733 C.3       4 UNK         0.0283 
     31 CB         18.8457  -30.2876  -38.3827 C.3       4 UNK        -0.1875 
     32 C          21.1266  -29.7784  -39.3852 C.2       4 UNK         0.4949 
     33 O          21.9680  -30.6192  -39.0668 O.2       4 UNK        -0.5039 
     34 N          21.3925  -28.4711  -39.4919 N.am      5 UNK        -0.4663 
     35 CA         22.7023  -27.8608  -39.2695 C.3       5 UNK         0.0242 
     36 CB         22.5291  -26.3522  -39.0364 C.3       5 UNK        -0.1982 
     37 C          23.6842  -28.1245  -40.4206 C.2       5 UNK         0.5017 
     38 O          24.8408  -28.4551  -40.1540 O.2       5 UNK        -0.5012 
     39 N          23.2173  -27.9725  -41.6695 N.am      6 UNK        -0.4439 
     40 CA         23.9948  -28.1675  -42.8972 C.3       6 UNK         0.0297 
     41 CB         23.1192  -27.8429  -44.1171 C.3       6 UNK        -0.2006 
     42 C          24.5669  -29.5907  -42.9937 C.2       6 UNK         0.4892 
     43 O          23.8011  -30.5485  -43.0992 O.2       6 UNK        -0.5089 
     44 N          25.9009  -29.6925  -42.8986 N.am      7 UNK        -0.4243 
     45 CA         26.6955  -30.9286  -42.8393 C.3       7 UNK         0.0196 
     46 CB         26.6044  -31.7001  -44.1738 C.3       7 UNK        -0.2007 
     47 C          26.3784  -31.8270  -41.6224 C.2       7 UNK         0.5020 
     48 O          26.7366  -33.0055  -41.6385 O.2       7 UNK        -0.5147 
     49 N          25.7251  -31.2618  -40.5933 N.am      8 UNK        -0.4734 
     50 CA         25.2460  -31.9144  -39.3690 C.3       8 UNK         0.0238 
     51 CB         26.4347  -32.2725  -38.4515 C.3       8 UNK        -0.1912 
     52 C          24.3098  -33.1122  -39.6376 C.2       8 UNK         0.5038 
     53 O          24.4159  -34.1332  -38.9540 O.2       8 UNK        -0.5046 
     54 N          23.4239  -32.9784  -40.6359 N.am      9 UNK        -0.4200 
     55 CA         22.4510  -34.0113  -41.0268 C.3       9 UNK         0.0839 
     56 C          21.3313  -34.3091  -39.9851 C.2       9 UNK         0.5513 
     57 N          21.1037  -33.4611  -38.9893 N.am      9 UNK        -0.7519 
     58 O          20.6706  -35.3408  -40.0761 O.2       9 UNK        -0.4960 
     59 C59        21.8858  -33.7666  -42.4505 C.3       10 UNK        -0.0876 
     60 S60        20.9041  -32.2378  -42.6081 S.3       10 UNK        -0.2414 
     61 C61        20.3476  -32.3811  -44.3319 C.3       10 UNK         0.0169 
     62 H62        15.7069  -23.5279  -48.5274 H         1 UNK         0.0903 
     63 H63        15.1014  -22.3965  -47.3161 H         1 UNK         0.0903 
     64 H64        15.9304  -21.7921  -48.7535 H         1 UNK         0.0903 
     65 H65        17.5624  -24.5724  -47.8178 H         1 UNK         0.3096 
     66 H66        19.7844  -23.1101  -46.6458 H         1 UNK         0.1121 
     67 H67        21.0017  -25.2493  -46.8292 H         1 UNK         0.0849 
     68 H68        20.2597  -24.8125  -48.3290 H         1 UNK         0.0849 
     69 H69        21.0978  -27.9744  -46.6213 H         1 UNK         0.0865 
     70 H70        20.3603  -27.0486  -45.3350 H         1 UNK         0.0865 
     71 H71        21.2020  -30.1135  -45.5587 H         1 UNK         0.1346 
     72 H72        17.6991  -31.9314  -43.8978 H         1 UNK         0.1412 
     73 H73        17.4836  -27.9685  -45.5165 H         1 UNK         0.1426 
     74 H74        15.4585  -30.7659  -44.4569 H         1 UNK         0.0716 
     75 H75        15.4617  -29.0420  -44.7402 H         1 UNK         0.0716 
     76 H76        16.0090  -27.3774  -41.4148 H         1 UNK         0.0695 
     77 H77        16.1795  -27.2962  -43.1438 H         1 UNK         0.0695 
     78 H78        18.5380  -28.3235  -42.8682 H         1 UNK         0.0983 
     79 H79        17.7653  -25.6707  -42.5848 H         1 UNK         0.3095 
     80 H80        19.1551  -23.8804  -42.4241 H         1 UNK         0.0454 
     81 H81        22.1638  -24.4413  -42.6136 H         1 UNK         0.0851 
     82 H82        21.2801  -24.0082  -41.1563 H         1 UNK         0.0851 
     83 H83        21.4149  -22.8516  -42.4657 H         1 UNK         0.0851 
     84 H84        20.9020  -24.0154  -44.6942 H         1 UNK         0.2976 
     85 H85        18.9314  -30.0166  -41.6128 H         1 UNK         0.3116 
     86 H86        19.7579  -31.2650  -40.0419 H         1 UNK         0.0646 
     87 H87        18.7576  -29.3070  -37.9146 H         1 UNK         0.0847 
     88 H88        19.3023  -30.9531  -37.6491 H         1 UNK         0.0847 
     89 H89        17.8400  -30.6601  -38.5766 H         1 UNK         0.0847 
     90 H90        20.6213  -27.8535  -39.7231 H         1 UNK         0.3040 
     91 H91        23.1324  -28.2967  -38.3647 H         1 UNK         0.1015 
     92 H92        22.0693  -25.8639  -39.8953 H         1 UNK         0.0786 
     93 H93        23.4918  -25.8700  -38.8613 H         1 UNK         0.0786 
     94 H94        21.9042  -26.1551  -38.1651 H         1 UNK         0.0786 
     95 H95        22.2524  -27.6745  -41.7946 H         1 UNK         0.3172 
     96 H96        24.8214  -27.4544  -42.8798 H         1 UNK         0.0595 
     97 H97        23.6496  -28.0403  -45.0495 H         1 UNK         0.0839 
     98 H98        22.8240  -26.7937  -44.1261 H         1 UNK         0.0839 
     99 H99        22.2118  -28.4463  -44.1189 H         1 UNK         0.0839 
    100 H100       26.4278  -28.8381  -42.7765 H         1 UNK         0.2998 
    101 H101       27.7323  -30.6138  -42.7118 H         1 UNK         0.0822 
    102 H102       27.3108  -32.5309  -44.1962 H         1 UNK         0.0787 
    103 H103       25.6094  -32.1173  -44.3327 H         1 UNK         0.0787 
    104 H104       26.8382  -31.0565  -45.0217 H         1 UNK         0.0787 
    105 H105       25.4833  -30.2776  -40.6708 H         1 UNK         0.3055 
    106 H106       24.6386  -31.1737  -38.8461 H         1 UNK         0.1106 
    107 H107       26.0869  -32.6462  -37.4876 H         1 UNK         0.0828 
    108 H108       27.0664  -33.0450  -38.8913 H         1 UNK         0.0828 
    109 H109       27.0585  -31.4013  -38.2525 H         1 UNK         0.0828 
    110 H110       23.3849  -32.1095  -41.1527 H         1 UNK         0.2931 
    111 H111       23.0220  -34.9396  -41.0927 H         1 UNK         0.0412 
    112 H112       21.6093  -32.5834  -38.9411 H         1 UNK         0.3472 
    113 H113       20.3892  -33.6740  -38.3123 H         1 UNK         0.3472 
    114 H114       21.2716  -34.6133  -42.7630 H         1 UNK         0.0970 
    115 H115       22.7089  -33.7169  -43.1654 H         1 UNK         0.0970 
    116 H116       21.2150  -32.4833  -44.9860 H         1 UNK         0.0612 
    117 H117       19.7536  -33.2885  -44.4513 H         1 UNK         0.0612 
@<TRIPOS>BOND
     1    1    2 1    
     2    1   62 1    
     3    1   63 1    
     4    1   64 1    
     5    2    3 2    
     6    2    4 am   BACKBONE|DICT|INTERRES
     7    4    5 1    
     8    4   65 1    
     9    5    6 1    
    10    5   25 1    
    11    5   66 1    
    12    6    7 1    
    13    6   67 1    
    14    6   68 1    
    15    7    8 1    
    16    8    9 1    
    17    8   69 1    
    18    8   70 1    
    19    9   10 ar   
    20    9   14 ar   
    21   10   11 ar   
    22   10   71 1    
    23   11   12 ar   
    24   11   61 1    
    25   12   13 ar   
    26   12   72 1    
    27   13   14 ar   
    28   13   15 1    
    29   14   73 1    
    30   15   16 1    
    31   15   74 1    
    32   15   75 1    
    33   16   17 1    
    34   17   18 1    
    35   17   76 1    
    36   17   77 1    
    37   18   19 1    
    38   18   27 1    
    39   18   78 1    
    40   19   20 am   BACKBONE|DICT|INTERRES
    41   19   79 1    
    42   20   21 2    
    43   20   22 1    
    44   22   23 1    
    45   22   24 1    
    46   22   80 1    
    47   23   81 1    
    48   23   82 1    
    49   23   83 1    
    50   24   25 am   BACKBONE|DICT|INTERRES
    51   24   84 1    
    52   25   26 2    
    53   27   28 2    
    54   27   29 am   BACKBONE|DICT|INTERRES
    55   29   30 1    
    56   29   85 1    
    57   30   31 1    
    58   30   32 1    
    59   30   86 1    
    60   31   87 1    
    61   31   88 1    
    62   31   89 1    
    63   32   33 2    
    64   32   34 am   BACKBONE|DICT|INTERRES
    65   34   35 1    
    66   34   90 1    
    67   35   36 1    
    68   35   37 1    
    69   35   91 1    
    70   36   92 1    
    71   36   93 1    
    72   36   94 1    
    73   37   38 2    
    74   37   39 am   BACKBONE|DICT|INTERRES
    75   39   40 1    
    76   39   95 1    
    77   40   41 1    
    78   40   42 1    
    79   40   96 1    
    80   41   97 1    
    81   41   98 1    
    82   41   99 1    
    83   42   43 2    
    84   42   44 am   BACKBONE|DICT|INTERRES
    85   44   45 1    
    86   44  100 1    
    87   45   46 1    
    88   45   47 1    
    89   45  101 1    
    90   46  102 1    
    91   46  103 1    
    92   46  104 1    
    93   47   48 2    
    94   47   49 am   BACKBONE|DICT|INTERRES
    95   49   50 1    
    96   49  105 1    
    97   50   51 1    
    98   50   52 1    
    99   50  106 1    
   100   51  107 1    
   101   51  108 1    
   102   51  109 1    
   103   52   53 2    
   104   52   54 am   BACKBONE|DICT|INTERRES
   105   54   55 1    
   106   54  110 1    
   107   55   56 1    
   108   55   59 1    
   109   55  111 1    
   110   56   57 am   BACKBONE|DICT|INTERRES
   111   56   58 2    
   112   57  112 1    
   113   57  113 1    
   114   59   60 1    
   115   59  114 1    
   116   59  115 1    
   117   60   61 1    
   118   61  116 1    
   119   61  117 1    
@<TRIPOS>SUBSTRUCTURE
     1 UNK         1 GROUP             0       ****    0 ROOT    
