@<TRIPOS>MOLECULE
3R8
117   119    1
SMALL
USER_CHARGES


@<TRIPOS>ATOM
      1 CA         15.9628  -23.7724  -42.1731 C.3       0 UNK        -0.2013 
      2 C          16.5406  -24.8411  -43.0887 C.2       0 UNK         0.4866 
      3 O          17.4341  -25.5787  -42.6751 O.2       0 UNK        -0.5176 
      4 N          16.0417  -24.9206  -44.3318 N.am      1 UNK        -0.4884 
      5 CA         16.4426  -25.8840  -45.3711 C.3       1 UNK         0.0853 
      6 C6         16.1385  -27.3547  -44.9632 C.3       10 UNK        -0.0849 
      7 S7         15.7956  -28.4350  -46.3964 S.3       10 UNK        -0.2776 
      8 C8         15.9044  -30.1002  -45.6567 C.3       10 UNK         0.0316 
      9 C9         17.2426  -30.3654  -44.9760 C.ar      10 UNK        -0.0863 
     10 C10        17.2873  -30.6379  -43.6037 C.ar      10 UNK        -0.1009 
     11 C11        18.5104  -30.8613  -42.9657 C.ar      10 UNK        -0.0712 
     12 C12        19.6901  -30.8261  -43.7107 C.ar      10 UNK        -0.0894 
     13 C13        19.6634  -30.5351  -45.0761 C.ar      10 UNK        -0.0745 
     14 C14        18.4350  -30.3201  -45.7085 C.ar      10 UNK        -0.0972 
     15 C15        20.9704  -30.4209  -45.8482 C.3       10 UNK         0.0209 
     16 S16        21.5081  -28.6886  -46.0522 S.3       10 UNK        -0.2568 
     17 C17        21.5931  -28.0917  -44.3265 C.3       10 UNK        -0.0983 
     18 CA         21.8616  -26.5679  -44.2204 C.3       3 UNK         0.0876 
     19 N          20.8470  -25.7979  -44.9448 N.am      3 UNK        -0.4424 
     20 C          20.9406  -24.5320  -45.3634 C.2       2 UNK         0.4918 
     21 O          21.9342  -23.8298  -45.1678 O.2       2 UNK        -0.4875 
     22 CA         19.7381  -23.9261  -46.1173 C.3       2 UNK         0.0481 
     23 CB         19.9483  -24.0255  -47.6404 C.3       2 UNK        -0.1831 
     24 N          18.4104  -24.4335  -45.7275 N.am      2 UNK        -0.4498 
     25 C          17.8940  -25.6655  -45.8725 C.2       1 UNK         0.5027 
     26 O          18.5237  -26.5996  -46.3673 O.2       1 UNK        -0.4969 
     27 C          21.9664  -26.1039  -42.7487 C.2       3 UNK         0.5005 
     28 O          21.6553  -26.8668  -41.8321 O.2       3 UNK        -0.5279 
     29 N          22.4103  -24.8564  -42.5372 N.am      4 UNK        -0.4463 
     30 CA         22.5542  -24.2028  -41.2282 C.3       4 UNK         0.0283 
     31 CB         22.9820  -22.7419  -41.4398 C.3       4 UNK        -0.1875 
     32 C          23.5223  -24.9110  -40.2599 C.2       4 UNK         0.4949 
     33 O          23.3806  -24.7631  -39.0465 O.2       4 UNK        -0.5039 
     34 N          24.4652  -25.6877  -40.8088 N.am      5 UNK        -0.4663 
     35 CA         25.3972  -26.5447  -40.0716 C.3       5 UNK         0.0242 
     36 CB         26.6582  -26.7406  -40.9326 C.3       5 UNK        -0.1982 
     37 C          24.7944  -27.9073  -39.6668 C.2       5 UNK         0.5017 
     38 O          25.5310  -28.7477  -39.1496 O.2       5 UNK        -0.5012 
     39 N          23.5024  -28.1382  -39.9510 N.am      6 UNK        -0.4439 
     40 CA         22.7126  -29.3652  -39.7638 C.3       6 UNK         0.0297 
     41 CB         22.7356  -29.8723  -38.3085 C.3       6 UNK        -0.2006 
     42 C          23.0664  -30.4848  -40.7552 C.2       6 UNK         0.4892 
     43 O          22.1537  -31.1490  -41.2444 O.2       6 UNK        -0.5089 
     44 N          24.3621  -30.6562  -41.0565 N.am      7 UNK        -0.4243 
     45 CA         24.9353  -31.5727  -42.0469 C.3       7 UNK         0.0196 
     46 CB         24.6645  -31.0365  -43.4721 C.3       7 UNK        -0.2007 
     47 C          24.4664  -33.0225  -41.8199 C.2       7 UNK         0.5020 
     48 O          24.8445  -33.6263  -40.8150 O.2       7 UNK        -0.5147 
     49 N          23.6232  -33.5378  -42.7247 N.am      8 UNK        -0.4734 
     50 CA         22.9994  -34.8625  -42.6559 C.3       8 UNK         0.0238 
     51 CB         22.2019  -35.1056  -43.9479 C.3       8 UNK        -0.1912 
     52 C          22.0986  -35.0783  -41.4247 C.2       8 UNK         0.5038 
     53 O          21.9272  -36.2263  -41.0117 O.2       8 UNK        -0.5046 
     54 N          21.5537  -33.9926  -40.8595 N.am      9 UNK        -0.4200 
     55 CA         20.7626  -34.0091  -39.6198 C.3       9 UNK         0.0839 
     56 C          21.6308  -34.0030  -38.3271 C.2       9 UNK         0.5513 
     57 N          22.9532  -33.8928  -38.4005 N.am      9 UNK        -0.7519 
     58 O          21.0906  -34.1087  -37.2292 O.2       9 UNK        -0.4960 
     59 C59        19.6977  -32.8800  -39.5842 C.3       10 UNK        -0.0876 
     60 S60        18.6235  -32.8662  -41.0643 S.3       10 UNK        -0.2414 
     61 C61        18.5780  -31.0918  -41.4654 C.3       10 UNK         0.0169 
     62 H62        15.5288  -24.2341  -41.2866 H         1 UNK         0.0903 
     63 H63        16.7485  -23.0895  -41.8511 H         1 UNK         0.0903 
     64 H64        15.1857  -23.1878  -42.6652 H         1 UNK         0.0903 
     65 H65        15.3094  -24.2782  -44.6054 H         1 UNK         0.3096 
     66 H66        15.8116  -25.6439  -46.2286 H         1 UNK         0.1121 
     67 H67        15.2561  -27.3930  -44.3226 H         1 UNK         0.0849 
     68 H68        16.9566  -27.7597  -44.3651 H         1 UNK         0.0849 
     69 H69        15.0794  -30.2249  -44.9535 H         1 UNK         0.0865 
     70 H70        15.7520  -30.8446  -46.4394 H         1 UNK         0.0865 
     71 H71        16.3732  -30.6607  -43.0261 H         1 UNK         0.1346 
     72 H72        20.6375  -30.9864  -43.2172 H         1 UNK         0.1412 
     73 H73        18.4088  -30.0827  -46.7635 H         1 UNK         0.1426 
     74 H74        20.8526  -30.8721  -46.8343 H         1 UNK         0.0716 
     75 H75        21.7600  -30.9839  -45.3489 H         1 UNK         0.0716 
     76 H76        22.3659  -28.6601  -43.8053 H         1 UNK         0.0695 
     77 H77        20.6490  -28.3205  -43.8311 H         1 UNK         0.0695 
     78 H78        22.8299  -26.3715  -44.6858 H         1 UNK         0.0983 
     79 H79        20.0161  -26.3125  -45.2214 H         1 UNK         0.3095 
     80 H80        19.7245  -22.8655  -45.8614 H         1 UNK         0.0454 
     81 H81        20.8827  -23.5464  -47.9357 H         1 UNK         0.0851 
     82 H82        19.1451  -23.5306  -48.1859 H         1 UNK         0.0851 
     83 H83        19.9970  -25.0607  -47.9795 H         1 UNK         0.0851 
     84 H84        17.8173  -23.7559  -45.2686 H         1 UNK         0.2976 
     85 H85        22.5798  -24.2829  -43.3589 H         1 UNK         0.3116 
     86 H86        21.5697  -24.2051  -40.7559 H         1 UNK         0.0646 
     87 H87        23.9505  -22.6730  -41.9366 H         1 UNK         0.0847 
     88 H88        22.2551  -22.1979  -42.0433 H         1 UNK         0.0847 
     89 H89        23.0664  -22.2171  -40.4871 H         1 UNK         0.0847 
     90 H90        24.5055  -25.7374  -41.8165 H         1 UNK         0.3040 
     91 H91        25.6889  -26.0394  -39.1481 H         1 UNK         0.1015 
     92 H92        27.4165  -27.3136  -40.3969 H         1 UNK         0.0786 
     93 H93        27.1103  -25.7845  -41.1977 H         1 UNK         0.0786 
     94 H94        26.4375  -27.2766  -41.8567 H         1 UNK         0.0786 
     95 H95        22.9994  -27.4104  -40.4516 H         1 UNK         0.3172 
     96 H96        21.6844  -29.0748  -39.9861 H         1 UNK         0.0595 
     97 H97        23.7182  -30.2432  -38.0162 H         1 UNK         0.0839 
     98 H98        22.0336  -30.6962  -38.1756 H         1 UNK         0.0839 
     99 H99        22.4499  -29.0866  -37.6094 H         1 UNK         0.0839 
    100 H100       25.0249  -30.0994  -40.5264 H         1 UNK         0.2998 
    101 H101       26.0149  -31.5717  -41.8892 H         1 UNK         0.0822 
    102 H102       25.1019  -31.6868  -44.2310 H         1 UNK         0.0787 
    103 H103       23.5990  -30.9415  -43.6832 H         1 UNK         0.0787 
    104 H104       25.1091  -30.0501  -43.6057 H         1 UNK         0.0787 
    105 H105       23.3494  -32.9497  -43.4980 H         1 UNK         0.3055 
    106 H106       23.8014  -35.6017  -42.5989 H         1 UNK         0.1106 
    107 H107       22.8421  -35.0494  -44.8285 H         1 UNK         0.0828 
    108 H108       21.7462  -36.0969  -43.9447 H         1 UNK         0.0828 
    109 H109       21.3973  -34.3785  -44.0678 H         1 UNK         0.0828 
    110 H110       21.7665  -33.0724  -41.2334 H         1 UNK         0.2931 
    111 H111       20.2111  -34.9509  -39.5938 H         1 UNK         0.0412 
    112 H112       23.4263  -33.8212  -39.2936 H         1 UNK         0.3472 
    113 H113       23.4925  -33.8984  -37.5496 H         1 UNK         0.3472 
    114 H114       20.1901  -31.9141  -39.4672 H         1 UNK         0.0970 
    115 H115       19.0536  -32.9937  -38.7103 H         1 UNK         0.0970 
    116 H116       19.4607  -30.5833  -41.0762 H         1 UNK         0.0612 
    117 H117       17.7212  -30.6358  -40.9673 H         1 UNK         0.0612 
@<TRIPOS>BOND
     1    1    2 1    
     2    1   62 1    
     3    1   63 1    
     4    1   64 1    
     5    2    3 2    
     6    2    4 am   BACKBONE|DICT|INTERRES
     7    4    5 1    
     8    4   65 1    
     9    5    6 1    
    10    5   25 1    
    11    5   66 1    
    12    6    7 1    
    13    6   67 1    
    14    6   68 1    
    15    7    8 1    
    16    8    9 1    
    17    8   69 1    
    18    8   70 1    
    19    9   10 ar   
    20    9   14 ar   
    21   10   11 ar   
    22   10   71 1    
    23   11   12 ar   
    24   11   61 1    
    25   12   13 ar   
    26   12   72 1    
    27   13   14 ar   
    28   13   15 1    
    29   14   73 1    
    30   15   16 1    
    31   15   74 1    
    32   15   75 1    
    33   16   17 1    
    34   17   18 1    
    35   17   76 1    
    36   17   77 1    
    37   18   19 1    
    38   18   27 1    
    39   18   78 1    
    40   19   20 am   BACKBONE|DICT|INTERRES
    41   19   79 1    
    42   20   21 2    
    43   20   22 1    
    44   22   23 1    
    45   22   24 1    
    46   22   80 1    
    47   23   81 1    
    48   23   82 1    
    49   23   83 1    
    50   24   25 am   BACKBONE|DICT|INTERRES
    51   24   84 1    
    52   25   26 2    
    53   27   28 2    
    54   27   29 am   BACKBONE|DICT|INTERRES
    55   29   30 1    
    56   29   85 1    
    57   30   31 1    
    58   30   32 1    
    59   30   86 1    
    60   31   87 1    
    61   31   88 1    
    62   31   89 1    
    63   32   33 2    
    64   32   34 am   BACKBONE|DICT|INTERRES
    65   34   35 1    
    66   34   90 1    
    67   35   36 1    
    68   35   37 1    
    69   35   91 1    
    70   36   92 1    
    71   36   93 1    
    72   36   94 1    
    73   37   38 2    
    74   37   39 am   BACKBONE|DICT|INTERRES
    75   39   40 1    
    76   39   95 1    
    77   40   41 1    
    78   40   42 1    
    79   40   96 1    
    80   41   97 1    
    81   41   98 1    
    82   41   99 1    
    83   42   43 2    
    84   42   44 am   BACKBONE|DICT|INTERRES
    85   44   45 1    
    86   44  100 1    
    87   45   46 1    
    88   45   47 1    
    89   45  101 1    
    90   46  102 1    
    91   46  103 1    
    92   46  104 1    
    93   47   48 2    
    94   47   49 am   BACKBONE|DICT|INTERRES
    95   49   50 1    
    96   49  105 1    
    97   50   51 1    
    98   50   52 1    
    99   50  106 1    
   100   51  107 1    
   101   51  108 1    
   102   51  109 1    
   103   52   53 2    
   104   52   54 am   BACKBONE|DICT|INTERRES
   105   54   55 1    
   106   54  110 1    
   107   55   56 1    
   108   55   59 1    
   109   55  111 1    
   110   56   57 am   BACKBONE|DICT|INTERRES
   111   56   58 2    
   112   57  112 1    
   113   57  113 1    
   114   59   60 1    
   115   59  114 1    
   116   59  115 1    
   117   60   61 1    
   118   61  116 1    
   119   61  117 1    
@<TRIPOS>SUBSTRUCTURE
     1 UNK         1 GROUP             0       ****    0 ROOT    
