@<TRIPOS>MOLECULE
3R8
117   119    1
SMALL
USER_CHARGES


@<TRIPOS>ATOM
      1 CA         15.6213  -24.1394  -40.8254 C.3       0 UNK        -0.2013 
      2 C          15.6113  -24.6907  -42.2433 C.2       0 UNK         0.4866 
      3 O          14.5499  -25.0466  -42.7555 O.2       0 UNK        -0.5176 
      4 N          16.7835  -24.7609  -42.8806 N.am      1 UNK        -0.4884 
      5 CA         16.9894  -25.2177  -44.2537 C.3       1 UNK         0.0853 
      6 C6         16.8538  -26.7576  -44.4010 C.3       10 UNK        -0.0849 
      7 S7         16.4220  -27.2485  -46.1062 S.3       10 UNK        -0.2776 
      8 C8         16.2663  -29.0523  -45.9355 C.3       10 UNK         0.0316 
      9 C9         17.5804  -29.6979  -45.5225 C.ar      10 UNK        -0.0863 
     10 C10        17.7486  -30.1733  -44.2177 C.ar      10 UNK        -0.1009 
     11 C11        18.9463  -30.7819  -43.8325 C.ar      10 UNK        -0.0712 
     12 C12        19.9698  -30.9221  -44.7718 C.ar      10 UNK        -0.0894 
     13 C13        19.8291  -30.4247  -46.0703 C.ar      10 UNK        -0.0745 
     14 C14        18.6262  -29.8197  -46.4438 C.ar      10 UNK        -0.0972 
     15 C15        20.9765  -30.5564  -47.0652 C.3       10 UNK         0.0209 
     16 S16        21.9004  -28.9981  -47.2986 S.3       10 UNK        -0.2568 
     17 C17        22.5031  -28.6295  -45.6106 C.3       10 UNK        -0.0983 
     18 CA         22.3263  -27.1498  -45.1545 C.3       3 UNK         0.0876 
     19 N          21.1968  -26.4423  -45.7683 N.am      3 UNK        -0.4424 
     20 C          21.1971  -25.1271  -46.0280 C.2       2 UNK         0.4918 
     21 O          22.1443  -24.3762  -45.7919 O.2       2 UNK        -0.4875 
     22 CA         19.9246  -24.5446  -46.6647 C.3       2 UNK         0.0481 
     23 CB         19.8524  -24.9030  -48.1582 C.3       2 UNK        -0.1831 
     24 N          18.6930  -24.9701  -45.9980 N.am      2 UNK        -0.4498 
     25 C          18.3554  -24.6873  -44.7329 C.2       1 UNK         0.5027 
     26 O          19.0650  -24.0351  -43.9606 O.2       1 UNK        -0.4969 
     27 C          22.2038  -27.0471  -43.6246 C.2       3 UNK         0.5005 
     28 O          23.0960  -26.5041  -42.9706 O.2       3 UNK        -0.5279 
     29 N          21.0804  -27.5624  -43.0947 N.am      4 UNK        -0.4463 
     30 CA         20.6866  -27.5762  -41.6821 C.3       4 UNK         0.0283 
     31 CB         20.1693  -26.1817  -41.2661 C.3       4 UNK        -0.1875 
     32 C          21.8034  -28.1321  -40.7776 C.2       4 UNK         0.4949 
     33 O          22.1444  -29.3095  -40.9004 O.2       4 UNK        -0.5039 
     34 N          22.3836  -27.2775  -39.9253 N.am      5 UNK        -0.4663 
     35 CA         23.4768  -27.5966  -39.0034 C.3       5 UNK         0.0242 
     36 CB         23.7205  -26.3901  -38.0825 C.3       5 UNK        -0.1982 
     37 C          24.7909  -28.0286  -39.6813 C.2       5 UNK         0.5017 
     38 O          25.6000  -28.6835  -39.0240 O.2       5 UNK        -0.5012 
     39 N          24.9870  -27.6840  -40.9651 N.am      6 UNK        -0.4439 
     40 CA         26.1328  -28.1422  -41.7595 C.3       6 UNK         0.0297 
     41 CB         26.2685  -27.2908  -43.0321 C.3       6 UNK        -0.2006 
     42 C          26.0396  -29.6360  -42.1196 C.2       6 UNK         0.4892 
     43 O          27.0766  -30.2866  -42.2529 O.2       6 UNK        -0.5089 
     44 N          24.8093  -30.1483  -42.2597 N.am      7 UNK        -0.4243 
     45 CA         24.5216  -31.5680  -42.4640 C.3       7 UNK         0.0196 
     46 CB         23.2819  -31.7063  -43.3550 C.3       7 UNK        -0.2007 
     47 C          24.2922  -32.2870  -41.1272 C.2       7 UNK         0.5020 
     48 O          24.7199  -33.4319  -40.9825 O.2       7 UNK        -0.5147 
     49 N          23.6267  -31.5979  -40.1867 N.am      8 UNK        -0.4734 
     50 CA         23.2445  -32.0503  -38.8457 C.3       8 UNK         0.0238 
     51 CB         24.4902  -32.3122  -37.9721 C.3       8 UNK        -0.1912 
     52 C          22.2691  -33.2403  -38.8992 C.2       8 UNK         0.5038 
     53 O          22.5564  -34.3020  -38.3418 O.2       8 UNK        -0.5046 
     54 N          21.1384  -33.0324  -39.5901 N.am      9 UNK        -0.4200 
     55 CA         20.0199  -33.9826  -39.7107 C.3       9 UNK         0.0839 
     56 C          19.4561  -34.4372  -38.3343 C.2       9 UNK         0.5513 
     57 N          19.1063  -35.7085  -38.1950 N.am      9 UNK        -0.7519 
     58 O          19.2878  -33.6368  -37.4162 O.2       9 UNK        -0.4960 
     59 C59        18.8677  -33.4050  -40.5741 C.3       10 UNK        -0.0876 
     60 S60        19.3370  -33.0714  -42.3069 S.3       10 UNK        -0.2414 
     61 C61        19.1417  -31.2635  -42.4005 C.3       10 UNK         0.0169 
     62 H62        15.2217  -24.8794  -40.1326 H         1 UNK         0.0903 
     63 H63        16.6268  -23.8765  -40.4970 H         1 UNK         0.0903 
     64 H64        15.0003  -23.2459  -40.7656 H         1 UNK         0.0903 
     65 H65        17.6263  -24.3878  -42.4582 H         1 UNK         0.3096 
     66 H66        16.2295  -24.7287  -44.8681 H         1 UNK         0.1121 
     67 H67        16.0617  -27.1349  -43.7526 H         1 UNK         0.0849 
     68 H68        17.7663  -27.2635  -44.0806 H         1 UNK         0.0849 
     69 H69        15.4763  -29.2805  -45.2182 H         1 UNK         0.0865 
     70 H70        15.9413  -29.4723  -46.8886 H         1 UNK         0.0865 
     71 H71        16.9459  -30.0665  -43.5006 H         1 UNK         0.1346 
     72 H72        20.8836  -31.4185  -44.4891 H         1 UNK         0.1412 
     73 H73        18.5047  -29.4407  -47.4498 H         1 UNK         0.1426 
     74 H74        21.6718  -31.3352  -46.7477 H         1 UNK         0.0716 
     75 H75        20.5824  -30.8784  -48.0301 H         1 UNK         0.0716 
     76 H76        22.0331  -29.3184  -44.9135 H         1 UNK         0.0695 
     77 H77        23.5623  -28.8903  -45.5751 H         1 UNK         0.0695 
     78 H78        23.2445  -26.6290  -45.4372 H         1 UNK         0.0983 
     79 H79        20.3919  -26.9959  -46.0204 H         1 UNK         0.3095 
     80 H80        19.9818  -23.4571  -46.5831 H         1 UNK         0.0454 
     81 H81        19.7502  -25.9776  -48.3153 H         1 UNK         0.0851 
     82 H82        19.0096  -24.4114  -48.6442 H         1 UNK         0.0851 
     83 H83        20.7556  -24.5830  -48.6798 H         1 UNK         0.0851 
     84 H84        18.0515  -25.5347  -46.5406 H         1 UNK         0.2976 
     85 H85        20.4373  -28.0216  -43.7235 H         1 UNK         0.3116 
     86 H86        19.8531  -28.2746  -41.5961 H         1 UNK         0.0646 
     87 H87        20.9197  -25.4025  -41.4055 H         1 UNK         0.0847 
     88 H88        19.2999  -25.9035  -41.8599 H         1 UNK         0.0847 
     89 H89        19.8541  -26.1669  -40.2218 H         1 UNK         0.0847 
     90 H90        22.0634  -26.3198  -39.9271 H         1 UNK         0.3040 
     91 H91        23.1499  -28.4369  -38.3868 H         1 UNK         0.1015 
     92 H92        24.0273  -25.5081  -38.6461 H         1 UNK         0.0786 
     93 H93        24.5077  -26.6036  -37.3578 H         1 UNK         0.0786 
     94 H94        22.8246  -26.1341  -37.5165 H         1 UNK         0.0786 
     95 H95        24.2738  -27.1467  -41.4518 H         1 UNK         0.3172 
     96 H96        27.0367  -27.9985  -41.1635 H         1 UNK         0.0595 
     97 H97        27.1867  -27.5387  -43.5661 H         1 UNK         0.0839 
     98 H98        26.3060  -26.2264  -42.7994 H         1 UNK         0.0839 
     99 H99        25.4414  -27.4559  -43.7227 H         1 UNK         0.0839 
    100 H100       24.0157  -29.5455  -42.0859 H         1 UNK         0.2998 
    101 H101       25.3612  -32.0505  -42.9697 H         1 UNK         0.0822 
    102 H102       23.0155  -32.7545  -43.4990 H         1 UNK         0.0787 
    103 H103       22.4225  -31.2074  -42.9070 H         1 UNK         0.0787 
    104 H104       23.4540  -31.2761  -44.3414 H         1 UNK         0.0787 
    105 H105       23.2462  -30.6920  -40.4533 H         1 UNK         0.3055 
    106 H106       22.6957  -31.2262  -38.3865 H         1 UNK         0.1106 
    107 H107       25.1375  -31.4357  -37.9351 H         1 UNK         0.0828 
    108 H108       24.2030  -32.5474  -36.9467 H         1 UNK         0.0828 
    109 H109       25.0816  -33.1501  -38.3423 H         1 UNK         0.0828 
    110 H110       21.0046  -32.1361  -40.0326 H         1 UNK         0.2931 
    111 H111       20.4164  -34.8638  -40.2193 H         1 UNK         0.0412 
    112 H112       18.7223  -36.0186  -37.3157 H         1 UNK         0.3472 
    113 H113       19.2310  -36.3688  -38.9472 H         1 UNK         0.3472 
    114 H114       18.0358  -34.1116  -40.6101 H         1 UNK         0.0970 
    115 H115       18.4647  -32.5032  -40.1097 H         1 UNK         0.0970 
    116 H116       18.2940  -30.9536  -41.7879 H         1 UNK         0.0612 
    117 H117       20.0247  -30.7878  -41.9728 H         1 UNK         0.0612 
@<TRIPOS>BOND
     1    1    2 1    
     2    1   62 1    
     3    1   63 1    
     4    1   64 1    
     5    2    3 2    
     6    2    4 am   BACKBONE|DICT|INTERRES
     7    4    5 1    
     8    4   65 1    
     9    5    6 1    
    10    5   25 1    
    11    5   66 1    
    12    6    7 1    
    13    6   67 1    
    14    6   68 1    
    15    7    8 1    
    16    8    9 1    
    17    8   69 1    
    18    8   70 1    
    19    9   10 ar   
    20    9   14 ar   
    21   10   11 ar   
    22   10   71 1    
    23   11   12 ar   
    24   11   61 1    
    25   12   13 ar   
    26   12   72 1    
    27   13   14 ar   
    28   13   15 1    
    29   14   73 1    
    30   15   16 1    
    31   15   74 1    
    32   15   75 1    
    33   16   17 1    
    34   17   18 1    
    35   17   76 1    
    36   17   77 1    
    37   18   19 1    
    38   18   27 1    
    39   18   78 1    
    40   19   20 am   BACKBONE|DICT|INTERRES
    41   19   79 1    
    42   20   21 2    
    43   20   22 1    
    44   22   23 1    
    45   22   24 1    
    46   22   80 1    
    47   23   81 1    
    48   23   82 1    
    49   23   83 1    
    50   24   25 am   BACKBONE|DICT|INTERRES
    51   24   84 1    
    52   25   26 2    
    53   27   28 2    
    54   27   29 am   BACKBONE|DICT|INTERRES
    55   29   30 1    
    56   29   85 1    
    57   30   31 1    
    58   30   32 1    
    59   30   86 1    
    60   31   87 1    
    61   31   88 1    
    62   31   89 1    
    63   32   33 2    
    64   32   34 am   BACKBONE|DICT|INTERRES
    65   34   35 1    
    66   34   90 1    
    67   35   36 1    
    68   35   37 1    
    69   35   91 1    
    70   36   92 1    
    71   36   93 1    
    72   36   94 1    
    73   37   38 2    
    74   37   39 am   BACKBONE|DICT|INTERRES
    75   39   40 1    
    76   39   95 1    
    77   40   41 1    
    78   40   42 1    
    79   40   96 1    
    80   41   97 1    
    81   41   98 1    
    82   41   99 1    
    83   42   43 2    
    84   42   44 am   BACKBONE|DICT|INTERRES
    85   44   45 1    
    86   44  100 1    
    87   45   46 1    
    88   45   47 1    
    89   45  101 1    
    90   46  102 1    
    91   46  103 1    
    92   46  104 1    
    93   47   48 2    
    94   47   49 am   BACKBONE|DICT|INTERRES
    95   49   50 1    
    96   49  105 1    
    97   50   51 1    
    98   50   52 1    
    99   50  106 1    
   100   51  107 1    
   101   51  108 1    
   102   51  109 1    
   103   52   53 2    
   104   52   54 am   BACKBONE|DICT|INTERRES
   105   54   55 1    
   106   54  110 1    
   107   55   56 1    
   108   55   59 1    
   109   55  111 1    
   110   56   57 am   BACKBONE|DICT|INTERRES
   111   56   58 2    
   112   57  112 1    
   113   57  113 1    
   114   59   60 1    
   115   59  114 1    
   116   59  115 1    
   117   60   61 1    
   118   61  116 1    
   119   61  117 1    
@<TRIPOS>SUBSTRUCTURE
     1 UNK         1 GROUP             0       ****    0 ROOT    
