@<TRIPOS>MOLECULE
3R8
117   119    1
SMALL
USER_CHARGES


@<TRIPOS>ATOM
      1 CA         13.6707  -26.6376  -40.5905 C.3       0 UNK        -0.2013 
      2 C          14.5874  -26.0551  -41.6559 C.2       0 UNK         0.4866 
      3 O          14.9682  -24.8883  -41.5618 O.2       0 UNK        -0.5176 
      4 N          14.9305  -26.8569  -42.6712 N.am      1 UNK        -0.4884 
      5 CA         15.8551  -26.5172  -43.7559 C.3       1 UNK         0.0853 
      6 C6         15.5992  -27.3724  -45.0286 C.3       10 UNK        -0.0849 
      7 S7         15.3986  -29.1677  -44.7200 S.3       10 UNK        -0.2776 
      8 C8         16.1316  -29.8947  -46.2179 C.3       10 UNK         0.0316 
      9 C9         17.6526  -29.8907  -46.1723 C.ar      10 UNK        -0.0863 
     10 C10        18.3353  -30.8857  -45.4665 C.ar      10 UNK        -0.1009 
     11 C11        19.7329  -30.9221  -45.4611 C.ar      10 UNK        -0.0712 
     12 C12        20.4503  -29.9406  -46.1544 C.ar      10 UNK        -0.0894 
     13 C13        19.7777  -28.9453  -46.8720 C.ar      10 UNK        -0.0745 
     14 C14        18.3797  -28.9267  -46.8758 C.ar      10 UNK        -0.0972 
     15 C15        20.5473  -27.9328  -47.7095 C.3       10 UNK         0.0209 
     16 S16        20.3848  -26.2315  -47.0803 S.3       10 UNK        -0.2568 
     17 C17        21.7865  -26.1167  -45.9190 C.3       10 UNK        -0.0983 
     18 CA         21.3717  -25.4954  -44.5566 C.3       3 UNK         0.0876 
     19 N          20.3479  -26.2817  -43.8518 N.am      3 UNK        -0.4424 
     20 C          20.4555  -27.5340  -43.3925 C.2       2 UNK         0.4918 
     21 O          21.4977  -28.1838  -43.4517 O.2       2 UNK        -0.4875 
     22 CA         19.2216  -28.1603  -42.7116 C.3       2 UNK         0.0481 
     23 CB         19.2877  -27.9571  -41.1867 C.3       2 UNK        -0.1831 
     24 N          17.9032  -27.7658  -43.2328 N.am      2 UNK        -0.4498 
     25 C          17.3115  -26.5632  -43.2498 C.2       1 UNK         0.5027 
     26 O          17.8601  -25.5238  -42.8803 O.2       1 UNK        -0.4969 
     27 C          22.6009  -25.1421  -43.6827 C.2       3 UNK         0.5005 
     28 O          23.5981  -24.6500  -44.2152 O.2       3 UNK        -0.5279 
     29 N          22.5155  -25.3820  -42.3641 N.am      4 UNK        -0.4463 
     30 CA         23.5152  -25.1809  -41.3051 C.3       4 UNK         0.0283 
     31 CB         23.8844  -23.6930  -41.1503 C.3       4 UNK        -0.1875 
     32 C          24.7769  -26.0533  -41.4377 C.2       4 UNK         0.4949 
     33 O          25.1480  -26.7235  -40.4750 O.2       4 UNK        -0.5039 
     34 N          25.4090  -26.0421  -42.6172 N.am      5 UNK        -0.4663 
     35 CA         26.6692  -26.7248  -42.9284 C.3       5 UNK         0.0242 
     36 CB         27.1340  -26.3014  -44.3309 C.3       5 UNK        -0.1982 
     37 C          26.6042  -28.2581  -42.8244 C.2       5 UNK         0.5017 
     38 O          27.6206  -28.8816  -42.5177 O.2       5 UNK        -0.5012 
     39 N          25.4185  -28.8342  -43.0638 N.am      6 UNK        -0.4439 
     40 CA         25.1511  -30.2686  -42.9304 C.3       6 UNK         0.0297 
     41 CB         24.0329  -30.6606  -43.9096 C.3       6 UNK        -0.2006 
     42 C          24.8026  -30.6909  -41.4877 C.2       6 UNK         0.4892 
     43 O          24.6460  -31.8890  -41.2480 O.2       6 UNK        -0.5089 
     44 N          24.6954  -29.7237  -40.5608 N.am      7 UNK        -0.4243 
     45 CA         24.3161  -29.8774  -39.1521 C.3       7 UNK         0.0196 
     46 CB         25.3990  -30.6591  -38.3726 C.3       7 UNK        -0.2007 
     47 C          22.8899  -30.4437  -39.0019 C.2       7 UNK         0.5020 
     48 O          22.0043  -30.0674  -39.7714 O.2       7 UNK        -0.5147 
     49 N          22.6719  -31.3262  -38.0189 N.am      8 UNK        -0.4734 
     50 CA         21.3936  -31.9928  -37.7497 C.3       8 UNK         0.0238 
     51 CB         21.3486  -32.3996  -36.2643 C.3       8 UNK        -0.1912 
     52 C          21.1614  -33.1844  -38.7012 C.2       8 UNK         0.5038 
     53 O          21.0091  -34.3195  -38.2444 O.2       8 UNK        -0.5046 
     54 N          21.1751  -32.9072  -40.0089 N.am      9 UNK        -0.4200 
     55 CA         20.9393  -33.8717  -41.0894 C.3       9 UNK         0.0839 
     56 C          19.4770  -34.3992  -41.1505 C.2       9 UNK         0.5513 
     57 N          19.2599  -35.5339  -41.8024 N.am      9 UNK        -0.7519 
     58 O          18.5401  -33.7905  -40.6365 O.2       9 UNK        -0.4960 
     59 C59        21.4357  -33.3154  -42.4494 C.3       10 UNK        -0.0876 
     60 S60        20.6115  -31.7699  -42.9698 S.3       10 UNK        -0.2414 
     61 C61        20.4588  -32.0588  -44.7564 C.3       10 UNK         0.0169 
     62 H62        13.4025  -27.6723  -40.8036 H         1 UNK         0.0903 
     63 H63        14.1604  -26.6081  -39.6175 H         1 UNK         0.0903 
     64 H64        12.7515  -26.0557  -40.5272 H         1 UNK         0.0903 
     65 H65        14.5873  -27.8078  -42.6935 H         1 UNK         0.3096 
     66 H66        15.6708  -25.4771  -44.0366 H         1 UNK         0.1121 
     67 H67        14.6798  -27.0284  -45.5051 H         1 UNK         0.0849 
     68 H68        16.3843  -27.1983  -45.7657 H         1 UNK         0.0849 
     69 H69        15.7777  -30.9221  -46.3165 H         1 UNK         0.0865 
     70 H70        15.7659  -29.3667  -47.1002 H         1 UNK         0.0865 
     71 H71        17.7783  -31.6456  -44.9350 H         1 UNK         0.1346 
     72 H72        21.5314  -29.9683  -46.1552 H         1 UNK         0.1412 
     73 H73        17.8611  -28.1681  -47.4460 H         1 UNK         0.1426 
     74 H74        21.6017  -28.2025  -47.7870 H         1 UNK         0.0716 
     75 H75        20.1578  -27.9594  -48.7281 H         1 UNK         0.0716 
     76 H76        22.2352  -27.1002  -45.7718 H         1 UNK         0.0695 
     77 H77        22.5482  -25.5087  -46.4102 H         1 UNK         0.0695 
     78 H78        20.9026  -24.5333  -44.7687 H         1 UNK         0.0983 
     79 H79        19.4624  -25.8104  -43.6810 H         1 UNK         0.3095 
     80 H80        19.2842  -29.2308  -42.9006 H         1 UNK         0.0454 
     81 H81        19.1957  -26.9069  -40.9087 H         1 UNK         0.0851 
     82 H82        18.4970  -28.5097  -40.6797 H         1 UNK         0.0851 
     83 H83        20.2370  -28.3171  -40.7883 H         1 UNK         0.0851 
     84 H84        17.3622  -28.5290  -43.6222 H         1 UNK         0.2976 
     85 H85        21.6562  -25.8131  -42.0542 H         1 UNK         0.3116 
     86 H86        23.0234  -25.4886  -40.3807 H         1 UNK         0.0646 
     87 H87        24.5598  -23.5465  -40.3063 H         1 UNK         0.0847 
     88 H88        23.0005  -23.0825  -40.9663 H         1 UNK         0.0847 
     89 H89        24.3848  -23.2987  -42.0351 H         1 UNK         0.0847 
     90 H90        24.9891  -25.4766  -43.3535 H         1 UNK         0.3040 
     91 H91        27.4125  -26.3863  -42.2032 H         1 UNK         0.1015 
     92 H92        27.2841  -25.2232  -44.3903 H         1 UNK         0.0786 
     93 H93        26.4097  -26.5816  -45.0970 H         1 UNK         0.0786 
     94 H94        28.0829  -26.7740  -44.5889 H         1 UNK         0.0786 
     95 H95        24.6340  -28.2418  -43.2991 H         1 UNK         0.3172 
     96 H96        26.0473  -30.8227  -43.2173 H         1 UNK         0.0595 
     97 H97        23.0844  -30.1977  -43.6404 H         1 UNK         0.0839 
     98 H98        23.8768  -31.7396  -43.9120 H         1 UNK         0.0839 
     99 H99        24.2728  -30.3679  -44.9316 H         1 UNK         0.0839 
    100 H100       24.8426  -28.7648  -40.8541 H         1 UNK         0.2998 
    101 H101       24.2803  -28.8671  -38.7420 H         1 UNK         0.0822 
    102 H102       26.3874  -30.2330  -38.5459 H         1 UNK         0.0787 
    103 H103       25.2238  -30.6179  -37.2970 H         1 UNK         0.0787 
    104 H104       25.4382  -31.7091  -38.6654 H         1 UNK         0.0787 
    105 H105       23.4575  -31.6125  -37.4524 H         1 UNK         0.3055 
    106 H106       20.5793  -31.2850  -37.9230 H         1 UNK         0.1106 
    107 H107       20.3949  -32.8674  -36.0162 H         1 UNK         0.0828 
    108 H108       22.1359  -33.1121  -36.0149 H         1 UNK         0.0828 
    109 H109       21.4603  -31.5335  -35.6118 H         1 UNK         0.0828 
    110 H110       21.3108  -31.9428  -40.2925 H         1 UNK         0.2931 
    111 H111       21.5636  -34.7376  -40.8591 H         1 UNK         0.0412 
    112 H112       18.3189  -35.8912  -41.8620 H         1 UNK         0.3472 
    113 H113       20.0169  -36.0473  -42.2266 H         1 UNK         0.3472 
    114 H114       21.3262  -34.0736  -43.2265 H         1 UNK         0.0970 
    115 H115       22.5065  -33.1184  -42.3889 H         1 UNK         0.0970 
    116 H116       21.4544  -32.1943  -45.1817 H         1 UNK         0.0612 
    117 H117       19.9203  -32.9926  -44.9253 H         1 UNK         0.0612 
@<TRIPOS>BOND
     1    1    2 1    
     2    1   62 1    
     3    1   63 1    
     4    1   64 1    
     5    2    3 2    
     6    2    4 am   BACKBONE|DICT|INTERRES
     7    4    5 1    
     8    4   65 1    
     9    5    6 1    
    10    5   25 1    
    11    5   66 1    
    12    6    7 1    
    13    6   67 1    
    14    6   68 1    
    15    7    8 1    
    16    8    9 1    
    17    8   69 1    
    18    8   70 1    
    19    9   10 ar   
    20    9   14 ar   
    21   10   11 ar   
    22   10   71 1    
    23   11   12 ar   
    24   11   61 1    
    25   12   13 ar   
    26   12   72 1    
    27   13   14 ar   
    28   13   15 1    
    29   14   73 1    
    30   15   16 1    
    31   15   74 1    
    32   15   75 1    
    33   16   17 1    
    34   17   18 1    
    35   17   76 1    
    36   17   77 1    
    37   18   19 1    
    38   18   27 1    
    39   18   78 1    
    40   19   20 am   BACKBONE|DICT|INTERRES
    41   19   79 1    
    42   20   21 2    
    43   20   22 1    
    44   22   23 1    
    45   22   24 1    
    46   22   80 1    
    47   23   81 1    
    48   23   82 1    
    49   23   83 1    
    50   24   25 am   BACKBONE|DICT|INTERRES
    51   24   84 1    
    52   25   26 2    
    53   27   28 2    
    54   27   29 am   BACKBONE|DICT|INTERRES
    55   29   30 1    
    56   29   85 1    
    57   30   31 1    
    58   30   32 1    
    59   30   86 1    
    60   31   87 1    
    61   31   88 1    
    62   31   89 1    
    63   32   33 2    
    64   32   34 am   BACKBONE|DICT|INTERRES
    65   34   35 1    
    66   34   90 1    
    67   35   36 1    
    68   35   37 1    
    69   35   91 1    
    70   36   92 1    
    71   36   93 1    
    72   36   94 1    
    73   37   38 2    
    74   37   39 am   BACKBONE|DICT|INTERRES
    75   39   40 1    
    76   39   95 1    
    77   40   41 1    
    78   40   42 1    
    79   40   96 1    
    80   41   97 1    
    81   41   98 1    
    82   41   99 1    
    83   42   43 2    
    84   42   44 am   BACKBONE|DICT|INTERRES
    85   44   45 1    
    86   44  100 1    
    87   45   46 1    
    88   45   47 1    
    89   45  101 1    
    90   46  102 1    
    91   46  103 1    
    92   46  104 1    
    93   47   48 2    
    94   47   49 am   BACKBONE|DICT|INTERRES
    95   49   50 1    
    96   49  105 1    
    97   50   51 1    
    98   50   52 1    
    99   50  106 1    
   100   51  107 1    
   101   51  108 1    
   102   51  109 1    
   103   52   53 2    
   104   52   54 am   BACKBONE|DICT|INTERRES
   105   54   55 1    
   106   54  110 1    
   107   55   56 1    
   108   55   59 1    
   109   55  111 1    
   110   56   57 am   BACKBONE|DICT|INTERRES
   111   56   58 2    
   112   57  112 1    
   113   57  113 1    
   114   59   60 1    
   115   59  114 1    
   116   59  115 1    
   117   60   61 1    
   118   61  116 1    
   119   61  117 1    
@<TRIPOS>SUBSTRUCTURE
     1 UNK         1 GROUP             0       ****    0 ROOT    
