@<TRIPOS>MOLECULE
3R8
117   119    1
SMALL
USER_CHARGES


@<TRIPOS>ATOM
      1 CA         13.4527  -24.2797  -46.3806 C.3       0 UNK        -0.2013 
      2 C          14.7219  -25.0441  -46.0371 C.2       0 UNK         0.4866 
      3 O          15.1722  -25.8746  -46.8271 O.2       0 UNK        -0.5176 
      4 N          15.3182  -24.7617  -44.8720 N.am      1 UNK        -0.4884 
      5 CA         16.5233  -25.4126  -44.3346 C.3       1 UNK         0.0853 
      6 C6         16.5695  -25.3238  -42.7865 C.3       10 UNK        -0.0849 
      7 S7         15.1621  -26.2155  -42.0356 S.3       10 UNK        -0.2776 
      8 C8         15.9794  -27.3758  -40.8852 C.3       10 UNK         0.0316 
      9 C9         17.0282  -28.2811  -41.5295 C.ar      10 UNK        -0.0863 
     10 C10        18.2463  -28.4911  -40.8718 C.ar      10 UNK        -0.1009 
     11 C11        19.2250  -29.3261  -41.4199 C.ar      10 UNK        -0.0712 
     12 C12        18.9636  -29.9621  -42.6355 C.ar      10 UNK        -0.0894 
     13 C13        17.7711  -29.7377  -43.3254 C.ar      10 UNK        -0.0745 
     14 C14        16.7954  -28.9125  -42.7584 C.ar      10 UNK        -0.0972 
     15 C15        17.5625  -30.3798  -44.6912 C.3       10 UNK         0.0209 
     16 S16        18.1160  -29.3035  -46.0599 S.3       10 UNK        -0.2568 
     17 C17        19.8999  -29.0841  -45.7042 C.3       10 UNK        -0.0983 
     18 CA         20.6015  -27.9986  -46.5603 C.3       3 UNK         0.0876 
     19 N          19.7807  -26.7869  -46.6395 N.am      3 UNK        -0.4424 
     20 C          20.0410  -25.6450  -47.2890 C.2       2 UNK         0.4918 
     21 O          21.0662  -25.4421  -47.9394 O.2       2 UNK        -0.4875 
     22 CA         18.9640  -24.5427  -47.2076 C.3       2 UNK         0.0481 
     23 CB         18.4300  -24.1995  -48.6082 C.3       2 UNK        -0.1831 
     24 N          17.8291  -24.9006  -46.3483 N.am      2 UNK        -0.4498 
     25 C          17.8134  -24.8874  -45.0085 C.2       1 UNK         0.5027 
     26 O          18.7666  -24.5058  -44.3276 O.2       1 UNK        -0.4969 
     27 C          22.0185  -27.7440  -45.9951 C.2       3 UNK         0.5005 
     28 O          22.9608  -28.4227  -46.4069 O.2       3 UNK        -0.5279 
     29 N          22.1188  -26.7731  -45.0710 N.am      4 UNK        -0.4463 
     30 CA         23.3000  -26.3291  -44.3204 C.3       4 UNK         0.0283 
     31 CB         24.4521  -25.9309  -45.2687 C.3       4 UNK        -0.1875 
     32 C          23.7629  -27.3292  -43.2426 C.2       4 UNK         0.4949 
     33 O          23.2996  -28.4713  -43.1954 O.2       4 UNK        -0.5039 
     34 N          24.6772  -26.8492  -42.3872 N.am      5 UNK        -0.4663 
     35 CA         25.2697  -27.5291  -41.2284 C.3       5 UNK         0.0242 
     36 CB         26.1574  -28.7120  -41.6772 C.3       5 UNK        -0.1982 
     37 C          24.2312  -27.8787  -40.1400 C.2       5 UNK         0.5017 
     38 O          23.2360  -27.1643  -39.9989 O.2       5 UNK        -0.5012 
     39 N          24.5044  -28.9237  -39.3521 N.am      6 UNK        -0.4439 
     40 CA         23.7076  -29.3768  -38.2147 C.3       6 UNK         0.0297 
     41 CB         24.0186  -28.5057  -36.9811 C.3       6 UNK        -0.2006 
     42 C          24.0158  -30.8567  -37.9503 C.2       6 UNK         0.4892 
     43 O          24.9127  -31.4149  -38.5911 O.2       6 UNK        -0.5089 
     44 N          23.2704  -31.4570  -37.0105 N.am      7 UNK        -0.4243 
     45 CA         23.3293  -32.8619  -36.5872 C.3       7 UNK         0.0196 
     46 CB         24.6828  -33.1935  -35.9172 C.3       7 UNK        -0.2007 
     47 C          22.9582  -33.8058  -37.7434 C.2       7 UNK         0.5020 
     48 O          21.7699  -34.0155  -37.9866 O.2       7 UNK        -0.5147 
     49 N          23.9669  -34.3348  -38.4479 N.am      8 UNK        -0.4734 
     50 CA         23.7963  -35.0972  -39.6888 C.3       8 UNK         0.0238 
     51 CB         25.0942  -35.8622  -39.9951 C.3       8 UNK        -0.1912 
     52 C          23.3974  -34.2094  -40.8839 C.2       8 UNK         0.5038 
     53 O          22.7715  -34.7141  -41.8173 O.2       8 UNK        -0.5046 
     54 N          23.7549  -32.9184  -40.8179 N.am      9 UNK        -0.4200 
     55 CA         23.4931  -31.8621  -41.8075 C.3       9 UNK         0.0839 
     56 C          24.2626  -32.0465  -43.1497 C.2       9 UNK         0.5513 
     57 N          24.2139  -31.0557  -44.0289 N.am      9 UNK        -0.7519 
     58 O          24.9248  -33.0512  -43.4016 O.2       9 UNK        -0.4960 
     59 C59        21.9777  -31.5921  -42.0274 C.3       10 UNK        -0.0876 
     60 S60        21.0770  -31.2183  -40.4779 S.3       10 UNK        -0.2414 
     61 C61        20.5755  -29.4820  -40.7230 C.3       10 UNK         0.0169 
     62 H62        12.6257  -24.9740  -46.5263 H         1 UNK         0.0903 
     63 H63        13.1727  -23.5793  -45.5939 H         1 UNK         0.0903 
     64 H64        13.5919  -23.7167  -47.3031 H         1 UNK         0.0903 
     65 H65        14.9099  -24.0586  -44.2721 H         1 UNK         0.3096 
     66 H66        16.4757  -26.4737  -44.5918 H         1 UNK         0.1121 
     67 H67        17.5026  -25.7396  -42.4019 H         1 UNK         0.0849 
     68 H68        16.5458  -24.2835  -42.4572 H         1 UNK         0.0849 
     69 H69        16.4229  -26.7922  -40.0767 H         1 UNK         0.0865 
     70 H70        15.2166  -28.0040  -40.4235 H         1 UNK         0.0865 
     71 H71        18.4384  -27.9942  -39.9305 H         1 UNK         0.1346 
     72 H72        19.7041  -30.6065  -43.0810 H         1 UNK         0.1412 
     73 H73        15.8631  -28.7492  -43.2816 H         1 UNK         0.1426 
     74 H74        18.0921  -31.3322  -44.7478 H         1 UNK         0.0716 
     75 H75        16.5058  -30.6119  -44.8316 H         1 UNK         0.0716 
     76 H76        19.9988  -28.8038  -44.6573 H         1 UNK         0.0695 
     77 H77        20.4016  -30.0470  -45.8173 H         1 UNK         0.0695 
     78 H78        20.7153  -28.3753  -47.5788 H         1 UNK         0.0983 
     79 H79        18.8845  -26.8607  -46.1825 H         1 UNK         0.3095 
     80 H80        19.4422  -23.6513  -46.7968 H         1 UNK         0.0454 
     81 H81        17.9429  -25.0565  -49.0751 H         1 UNK         0.0851 
     82 H82        17.7082  -23.3836  -48.5687 H         1 UNK         0.0851 
     83 H83        19.2370  -23.8824  -49.2701 H         1 UNK         0.0851 
     84 H84        16.9883  -25.2382  -46.8114 H         1 UNK         0.2976 
     85 H85        21.2574  -26.3131  -44.8106 H         1 UNK         0.3116 
     86 H86        22.9797  -25.4293  -43.7926 H         1 UNK         0.0646 
     87 H87        25.2427  -25.4042  -44.7338 H         1 UNK         0.0847 
     88 H88        24.1036  -25.2668  -46.0598 H         1 UNK         0.0847 
     89 H89        24.9105  -26.8010  -45.7397 H         1 UNK         0.0847 
     90 H90        24.9546  -25.8837  -42.4972 H         1 UNK         0.3040 
     91 H91        25.9291  -26.7944  -40.7634 H         1 UNK         0.1015 
     92 H92        26.8689  -28.3968  -42.4406 H         1 UNK         0.0786 
     93 H93        25.5707  -29.5257  -42.0975 H         1 UNK         0.0786 
     94 H94        26.7442  -29.1151  -40.8513 H         1 UNK         0.0786 
     95 H95        25.3054  -29.5113  -39.5492 H         1 UNK         0.3172 
     96 H96        22.6482  -29.2952  -38.4636 H         1 UNK         0.0595 
     97 H97        23.4209  -28.8039  -36.1192 H         1 UNK         0.0839 
     98 H98        23.7987  -27.4548  -37.1701 H         1 UNK         0.0839 
     99 H99        25.0678  -28.5798  -36.6924 H         1 UNK         0.0839 
    100 H100       22.5403  -30.9119  -36.5730 H         1 UNK         0.2998 
    101 H101       22.5545  -32.9891  -35.8292 H         1 UNK         0.0822 
    102 H102       24.8327  -32.5856  -35.0249 H         1 UNK         0.0787 
    103 H103       24.7164  -34.2373  -35.6020 H         1 UNK         0.0787 
    104 H104       25.5354  -33.0216  -36.5743 H         1 UNK         0.0787 
    105 H105       24.9104  -34.0823  -38.1885 H         1 UNK         0.3055 
    106 H106       22.9944  -35.8244  -39.5409 H         1 UNK         0.1106 
    107 H107       24.9881  -36.4606  -40.9012 H         1 UNK         0.0828 
    108 H108       25.9357  -35.1856  -40.1495 H         1 UNK         0.0828 
    109 H109       25.3539  -36.5451  -39.1861 H         1 UNK         0.0828 
    110 H110       24.2646  -32.6088  -39.9970 H         1 UNK         0.2931 
    111 H111       23.9136  -30.9650  -41.3548 H         1 UNK         0.0412 
    112 H112       24.7051  -31.1493  -44.9032 H         1 UNK         0.3472 
    113 H113       23.7541  -30.1757  -43.8038 H         1 UNK         0.3472 
    114 H114       21.4998  -32.4478  -42.5064 H         1 UNK         0.0970 
    115 H115       21.8573  -30.7563  -42.7166 H         1 UNK         0.0970 
    116 H116       21.3404  -28.9486  -41.2885 H         1 UNK         0.0612 
    117 H117       20.5445  -29.0074  -39.7414 H         1 UNK         0.0612 
@<TRIPOS>BOND
     1    1    2 1    
     2    1   62 1    
     3    1   63 1    
     4    1   64 1    
     5    2    3 2    
     6    2    4 am   BACKBONE|DICT|INTERRES
     7    4    5 1    
     8    4   65 1    
     9    5    6 1    
    10    5   25 1    
    11    5   66 1    
    12    6    7 1    
    13    6   67 1    
    14    6   68 1    
    15    7    8 1    
    16    8    9 1    
    17    8   69 1    
    18    8   70 1    
    19    9   10 ar   
    20    9   14 ar   
    21   10   11 ar   
    22   10   71 1    
    23   11   12 ar   
    24   11   61 1    
    25   12   13 ar   
    26   12   72 1    
    27   13   14 ar   
    28   13   15 1    
    29   14   73 1    
    30   15   16 1    
    31   15   74 1    
    32   15   75 1    
    33   16   17 1    
    34   17   18 1    
    35   17   76 1    
    36   17   77 1    
    37   18   19 1    
    38   18   27 1    
    39   18   78 1    
    40   19   20 am   BACKBONE|DICT|INTERRES
    41   19   79 1    
    42   20   21 2    
    43   20   22 1    
    44   22   23 1    
    45   22   24 1    
    46   22   80 1    
    47   23   81 1    
    48   23   82 1    
    49   23   83 1    
    50   24   25 am   BACKBONE|DICT|INTERRES
    51   24   84 1    
    52   25   26 2    
    53   27   28 2    
    54   27   29 am   BACKBONE|DICT|INTERRES
    55   29   30 1    
    56   29   85 1    
    57   30   31 1    
    58   30   32 1    
    59   30   86 1    
    60   31   87 1    
    61   31   88 1    
    62   31   89 1    
    63   32   33 2    
    64   32   34 am   BACKBONE|DICT|INTERRES
    65   34   35 1    
    66   34   90 1    
    67   35   36 1    
    68   35   37 1    
    69   35   91 1    
    70   36   92 1    
    71   36   93 1    
    72   36   94 1    
    73   37   38 2    
    74   37   39 am   BACKBONE|DICT|INTERRES
    75   39   40 1    
    76   39   95 1    
    77   40   41 1    
    78   40   42 1    
    79   40   96 1    
    80   41   97 1    
    81   41   98 1    
    82   41   99 1    
    83   42   43 2    
    84   42   44 am   BACKBONE|DICT|INTERRES
    85   44   45 1    
    86   44  100 1    
    87   45   46 1    
    88   45   47 1    
    89   45  101 1    
    90   46  102 1    
    91   46  103 1    
    92   46  104 1    
    93   47   48 2    
    94   47   49 am   BACKBONE|DICT|INTERRES
    95   49   50 1    
    96   49  105 1    
    97   50   51 1    
    98   50   52 1    
    99   50  106 1    
   100   51  107 1    
   101   51  108 1    
   102   51  109 1    
   103   52   53 2    
   104   52   54 am   BACKBONE|DICT|INTERRES
   105   54   55 1    
   106   54  110 1    
   107   55   56 1    
   108   55   59 1    
   109   55  111 1    
   110   56   57 am   BACKBONE|DICT|INTERRES
   111   56   58 2    
   112   57  112 1    
   113   57  113 1    
   114   59   60 1    
   115   59  114 1    
   116   59  115 1    
   117   60   61 1    
   118   61  116 1    
   119   61  117 1    
@<TRIPOS>SUBSTRUCTURE
     1 UNK         1 GROUP             0       ****    0 ROOT    
