@<TRIPOS>MOLECULE
3R8
117   119    1
SMALL
USER_CHARGES


@<TRIPOS>ATOM
      1 CA         15.4986  -22.0659  -42.9310 C.3       0 UNK        -0.2013 
      2 C          15.6576  -23.0952  -44.0401 C.2       0 UNK         0.4866 
      3 O          14.9439  -23.0331  -45.0414 O.2       0 UNK        -0.5176 
      4 N          16.5892  -24.0379  -43.8714 N.am      1 UNK        -0.4884 
      5 CA         16.9360  -25.0810  -44.8347 C.3       1 UNK         0.0853 
      6 C6         15.8886  -26.2270  -44.8786 C.3       10 UNK        -0.0849 
      7 S7         15.9278  -27.1383  -46.4612 S.3       10 UNK        -0.2776 
      8 C8         15.2498  -28.7559  -45.9796 C.3       10 UNK         0.0316 
      9 C9         16.2294  -29.5884  -45.1619 C.ar      10 UNK        -0.0863 
     10 C10        17.2609  -30.2905  -45.7964 C.ar      10 UNK        -0.1009 
     11 C11        18.1041  -31.1340  -45.0636 C.ar      10 UNK        -0.0712 
     12 C12        17.8957  -31.2759  -43.6903 C.ar      10 UNK        -0.0894 
     13 C13        16.9064  -30.5404  -43.0345 C.ar      10 UNK        -0.0745 
     14 C14        16.0696  -29.7034  -43.7772 C.ar      10 UNK        -0.0972 
     15 C15        16.7240  -30.6794  -41.5293 C.3       10 UNK         0.0209 
     16 S16        18.2752  -30.4089  -40.6088 S.3       10 UNK        -0.2568 
     17 C17        18.5736  -28.6303  -40.8696 C.3       10 UNK        -0.0983 
     18 CA         19.9061  -28.3595  -41.6279 C.3       3 UNK         0.0876 
     19 N          19.6766  -28.0325  -43.0438 N.am      3 UNK        -0.4424 
     20 C          20.6341  -27.7395  -43.9379 C.2       2 UNK         0.4918 
     21 O          21.8351  -27.8738  -43.7088 O.2       2 UNK        -0.4875 
     22 CA         20.2093  -27.0896  -45.2707 C.3       2 UNK         0.0481 
     23 CB         20.3896  -28.0529  -46.4515 C.3       2 UNK        -0.1831 
     24 N          18.8528  -26.5326  -45.3074 N.am      2 UNK        -0.4498 
     25 C          18.3606  -25.5722  -44.5142 C.2       1 UNK         0.5027 
     26 O          18.9773  -25.0940  -43.5568 O.2       1 UNK        -0.4969 
     27 C          20.7389  -27.2814  -40.8901 C.2       3 UNK         0.5005 
     28 O          21.4994  -27.6260  -39.9843 O.2       3 UNK        -0.5279 
     29 N          20.6260  -26.0092  -41.3092 N.am      4 UNK        -0.4463 
     30 CA         21.3964  -24.8747  -40.7876 C.3       4 UNK         0.0283 
     31 CB         20.8438  -23.5696  -41.3824 C.3       4 UNK        -0.1875 
     32 C          22.9161  -24.9706  -41.0294 C.2       4 UNK         0.4949 
     33 O          23.6710  -24.2938  -40.3313 O.2       4 UNK        -0.5039 
     34 N          23.3489  -25.8117  -41.9815 N.am      5 UNK        -0.4663 
     35 CA         24.7607  -26.1224  -42.2293 C.3       5 UNK         0.0242 
     36 CB         24.9192  -26.6363  -43.6704 C.3       5 UNK        -0.1982 
     37 C          25.3446  -27.1362  -41.2239 C.2       5 UNK         0.5017 
     38 O          26.5544  -27.3666  -41.2563 O.2       5 UNK        -0.5012 
     39 N          24.4943  -27.7171  -40.3612 N.am      6 UNK        -0.4439 
     40 CA         24.7967  -28.7548  -39.3720 C.3       6 UNK         0.0297 
     41 CB         25.8055  -28.2469  -38.3156 C.3       6 UNK        -0.2006 
     42 C          25.1924  -30.0874  -40.0388 C.2       6 UNK         0.4892 
     43 O          24.7196  -30.3790  -41.1408 O.2       6 UNK        -0.5089 
     44 N          25.9881  -30.9057  -39.3301 N.am      7 UNK        -0.4243 
     45 CA         26.4716  -32.2407  -39.7233 C.3       7 UNK         0.0196 
     46 CB         27.5070  -32.1173  -40.8615 C.3       7 UNK        -0.2007 
     47 C          25.3409  -33.2348  -40.0667 C.2       7 UNK         0.5020 
     48 O          25.5309  -34.1171  -40.9055 O.2       7 UNK        -0.5147 
     49 N          24.1642  -33.0344  -39.4510 N.am      8 UNK        -0.4734 
     50 CA         22.8906  -33.7236  -39.7046 C.3       8 UNK         0.0238 
     51 CB         22.9629  -35.1823  -39.2040 C.3       8 UNK        -0.1912 
     52 C          22.4030  -33.6295  -41.1686 C.2       8 UNK         0.5038 
     53 O          21.6308  -34.4885  -41.5981 O.2       8 UNK        -0.5046 
     54 N          22.8642  -32.6090  -41.9113 N.am      9 UNK        -0.4200 
     55 CA         22.6670  -32.4501  -43.3617 C.3       9 UNK         0.0839 
     56 C          23.3981  -33.5361  -44.2173 C.2       9 UNK         0.5513 
     57 N          24.4040  -34.2269  -43.6902 N.am      9 UNK        -0.7519 
     58 O          23.0747  -33.7510  -45.3821 O.2       9 UNK        -0.4960 
     59 C59        21.1657  -32.2465  -43.7175 C.3       10 UNK        -0.0876 
     60 S60        20.8797  -31.3380  -45.2748 S.3       10 UNK        -0.2414 
     61 C61        19.2160  -31.9165  -45.7542 C.3       10 UNK         0.0169 
     62 H62        14.4853  -22.0983  -42.5317 H         1 UNK         0.0903 
     63 H63        16.1925  -22.2415  -42.1090 H         1 UNK         0.0903 
     64 H64        15.6801  -21.0642  -43.3197 H         1 UNK         0.0903 
     65 H65        17.2061  -24.0178  -43.0672 H         1 UNK         0.3096 
     66 H66        16.9871  -24.6048  -45.8170 H         1 UNK         0.1121 
     67 H67        16.0194  -26.9046  -44.0342 H         1 UNK         0.0849 
     68 H68        14.8799  -25.8238  -44.7779 H         1 UNK         0.0849 
     69 H69        14.3156  -28.6094  -45.4349 H         1 UNK         0.0865 
     70 H70        14.9838  -29.3049  -46.8843 H         1 UNK         0.0865 
     71 H71        17.3910  -30.1954  -46.8659 H         1 UNK         0.1346 
     72 H72        18.5105  -31.9537  -43.1184 H         1 UNK         0.1412 
     73 H73        15.2763  -29.1610  -43.2807 H         1 UNK         0.1426 
     74 H74        16.3591  -31.6843  -41.3133 H         1 UNK         0.0716 
     75 H75        15.9649  -29.9889  -41.1585 H         1 UNK         0.0716 
     76 H76        18.5672  -28.1828  -39.8730 H         1 UNK         0.0695 
     77 H77        17.7249  -28.1769  -41.3845 H         1 UNK         0.0695 
     78 H78        20.5227  -29.2611  -41.6167 H         1 UNK         0.0983 
     79 H79        18.7156  -27.9263  -43.3303 H         1 UNK         0.3095 
     80 H80        20.8924  -26.2522  -45.4264 H         1 UNK         0.0454 
     81 H81        19.6684  -28.8681  -46.4176 H         1 UNK         0.0851 
     82 H82        21.3866  -28.4958  -46.4491 H         1 UNK         0.0851 
     83 H83        20.2689  -27.5394  -47.4052 H         1 UNK         0.0851 
     84 H84        18.2405  -26.8954  -46.0277 H         1 UNK         0.2976 
     85 H85        19.9934  -25.8011  -42.0784 H         1 UNK         0.3116 
     86 H86        21.2441  -24.8464  -39.7067 H         1 UNK         0.0646 
     87 H87        21.3570  -22.7016  -40.9662 H         1 UNK         0.0847 
     88 H88        19.7820  -23.4510  -41.1667 H         1 UNK         0.0847 
     89 H89        20.9721  -23.5350  -42.4651 H         1 UNK         0.0847 
     90 H90        22.6725  -26.3538  -42.5085 H         1 UNK         0.3040 
     91 H91        25.3421  -25.2026  -42.1334 H         1 UNK         0.1015 
     92 H92        24.4837  -25.9457  -44.3927 H         1 UNK         0.0786 
     93 H93        24.4465  -27.6097  -43.8056 H         1 UNK         0.0786 
     94 H94        25.9729  -26.7525  -43.9275 H         1 UNK         0.0786 
     95 H95        23.5090  -27.4863  -40.4398 H         1 UNK         0.3172 
     96 H96        23.8543  -28.9471  -38.8573 H         1 UNK         0.0595 
     97 H97        26.8157  -28.1660  -38.7190 H         1 UNK         0.0839 
     98 H98        25.8465  -28.9095  -37.4506 H         1 UNK         0.0839 
     99 H99        25.5202  -27.2632  -37.9421 H         1 UNK         0.0839 
    100 H100       26.3015  -30.5814  -38.4254 H         1 UNK         0.2998 
    101 H101       26.9823  -32.6550  -38.8528 H         1 UNK         0.0822 
    102 H102       27.0491  -31.7635  -41.7861 H         1 UNK         0.0787 
    103 H103       28.3062  -31.4246  -40.5976 H         1 UNK         0.0787 
    104 H104       27.9730  -33.0798  -41.0764 H         1 UNK         0.0787 
    105 H105       24.1196  -32.2743  -38.7864 H         1 UNK         0.3055 
    106 H106       22.1359  -33.2067  -39.1096 H         1 UNK         0.1106 
    107 H107       23.6495  -35.7811  -39.8032 H         1 UNK         0.0828 
    108 H108       23.2931  -35.2306  -38.1665 H         1 UNK         0.0828 
    109 H109       21.9855  -35.6642  -39.2521 H         1 UNK         0.0828 
    110 H110       23.5097  -31.9469  -41.4915 H         1 UNK         0.2931 
    111 H111       23.1818  -31.5179  -43.5977 H         1 UNK         0.0412 
    112 H112       24.8712  -34.9180  -44.2552 H         1 UNK         0.3472 
    113 H113       24.6968  -34.0834  -42.7292 H         1 UNK         0.3472 
    114 H114       20.6460  -33.2055  -43.7432 H         1 UNK         0.0970 
    115 H115       20.6948  -31.6604  -42.9278 H         1 UNK         0.0970 
    116 H116       19.1249  -31.8190  -46.8369 H         1 UNK         0.0612 
    117 H117       19.1111  -32.9804  -45.5379 H         1 UNK         0.0612 
@<TRIPOS>BOND
     1    1    2 1    
     2    1   62 1    
     3    1   63 1    
     4    1   64 1    
     5    2    3 2    
     6    2    4 am   BACKBONE|DICT|INTERRES
     7    4    5 1    
     8    4   65 1    
     9    5    6 1    
    10    5   25 1    
    11    5   66 1    
    12    6    7 1    
    13    6   67 1    
    14    6   68 1    
    15    7    8 1    
    16    8    9 1    
    17    8   69 1    
    18    8   70 1    
    19    9   10 ar   
    20    9   14 ar   
    21   10   11 ar   
    22   10   71 1    
    23   11   12 ar   
    24   11   61 1    
    25   12   13 ar   
    26   12   72 1    
    27   13   14 ar   
    28   13   15 1    
    29   14   73 1    
    30   15   16 1    
    31   15   74 1    
    32   15   75 1    
    33   16   17 1    
    34   17   18 1    
    35   17   76 1    
    36   17   77 1    
    37   18   19 1    
    38   18   27 1    
    39   18   78 1    
    40   19   20 am   BACKBONE|DICT|INTERRES
    41   19   79 1    
    42   20   21 2    
    43   20   22 1    
    44   22   23 1    
    45   22   24 1    
    46   22   80 1    
    47   23   81 1    
    48   23   82 1    
    49   23   83 1    
    50   24   25 am   BACKBONE|DICT|INTERRES
    51   24   84 1    
    52   25   26 2    
    53   27   28 2    
    54   27   29 am   BACKBONE|DICT|INTERRES
    55   29   30 1    
    56   29   85 1    
    57   30   31 1    
    58   30   32 1    
    59   30   86 1    
    60   31   87 1    
    61   31   88 1    
    62   31   89 1    
    63   32   33 2    
    64   32   34 am   BACKBONE|DICT|INTERRES
    65   34   35 1    
    66   34   90 1    
    67   35   36 1    
    68   35   37 1    
    69   35   91 1    
    70   36   92 1    
    71   36   93 1    
    72   36   94 1    
    73   37   38 2    
    74   37   39 am   BACKBONE|DICT|INTERRES
    75   39   40 1    
    76   39   95 1    
    77   40   41 1    
    78   40   42 1    
    79   40   96 1    
    80   41   97 1    
    81   41   98 1    
    82   41   99 1    
    83   42   43 2    
    84   42   44 am   BACKBONE|DICT|INTERRES
    85   44   45 1    
    86   44  100 1    
    87   45   46 1    
    88   45   47 1    
    89   45  101 1    
    90   46  102 1    
    91   46  103 1    
    92   46  104 1    
    93   47   48 2    
    94   47   49 am   BACKBONE|DICT|INTERRES
    95   49   50 1    
    96   49  105 1    
    97   50   51 1    
    98   50   52 1    
    99   50  106 1    
   100   51  107 1    
   101   51  108 1    
   102   51  109 1    
   103   52   53 2    
   104   52   54 am   BACKBONE|DICT|INTERRES
   105   54   55 1    
   106   54  110 1    
   107   55   56 1    
   108   55   59 1    
   109   55  111 1    
   110   56   57 am   BACKBONE|DICT|INTERRES
   111   56   58 2    
   112   57  112 1    
   113   57  113 1    
   114   59   60 1    
   115   59  114 1    
   116   59  115 1    
   117   60   61 1    
   118   61  116 1    
   119   61  117 1    
@<TRIPOS>SUBSTRUCTURE
     1 UNK         1 GROUP             0       ****    0 ROOT    
