@<TRIPOS>MOLECULE
3R8
117   119    1
SMALL
USER_CHARGES


@<TRIPOS>ATOM
      1 CA         16.1075  -22.3522  -48.9315 C.3       0 UNK        -0.2013 
      2 C          17.2355  -23.1918  -48.3506 C.2       0 UNK         0.4866 
      3 O          18.2976  -23.3000  -48.9639 O.2       0 UNK        -0.5176 
      4 N          17.0153  -23.7855  -47.1741 N.am      1 UNK        -0.4884 
      5 CA         17.9791  -24.6038  -46.4417 C.3       1 UNK         0.0853 
      6 C6         17.9997  -26.0653  -46.9591 C.3       10 UNK        -0.0849 
      7 S7         19.5252  -26.9598  -46.5122 S.3       10 UNK        -0.2776 
      8 C8         19.0690  -28.6716  -46.9416 C.3       10 UNK         0.0316 
      9 C9         18.5059  -29.4277  -45.7457 C.ar      10 UNK        -0.0863 
     10 C10        19.3423  -30.2425  -44.9756 C.ar      10 UNK        -0.1009 
     11 C11        18.8352  -30.9447  -43.8781 C.ar      10 UNK        -0.0712 
     12 C12        17.4811  -30.8336  -43.5533 C.ar      10 UNK        -0.0894 
     13 C13        16.6429  -29.9979  -44.2960 C.ar      10 UNK        -0.0745 
     14 C14        17.1543  -29.3161  -45.4042 C.ar      10 UNK        -0.0972 
     15 C15        15.1959  -29.7942  -43.8757 C.3       10 UNK         0.0209 
     16 S16        14.9918  -28.2336  -42.9549 S.3       10 UNK        -0.2568 
     17 C17        15.8420  -28.5966  -41.3775 C.3       10 UNK        -0.0983 
     18 CA         17.3212  -28.1209  -41.3427 C.3       3 UNK         0.0876 
     19 N          17.4573  -26.6979  -41.6848 N.am      3 UNK        -0.4424 
     20 C          18.5462  -26.1399  -42.2248 C.2       2 UNK         0.4918 
     21 O          19.6083  -26.7407  -42.3971 O.2       2 UNK        -0.4875 
     22 CA         18.4488  -24.6662  -42.6269 C.3       2 UNK         0.0481 
     23 CB         19.5444  -23.8353  -41.9372 C.3       2 UNK        -0.1831 
     24 N          18.6164  -24.5876  -44.0752 N.am      2 UNK        -0.4498 
     25 C          17.6083  -24.5208  -44.9516 C.2       1 UNK         0.5027 
     26 O          16.4214  -24.4045  -44.6304 O.2       1 UNK        -0.4969 
     27 C          18.0377  -28.4987  -40.0220 C.2       3 UNK         0.5005 
     28 O          17.4898  -29.2482  -39.2109 O.2       3 UNK        -0.5279 
     29 N          19.2505  -27.9710  -39.8273 N.am      4 UNK        -0.4463 
     30 CA         20.1465  -28.2142  -38.6976 C.3       4 UNK         0.0283 
     31 CB         19.6526  -27.4624  -37.4437 C.3       4 UNK        -0.1875 
     32 C          21.5884  -27.8395  -39.0860 C.2       4 UNK         0.4949 
     33 O          22.3449  -27.3507  -38.2455 O.2       4 UNK        -0.5039 
     34 N          21.9375  -28.0369  -40.3642 N.am      5 UNK        -0.4663 
     35 CA         23.2514  -27.7388  -40.9290 C.3       5 UNK         0.0242 
     36 CB         23.1397  -27.7197  -42.4615 C.3       5 UNK        -0.1982 
     37 C          24.3012  -28.7611  -40.4665 C.2       5 UNK         0.5017 
     38 O          24.0354  -29.9662  -40.4990 O.2       5 UNK        -0.5012 
     39 N          25.4772  -28.2594  -40.0645 N.am      6 UNK        -0.4439 
     40 CA         26.6182  -29.0526  -39.6015 C.3       6 UNK         0.0297 
     41 CB         27.7439  -28.1118  -39.1432 C.3       6 UNK        -0.2006 
     42 C          27.1255  -30.0113  -40.6893 C.2       6 UNK         0.4892 
     43 O          27.2706  -29.5973  -41.8422 O.2       6 UNK        -0.5089 
     44 N          27.3558  -31.2722  -40.2995 N.am      7 UNK        -0.4243 
     45 CA         27.7384  -32.4327  -41.1178 C.3       7 UNK         0.0196 
     46 CB         29.0870  -32.2138  -41.8317 C.3       7 UNK        -0.2007 
     47 C          26.6511  -32.8937  -42.1067 C.2       7 UNK         0.5020 
     48 O          26.3734  -34.0909  -42.1712 O.2       7 UNK        -0.5147 
     49 N          26.0402  -31.9530  -42.8381 N.am      8 UNK        -0.4734 
     50 CA         24.9923  -32.1831  -43.8372 C.3       8 UNK         0.0238 
     51 CB         24.6444  -30.8546  -44.5259 C.3       8 UNK        -0.1912 
     52 C          23.7281  -32.8507  -43.2709 C.2       8 UNK         0.5038 
     53 O          23.1789  -33.7376  -43.9259 O.2       8 UNK        -0.5046 
     54 N          23.3136  -32.4387  -42.0664 N.am      9 UNK        -0.4200 
     55 CA         22.2150  -33.0554  -41.3063 C.3       9 UNK         0.0839 
     56 C          22.6996  -34.1266  -40.2853 C.2       9 UNK         0.5513 
     57 N          23.9553  -34.5595  -40.3075 N.am      9 UNK        -0.7519 
     58 O          21.9163  -34.5921  -39.4615 O.2       9 UNK        -0.4960 
     59 C59        21.2966  -31.9917  -40.6444 C.3       10 UNK        -0.0876 
     60 S60        20.6148  -30.7539  -41.8004 S.3       10 UNK        -0.2414 
     61 C61        19.7553  -31.7929  -43.0183 C.3       10 UNK         0.0169 
     62 H62        15.2283  -22.3486  -48.2873 H         1 UNK         0.0903 
     63 H63        16.4359  -21.3215  -49.0629 H         1 UNK         0.0903 
     64 H64        15.8123  -22.7426  -49.9051 H         1 UNK         0.0903 
     65 H65        16.1440  -23.6450  -46.6752 H         1 UNK         0.3096 
     66 H66        18.9680  -24.1568  -46.5713 H         1 UNK         0.1121 
     67 H67        17.1223  -26.6108  -46.6106 H         1 UNK         0.0849 
     68 H68        17.9408  -26.0751  -48.0487 H         1 UNK         0.0849 
     69 H69        18.3527  -28.6775  -47.7648 H         1 UNK         0.0865 
     70 H70        19.9570  -29.1825  -47.3170 H         1 UNK         0.0865 
     71 H71        20.3932  -30.3206  -45.2192 H         1 UNK         0.1346 
     72 H72        17.0915  -31.3595  -42.6923 H         1 UNK         0.1412 
     73 H73        16.4996  -28.6809  -45.9833 H         1 UNK         0.1426 
     74 H74        14.8421  -30.6300  -43.2701 H         1 UNK         0.0716 
     75 H75        14.5594  -29.7678  -44.7614 H         1 UNK         0.0716 
     76 H76        15.7774  -29.6696  -41.1881 H         1 UNK         0.0695 
     77 H77        15.2756  -28.1166  -40.5775 H         1 UNK         0.0695 
     78 H78        17.8574  -28.6752  -42.1123 H         1 UNK         0.0983 
     79 H79        16.6253  -26.1373  -41.5706 H         1 UNK         0.3095 
     80 H80        17.4785  -24.2659  -42.3251 H         1 UNK         0.0454 
     81 H81        19.4487  -23.8894  -40.8520 H         1 UNK         0.0851 
     82 H82        19.4769  -22.7838  -42.2162 H         1 UNK         0.0851 
     83 H83        20.5456  -24.1849  -42.1933 H         1 UNK         0.0851 
     84 H84        19.5499  -24.7642  -44.4209 H         1 UNK         0.2976 
     85 H85        19.6253  -27.3908  -40.5741 H         1 UNK         0.3116 
     86 H86        20.1495  -29.2852  -38.4850 H         1 UNK         0.0646 
     87 H87        18.6462  -27.7700  -37.1604 H         1 UNK         0.0847 
     88 H88        19.6411  -26.3838  -37.6034 H         1 UNK         0.0847 
     89 H89        20.2978  -27.6603  -36.5869 H         1 UNK         0.0847 
     90 H90        21.2938  -28.5228  -40.9750 H         1 UNK         0.3040 
     91 H91        23.5501  -26.7432  -40.5933 H         1 UNK         0.1015 
     92 H92        24.1119  -27.5516  -42.9269 H         1 UNK         0.0786 
     93 H93        22.4749  -26.9235  -42.7981 H         1 UNK         0.0786 
     94 H94        22.7462  -28.6609  -42.8464 H         1 UNK         0.0786 
     95 H95        25.6158  -27.2602  -40.1055 H         1 UNK         0.3172 
     96 H96        26.2833  -29.6355  -38.7407 H         1 UNK         0.0595 
     97 H97        28.5984  -28.6785  -38.7704 H         1 UNK         0.0839 
     98 H98        27.4140  -27.4583  -38.3352 H         1 UNK         0.0839 
     99 H99        28.1027  -27.4837  -39.9599 H         1 UNK         0.0839 
    100 H100       27.1752  -31.4901  -39.3287 H         1 UNK         0.2998 
    101 H101       27.8782  -33.2521  -40.4105 H         1 UNK         0.0822 
    102 H102       29.8712  -31.9459  -41.1236 H         1 UNK         0.0787 
    103 H103       29.4071  -33.1238  -42.3409 H         1 UNK         0.0787 
    104 H104       29.0319  -31.4270  -42.5845 H         1 UNK         0.0787 
    105 H105       26.3449  -30.9930  -42.6939 H         1 UNK         0.3055 
    106 H106       25.4028  -32.8604  -44.5893 H         1 UNK         0.1106 
    107 H107       25.5055  -30.4438  -45.0530 H         1 UNK         0.0828 
    108 H108       23.8478  -30.9875  -45.2595 H         1 UNK         0.0828 
    109 H109       24.3071  -30.1096  -43.8063 H         1 UNK         0.0828 
    110 H110       23.8013  -31.6814  -41.5986 H         1 UNK         0.2931 
    111 H111       21.5873  -33.6207  -41.9958 H         1 UNK         0.0412 
    112 H112       24.6082  -34.2396  -41.0113 H         1 UNK         0.3472 
    113 H113       24.2424  -35.2587  -39.6409 H         1 UNK         0.3472 
    114 H114       21.8428  -31.4566  -39.8658 H         1 UNK         0.0970 
    115 H115       20.4540  -32.4716  -40.1432 H         1 UNK         0.0970 
    116 H116       19.1874  -32.5693  -42.5033 H         1 UNK         0.0612 
    117 H117       20.4869  -32.3007  -43.6483 H         1 UNK         0.0612 
@<TRIPOS>BOND
     1    1    2 1    
     2    1   62 1    
     3    1   63 1    
     4    1   64 1    
     5    2    3 2    
     6    2    4 am   BACKBONE|DICT|INTERRES
     7    4    5 1    
     8    4   65 1    
     9    5    6 1    
    10    5   25 1    
    11    5   66 1    
    12    6    7 1    
    13    6   67 1    
    14    6   68 1    
    15    7    8 1    
    16    8    9 1    
    17    8   69 1    
    18    8   70 1    
    19    9   10 ar   
    20    9   14 ar   
    21   10   11 ar   
    22   10   71 1    
    23   11   12 ar   
    24   11   61 1    
    25   12   13 ar   
    26   12   72 1    
    27   13   14 ar   
    28   13   15 1    
    29   14   73 1    
    30   15   16 1    
    31   15   74 1    
    32   15   75 1    
    33   16   17 1    
    34   17   18 1    
    35   17   76 1    
    36   17   77 1    
    37   18   19 1    
    38   18   27 1    
    39   18   78 1    
    40   19   20 am   BACKBONE|DICT|INTERRES
    41   19   79 1    
    42   20   21 2    
    43   20   22 1    
    44   22   23 1    
    45   22   24 1    
    46   22   80 1    
    47   23   81 1    
    48   23   82 1    
    49   23   83 1    
    50   24   25 am   BACKBONE|DICT|INTERRES
    51   24   84 1    
    52   25   26 2    
    53   27   28 2    
    54   27   29 am   BACKBONE|DICT|INTERRES
    55   29   30 1    
    56   29   85 1    
    57   30   31 1    
    58   30   32 1    
    59   30   86 1    
    60   31   87 1    
    61   31   88 1    
    62   31   89 1    
    63   32   33 2    
    64   32   34 am   BACKBONE|DICT|INTERRES
    65   34   35 1    
    66   34   90 1    
    67   35   36 1    
    68   35   37 1    
    69   35   91 1    
    70   36   92 1    
    71   36   93 1    
    72   36   94 1    
    73   37   38 2    
    74   37   39 am   BACKBONE|DICT|INTERRES
    75   39   40 1    
    76   39   95 1    
    77   40   41 1    
    78   40   42 1    
    79   40   96 1    
    80   41   97 1    
    81   41   98 1    
    82   41   99 1    
    83   42   43 2    
    84   42   44 am   BACKBONE|DICT|INTERRES
    85   44   45 1    
    86   44  100 1    
    87   45   46 1    
    88   45   47 1    
    89   45  101 1    
    90   46  102 1    
    91   46  103 1    
    92   46  104 1    
    93   47   48 2    
    94   47   49 am   BACKBONE|DICT|INTERRES
    95   49   50 1    
    96   49  105 1    
    97   50   51 1    
    98   50   52 1    
    99   50  106 1    
   100   51  107 1    
   101   51  108 1    
   102   51  109 1    
   103   52   53 2    
   104   52   54 am   BACKBONE|DICT|INTERRES
   105   54   55 1    
   106   54  110 1    
   107   55   56 1    
   108   55   59 1    
   109   55  111 1    
   110   56   57 am   BACKBONE|DICT|INTERRES
   111   56   58 2    
   112   57  112 1    
   113   57  113 1    
   114   59   60 1    
   115   59  114 1    
   116   59  115 1    
   117   60   61 1    
   118   61  116 1    
   119   61  117 1    
@<TRIPOS>SUBSTRUCTURE
     1 UNK         1 GROUP             0       ****    0 ROOT    
