@<TRIPOS>MOLECULE
3R8
117   119    1
SMALL
USER_CHARGES


@<TRIPOS>ATOM
      1 CA         15.7733  -25.6532  -45.0115 C.3       0 UNK        -0.2013 
      2 C          16.0842  -24.6986  -43.8634 C.2       0 UNK         0.4866 
      3 O          15.5296  -23.6021  -43.8275 O.2       0 UNK        -0.5176 
      4 N          16.9563  -25.0464  -42.9081 N.am      1 UNK        -0.4884 
      5 CA         17.7234  -26.2967  -42.7961 C.3       1 UNK         0.0853 
      6 C6         17.2279  -27.1655  -41.6062 C.3       10 UNK        -0.0849 
      7 S7         15.6656  -28.0166  -42.0216 S.3       10 UNK        -0.2776 
      8 C8         16.1948  -29.7486  -42.2782 C.3       10 UNK         0.0316 
      9 C9         17.4443  -29.8701  -43.1436 C.ar      10 UNK        -0.0863 
     10 C10        18.6380  -30.3378  -42.5827 C.ar      10 UNK        -0.1009 
     11 C11        19.8047  -30.3999  -43.3488 C.ar      10 UNK        -0.0712 
     12 C12        19.7679  -29.9979  -44.6850 C.ar      10 UNK        -0.0894 
     13 C13        18.5888  -29.5212  -45.2562 C.ar      10 UNK        -0.0745 
     14 C14        17.4206  -29.4818  -44.4880 C.ar      10 UNK        -0.0972 
     15 C15        18.5937  -29.0132  -46.6888 C.3       10 UNK         0.0209 
     16 S16        18.9269  -27.2225  -46.7346 S.3       10 UNK        -0.2568 
     17 C17        20.6441  -27.0875  -47.3702 C.3       10 UNK        -0.0983 
     18 CA         21.7367  -26.6382  -46.3480 C.3       3 UNK         0.0876 
     19 N          21.1831  -25.7941  -45.2880 N.am      3 UNK        -0.4424 
     20 C          21.8678  -25.0675  -44.3974 C.2       2 UNK         0.4918 
     21 O          23.0888  -24.9131  -44.4352 O.2       2 UNK        -0.4875 
     22 CA         21.0549  -24.3771  -43.2807 C.3       2 UNK         0.0481 
     23 CB         21.0892  -22.8502  -43.4570 C.3       2 UNK        -0.1831 
     24 N          19.6543  -24.8139  -43.1977 N.am      2 UNK        -0.4498 
     25 C          19.2381  -26.0051  -42.7381 C.2       1 UNK         0.5027 
     26 O          20.0071  -26.8629  -42.3091 O.2       1 UNK        -0.4969 
     27 C          22.5440  -27.8308  -45.7882 C.2       3 UNK         0.5005 
     28 O          22.3706  -28.2126  -44.6291 O.2       3 UNK        -0.5279 
     29 N          23.4048  -28.4083  -46.6417 N.am      4 UNK        -0.4463 
     30 CA         24.2441  -29.5902  -46.4028 C.3       4 UNK         0.0283 
     31 CB         23.3938  -30.8777  -46.4914 C.3       4 UNK        -0.1875 
     32 C          25.0766  -29.4787  -45.1092 C.2       4 UNK         0.4949 
     33 O          25.9925  -28.6576  -45.0557 O.2       4 UNK        -0.5039 
     34 N          24.7465  -30.2937  -44.0983 N.am      5 UNK        -0.4663 
     35 CA         25.4119  -30.3297  -42.7945 C.3       5 UNK         0.0242 
     36 CB         25.1453  -31.6968  -42.1401 C.3       5 UNK        -0.1982 
     37 C          25.0050  -29.1866  -41.8434 C.2       5 UNK         0.5017 
     38 O          25.6102  -29.0861  -40.7766 O.2       5 UNK        -0.5012 
     39 N          24.0056  -28.3710  -42.2221 N.am      6 UNK        -0.4439 
     40 CA         23.4059  -27.2674  -41.4627 C.3       6 UNK         0.0297 
     41 CB         24.4248  -26.1396  -41.2004 C.3       6 UNK        -0.2006 
     42 C          22.7277  -27.7693  -40.1769 C.2       6 UNK         0.4892 
     43 O          23.3443  -27.7799  -39.1111 O.2       6 UNK        -0.5089 
     44 N          21.4764  -28.2250  -40.3225 N.am      7 UNK        -0.4243 
     45 CA         20.5620  -28.7746  -39.3076 C.3       7 UNK         0.0196 
     46 CB         20.2334  -27.7168  -38.2364 C.3       7 UNK        -0.2007 
     47 C          20.9861  -30.1092  -38.6585 C.2       7 UNK         0.5020 
     48 O          20.1306  -30.7903  -38.0954 O.2       7 UNK        -0.5147 
     49 N          22.2661  -30.4871  -38.7603 N.am      8 UNK        -0.4734 
     50 CA         22.8547  -31.7016  -38.1821 C.3       8 UNK         0.0238 
     51 CB         24.3793  -31.5113  -38.1066 C.3       8 UNK        -0.1912 
     52 C          22.4999  -33.0124  -38.9158 C.2       8 UNK         0.5038 
     53 O          22.9158  -34.0787  -38.4600 O.2       8 UNK        -0.5046 
     54 N          21.7691  -32.9179  -40.0335 N.am      9 UNK        -0.4200 
     55 CA         21.2793  -34.0371  -40.8532 C.3       9 UNK         0.0839 
     56 C          20.3749  -35.0193  -40.0588 C.2       9 UNK         0.5513 
     57 N          20.5101  -36.3168  -40.2959 N.am      9 UNK        -0.7519 
     58 O          19.5228  -34.6125  -39.2719 O.2       9 UNK        -0.4960 
     59 C59        20.5305  -33.5285  -42.1133 C.3       10 UNK        -0.0876 
     60 S60        21.5899  -32.5276  -43.2100 S.3       10 UNK        -0.2414 
     61 C61        21.1208  -30.8393  -42.7274 C.3       10 UNK         0.0169 
     62 H62        14.9408  -25.2766  -45.6054 H         1 UNK         0.0903 
     63 H63        16.6333  -25.7497  -45.6715 H         1 UNK         0.0903 
     64 H64        15.4926  -26.6396  -44.6457 H         1 UNK         0.0903 
     65 H65        17.1187  -24.3879  -42.1580 H         1 UNK         0.3096 
     66 H66        17.6267  -26.8851  -43.7074 H         1 UNK         0.1121 
     67 H67        17.0694  -26.5485  -40.7203 H         1 UNK         0.0849 
     68 H68        17.9597  -27.9155  -41.3066 H         1 UNK         0.0849 
     69 H69        16.3560  -30.2107  -41.3030 H         1 UNK         0.0865 
     70 H70        15.3795  -30.3033  -42.7446 H         1 UNK         0.0865 
     71 H71        18.6647  -30.6298  -41.5421 H         1 UNK         0.1346 
     72 H72        20.6685  -30.0255  -45.2767 H         1 UNK         0.1412 
     73 H73        16.5038  -29.1056  -44.9212 H         1 UNK         0.1426 
     74 H74        17.6219  -29.2005  -47.1479 H         1 UNK         0.0716 
     75 H75        19.3222  -29.5602  -47.2886 H         1 UNK         0.0716 
     76 H76        20.5995  -26.3370  -48.1608 H         1 UNK         0.0695 
     77 H77        20.9200  -28.0076  -47.8883 H         1 UNK         0.0695 
     78 H78        22.4579  -26.0182  -46.8854 H         1 UNK         0.0983 
     79 H79        20.1868  -25.8848  -45.1609 H         1 UNK         0.3095 
     80 H80        21.5409  -24.6174  -42.3330 H         1 UNK         0.0454 
     81 H81        22.1157  -22.4816  -43.4780 H         1 UNK         0.0851 
     82 H82        20.5840  -22.3432  -42.6347 H         1 UNK         0.0851 
     83 H83        20.6134  -22.5399  -44.3880 H         1 UNK         0.0851 
     84 H84        18.9567  -24.1702  -43.5442 H         1 UNK         0.2976 
     85 H85        23.5078  -27.9945  -47.5583 H         1 UNK         0.3116 
     86 H86        24.9649  -29.6225  -47.2214 H         1 UNK         0.0646 
     87 H87        22.6403  -30.9338  -45.7080 H         1 UNK         0.0847 
     88 H88        22.8766  -30.9411  -47.4487 H         1 UNK         0.0847 
     89 H89        24.0196  -31.7675  -46.4097 H         1 UNK         0.0847 
     90 H90        23.9670  -30.9233  -44.2256 H         1 UNK         0.3040 
     91 H91        26.4879  -30.2387  -42.9599 H         1 UNK         0.1015 
     92 H92        25.7690  -31.8301  -41.2557 H         1 UNK         0.0786 
     93 H93        25.3747  -32.5191  -42.8181 H         1 UNK         0.0786 
     94 H94        24.1075  -31.7996  -41.8229 H         1 UNK         0.0786 
     95 H95        23.5720  -28.5348  -43.1289 H         1 UNK         0.3172 
     96 H96        22.6294  -26.8527  -42.1042 H         1 UNK         0.0595 
     97 H97        25.2479  -26.4655  -40.5643 H         1 UNK         0.0839 
     98 H98        23.9457  -25.2963  -40.7019 H         1 UNK         0.0839 
     99 H99        24.8474  -25.7671  -42.1337 H         1 UNK         0.0839 
    100 H100       21.0480  -28.0784  -41.2345 H         1 UNK         0.2998 
    101 H101       19.6368  -28.9886  -39.8436 H         1 UNK         0.0822 
    102 H102       19.4686  -28.0814  -37.5493 H         1 UNK         0.0787 
    103 H103       19.8515  -26.8017  -38.6893 H         1 UNK         0.0787 
    104 H104       21.1077  -27.4574  -37.6387 H         1 UNK         0.0787 
    105 H105       22.9110  -29.8162  -39.1629 H         1 UNK         0.3055 
    106 H106       22.4759  -31.8071  -37.1629 H         1 UNK         0.1106 
    107 H107       24.6404  -30.6403  -37.5049 H         1 UNK         0.0828 
    108 H108       24.8651  -32.3744  -37.6495 H         1 UNK         0.0828 
    109 H109       24.8171  -31.3746  -39.0952 H         1 UNK         0.0828 
    110 H110       21.4618  -32.0000  -40.3084 H         1 UNK         0.2931 
    111 H111       22.1628  -34.5870  -41.1842 H         1 UNK         0.0412 
    112 H112       21.1990  -36.6587  -40.9483 H         1 UNK         0.3472 
    113 H113       19.9201  -36.9698  -39.8035 H         1 UNK         0.3472 
    114 H114       20.1716  -34.3737  -42.7039 H         1 UNK         0.0970 
    115 H115       19.6395  -32.9635  -41.8352 H         1 UNK         0.0970 
    116 H116       21.0781  -30.7614  -41.6428 H         1 UNK         0.0612 
    117 H117       21.9114  -30.1607  -43.0413 H         1 UNK         0.0612 
@<TRIPOS>BOND
     1    1    2 1    
     2    1   62 1    
     3    1   63 1    
     4    1   64 1    
     5    2    3 2    
     6    2    4 am   BACKBONE|DICT|INTERRES
     7    4    5 1    
     8    4   65 1    
     9    5    6 1    
    10    5   25 1    
    11    5   66 1    
    12    6    7 1    
    13    6   67 1    
    14    6   68 1    
    15    7    8 1    
    16    8    9 1    
    17    8   69 1    
    18    8   70 1    
    19    9   10 ar   
    20    9   14 ar   
    21   10   11 ar   
    22   10   71 1    
    23   11   12 ar   
    24   11   61 1    
    25   12   13 ar   
    26   12   72 1    
    27   13   14 ar   
    28   13   15 1    
    29   14   73 1    
    30   15   16 1    
    31   15   74 1    
    32   15   75 1    
    33   16   17 1    
    34   17   18 1    
    35   17   76 1    
    36   17   77 1    
    37   18   19 1    
    38   18   27 1    
    39   18   78 1    
    40   19   20 am   BACKBONE|DICT|INTERRES
    41   19   79 1    
    42   20   21 2    
    43   20   22 1    
    44   22   23 1    
    45   22   24 1    
    46   22   80 1    
    47   23   81 1    
    48   23   82 1    
    49   23   83 1    
    50   24   25 am   BACKBONE|DICT|INTERRES
    51   24   84 1    
    52   25   26 2    
    53   27   28 2    
    54   27   29 am   BACKBONE|DICT|INTERRES
    55   29   30 1    
    56   29   85 1    
    57   30   31 1    
    58   30   32 1    
    59   30   86 1    
    60   31   87 1    
    61   31   88 1    
    62   31   89 1    
    63   32   33 2    
    64   32   34 am   BACKBONE|DICT|INTERRES
    65   34   35 1    
    66   34   90 1    
    67   35   36 1    
    68   35   37 1    
    69   35   91 1    
    70   36   92 1    
    71   36   93 1    
    72   36   94 1    
    73   37   38 2    
    74   37   39 am   BACKBONE|DICT|INTERRES
    75   39   40 1    
    76   39   95 1    
    77   40   41 1    
    78   40   42 1    
    79   40   96 1    
    80   41   97 1    
    81   41   98 1    
    82   41   99 1    
    83   42   43 2    
    84   42   44 am   BACKBONE|DICT|INTERRES
    85   44   45 1    
    86   44  100 1    
    87   45   46 1    
    88   45   47 1    
    89   45  101 1    
    90   46  102 1    
    91   46  103 1    
    92   46  104 1    
    93   47   48 2    
    94   47   49 am   BACKBONE|DICT|INTERRES
    95   49   50 1    
    96   49  105 1    
    97   50   51 1    
    98   50   52 1    
    99   50  106 1    
   100   51  107 1    
   101   51  108 1    
   102   51  109 1    
   103   52   53 2    
   104   52   54 am   BACKBONE|DICT|INTERRES
   105   54   55 1    
   106   54  110 1    
   107   55   56 1    
   108   55   59 1    
   109   55  111 1    
   110   56   57 am   BACKBONE|DICT|INTERRES
   111   56   58 2    
   112   57  112 1    
   113   57  113 1    
   114   59   60 1    
   115   59  114 1    
   116   59  115 1    
   117   60   61 1    
   118   61  116 1    
   119   61  117 1    
@<TRIPOS>SUBSTRUCTURE
     1 UNK         1 GROUP             0       ****    0 ROOT    
