@<TRIPOS>MOLECULE
3R8
117   119    1
SMALL
USER_CHARGES


@<TRIPOS>ATOM
      1 CA         15.0360  -25.7797  -43.5255 C.3       0 UNK        -0.2013 
      2 C          16.0705  -25.2499  -44.5064 C.2       0 UNK         0.4866 
      3 O          16.1672  -24.0365  -44.6904 O.2       0 UNK        -0.5176 
      4 N          16.8242  -26.1482  -45.1548 N.am      1 UNK        -0.4884 
      5 CA         17.7970  -25.8204  -46.2061 C.3       1 UNK         0.0853 
      6 C6         18.2113  -27.0499  -47.0617 C.3       10 UNK        -0.0849 
      7 S7         16.7900  -28.0891  -47.5565 S.3       10 UNK        -0.2776 
      8 C8         17.4165  -29.7874  -47.3031 C.3       10 UNK         0.0316 
      9 C9         17.9815  -30.0472  -45.9081 C.ar      10 UNK        -0.0863 
     10 C10        19.2687  -30.5778  -45.7719 C.ar      10 UNK        -0.1009 
     11 C11        19.7951  -30.8543  -44.5075 C.ar      10 UNK        -0.0712 
     12 C12        19.0374  -30.5715  -43.3686 C.ar      10 UNK        -0.0894 
     13 C13        17.7555  -30.0317  -43.4876 C.ar      10 UNK        -0.0745 
     14 C14        17.2251  -29.7858  -44.7596 C.ar      10 UNK        -0.0972 
     15 C15        16.9406  -29.7214  -42.2429 C.3       10 UNK         0.0209 
     16 S16        17.1170  -27.9740  -41.7719 S.3       10 UNK        -0.2568 
     17 C17        18.4118  -27.9978  -40.4826 C.3       10 UNK        -0.0983 
     18 CA         19.8573  -27.7612  -40.9981 C.3       3 UNK         0.0876 
     19 N          19.9355  -26.7098  -42.0146 N.am      3 UNK        -0.4424 
     20 C          21.0278  -26.3857  -42.7208 C.2       2 UNK         0.4918 
     21 O          22.1385  -26.8928  -42.5436 O.2       2 UNK        -0.4875 
     22 CA         20.8131  -25.3659  -43.8504 C.3       2 UNK         0.0481 
     23 CB         22.0592  -25.2071  -44.7484 C.3       2 UNK        -0.1831 
     24 N          19.6453  -25.7899  -44.6236 N.am      2 UNK        -0.4498 
     25 C          19.0363  -25.1244  -45.6128 C.2       1 UNK         0.5027 
     26 O          19.3908  -24.0241  -46.0382 O.2       1 UNK        -0.4969 
     27 C          20.8046  -27.4498  -39.8232 C.2       3 UNK         0.5005 
     28 O          20.7074  -26.3674  -39.2411 O.2       3 UNK        -0.5279 
     29 N          21.7319  -28.3721  -39.5390 N.am      4 UNK        -0.4463 
     30 CA         22.8284  -28.3156  -38.5612 C.3       4 UNK         0.0283 
     31 CB         22.3174  -28.0498  -37.1318 C.3       4 UNK        -0.1875 
     32 C          23.9688  -27.3515  -38.9418 C.2       4 UNK         0.4949 
     33 O          25.1082  -27.6005  -38.5486 O.2       4 UNK        -0.5039 
     34 N          23.6657  -26.2915  -39.7028 N.am      5 UNK        -0.4663 
     35 CA         24.6273  -25.3217  -40.2280 C.3       5 UNK         0.0242 
     36 CB         23.8766  -24.1040  -40.7926 C.3       5 UNK        -0.1982 
     37 C          25.5570  -25.9379  -41.2851 C.2       5 UNK         0.5017 
     38 O          26.7741  -25.7814  -41.1797 O.2       5 UNK        -0.5012 
     39 N          24.9705  -26.6367  -42.2667 N.am      6 UNK        -0.4439 
     40 CA         25.7018  -27.4026  -43.2771 C.3       6 UNK         0.0297 
     41 CB         24.9444  -27.3712  -44.6147 C.3       6 UNK        -0.2006 
     42 C          25.9145  -28.8469  -42.8071 C.2       6 UNK         0.4892 
     43 O          27.0441  -29.3363  -42.8364 O.2       6 UNK        -0.5089 
     44 N          24.8260  -29.4930  -42.3755 N.am      7 UNK        -0.4243 
     45 CA         24.7713  -30.8667  -41.8864 C.3       7 UNK         0.0196 
     46 CB         24.9380  -31.8608  -43.0539 C.3       7 UNK        -0.2007 
     47 C          23.4190  -31.0692  -41.1986 C.2       7 UNK         0.5020 
     48 O          22.5086  -30.2581  -41.3871 O.2       7 UNK        -0.5147 
     49 N          23.2902  -32.1515  -40.4251 N.am      8 UNK        -0.4734 
     50 CA         22.0209  -32.5464  -39.8063 C.3       8 UNK         0.0238 
     51 CB         22.2972  -33.4797  -38.6165 C.3       8 UNK        -0.1912 
     52 C          21.0591  -33.2138  -40.8062 C.2       8 UNK         0.5038 
     53 O          19.8505  -33.0020  -40.7029 O.2       8 UNK        -0.5046 
     54 N          21.6155  -33.9994  -41.7423 N.am      9 UNK        -0.4200 
     55 CA         20.8990  -34.8595  -42.7029 C.3       9 UNK         0.0839 
     56 C          20.0339  -35.9627  -42.0119 C.2       9 UNK         0.5513 
     57 N          19.1502  -36.6353  -42.7380 N.am      9 UNK        -0.7519 
     58 O          20.1956  -36.2672  -40.8313 O.2       9 UNK        -0.4960 
     59 C59        20.1390  -34.0427  -43.7916 C.3       10 UNK        -0.0876 
     60 S60        21.2694  -33.1799  -44.9388 S.3       10 UNK        -0.2414 
     61 C61        21.1845  -31.4554  -44.3671 C.3       10 UNK         0.0169 
     62 H62        15.3153  -25.5162  -42.5058 H         1 UNK         0.0903 
     63 H63        14.0605  -25.3419  -43.7351 H         1 UNK         0.0903 
     64 H64        14.9361  -26.8633  -43.5851 H         1 UNK         0.0903 
     65 H65        16.6928  -27.1334  -44.9771 H         1 UNK         0.3096 
     66 H66        17.3165  -25.1043  -46.8774 H         1 UNK         0.1121 
     67 H67        18.9383  -27.6658  -46.5313 H         1 UNK         0.0849 
     68 H68        18.7190  -26.7170  -47.9688 H         1 UNK         0.0849 
     69 H69        16.6037  -30.4912  -47.4870 H         1 UNK         0.0865 
     70 H70        18.1696  -29.9896  -48.0664 H         1 UNK         0.0865 
     71 H71        19.8611  -30.7964  -46.6501 H         1 UNK         0.1346 
     72 H72        19.4432  -30.7815  -42.3882 H         1 UNK         0.1412 
     73 H73        16.2247  -29.3868  -44.8565 H         1 UNK         0.1426 
     74 H74        17.2265  -30.3738  -41.4164 H         1 UNK         0.0716 
     75 H75        15.8867  -29.9255  -42.4379 H         1 UNK         0.0716 
     76 H76        18.3576  -28.9372  -39.9298 H         1 UNK         0.0695 
     77 H77        18.1333  -27.2202  -39.7681 H         1 UNK         0.0695 
     78 H78        20.1957  -28.6801  -41.4801 H         1 UNK         0.0983 
     79 H79        19.0720  -26.2182  -42.1913 H         1 UNK         0.3095 
     80 H80        20.5913  -24.4050  -43.3829 H         1 UNK         0.0454 
     81 H81        22.2744  -26.1245  -45.2962 H         1 UNK         0.0851 
     82 H82        22.9411  -24.9581  -44.1574 H         1 UNK         0.0851 
     83 H83        21.9361  -24.4061  -45.4762 H         1 UNK         0.0851 
     84 H84        19.2624  -26.6878  -44.3583 H         1 UNK         0.2976 
     85 H85        21.8082  -29.1586  -40.1852 H         1 UNK         0.3116 
     86 H86        23.2643  -29.3159  -38.5656 H         1 UNK         0.0646 
     87 H87        21.9147  -27.0429  -37.0201 H         1 UNK         0.0847 
     88 H88        23.1264  -28.1525  -36.4076 H         1 UNK         0.0847 
     89 H89        21.5384  -28.7579  -36.8499 H         1 UNK         0.0847 
     90 H90        22.6899  -26.1512  -39.9357 H         1 UNK         0.3040 
     91 H91        25.2502  -24.9825  -39.3972 H         1 UNK         0.1015 
     92 H92        23.2079  -24.3787  -41.6086 H         1 UNK         0.0786 
     93 H93        24.5752  -23.3610  -41.1797 H         1 UNK         0.0786 
     94 H94        23.2797  -23.6157  -40.0221 H         1 UNK         0.0786 
     95 H95        23.9549  -26.7149  -42.2728 H         1 UNK         0.3172 
     96 H96        26.6832  -26.9534  -43.4442 H         1 UNK         0.0595 
     97 H97        23.9371  -27.7794  -44.5245 H         1 UNK         0.0839 
     98 H98        25.4665  -27.9587  -45.3711 H         1 UNK         0.0839 
     99 H99        24.8645  -26.3541  -44.9974 H         1 UNK         0.0839 
    100 H100       23.9306  -29.0179  -42.3536 H         1 UNK         0.2998 
    101 H101       25.5643  -31.0135  -41.1503 H         1 UNK         0.0822 
    102 H102       25.9070  -31.7497  -43.5403 H         1 UNK         0.0787 
    103 H103       24.8733  -32.8934  -42.7095 H         1 UNK         0.0787 
    104 H104       24.1677  -31.7214  -43.8132 H         1 UNK         0.0787 
    105 H105       24.0820  -32.7654  -40.2931 H         1 UNK         0.3055 
    106 H106       21.5226  -31.6534  -39.4209 H         1 UNK         0.1106 
    107 H107       21.3664  -33.7727  -38.1285 H         1 UNK         0.0828 
    108 H108       22.8029  -34.3952  -38.9259 H         1 UNK         0.0828 
    109 H109       22.9157  -32.9906  -37.8637 H         1 UNK         0.0828 
    110 H110       22.6175  -34.1096  -41.7299 H         1 UNK         0.2931 
    111 H111       21.6836  -35.4239  -43.2083 H         1 UNK         0.0412 
    112 H112       18.6104  -37.3629  -42.2949 H         1 UNK         0.3472 
    113 H113       19.0199  -36.4458  -43.7190 H         1 UNK         0.3472 
    114 H114       19.4371  -33.3456  -43.3347 H         1 UNK         0.0970 
    115 H115       19.5314  -34.6916  -44.4219 H         1 UNK         0.0970 
    116 H116       21.9002  -30.8534  -44.9285 H         1 UNK         0.0612 
    117 H117       21.5048  -31.4321  -43.3301 H         1 UNK         0.0612 
@<TRIPOS>BOND
     1    1    2 1    
     2    1   62 1    
     3    1   63 1    
     4    1   64 1    
     5    2    3 2    
     6    2    4 am   BACKBONE|DICT|INTERRES
     7    4    5 1    
     8    4   65 1    
     9    5    6 1    
    10    5   25 1    
    11    5   66 1    
    12    6    7 1    
    13    6   67 1    
    14    6   68 1    
    15    7    8 1    
    16    8    9 1    
    17    8   69 1    
    18    8   70 1    
    19    9   10 ar   
    20    9   14 ar   
    21   10   11 ar   
    22   10   71 1    
    23   11   12 ar   
    24   11   61 1    
    25   12   13 ar   
    26   12   72 1    
    27   13   14 ar   
    28   13   15 1    
    29   14   73 1    
    30   15   16 1    
    31   15   74 1    
    32   15   75 1    
    33   16   17 1    
    34   17   18 1    
    35   17   76 1    
    36   17   77 1    
    37   18   19 1    
    38   18   27 1    
    39   18   78 1    
    40   19   20 am   BACKBONE|DICT|INTERRES
    41   19   79 1    
    42   20   21 2    
    43   20   22 1    
    44   22   23 1    
    45   22   24 1    
    46   22   80 1    
    47   23   81 1    
    48   23   82 1    
    49   23   83 1    
    50   24   25 am   BACKBONE|DICT|INTERRES
    51   24   84 1    
    52   25   26 2    
    53   27   28 2    
    54   27   29 am   BACKBONE|DICT|INTERRES
    55   29   30 1    
    56   29   85 1    
    57   30   31 1    
    58   30   32 1    
    59   30   86 1    
    60   31   87 1    
    61   31   88 1    
    62   31   89 1    
    63   32   33 2    
    64   32   34 am   BACKBONE|DICT|INTERRES
    65   34   35 1    
    66   34   90 1    
    67   35   36 1    
    68   35   37 1    
    69   35   91 1    
    70   36   92 1    
    71   36   93 1    
    72   36   94 1    
    73   37   38 2    
    74   37   39 am   BACKBONE|DICT|INTERRES
    75   39   40 1    
    76   39   95 1    
    77   40   41 1    
    78   40   42 1    
    79   40   96 1    
    80   41   97 1    
    81   41   98 1    
    82   41   99 1    
    83   42   43 2    
    84   42   44 am   BACKBONE|DICT|INTERRES
    85   44   45 1    
    86   44  100 1    
    87   45   46 1    
    88   45   47 1    
    89   45  101 1    
    90   46  102 1    
    91   46  103 1    
    92   46  104 1    
    93   47   48 2    
    94   47   49 am   BACKBONE|DICT|INTERRES
    95   49   50 1    
    96   49  105 1    
    97   50   51 1    
    98   50   52 1    
    99   50  106 1    
   100   51  107 1    
   101   51  108 1    
   102   51  109 1    
   103   52   53 2    
   104   52   54 am   BACKBONE|DICT|INTERRES
   105   54   55 1    
   106   54  110 1    
   107   55   56 1    
   108   55   59 1    
   109   55  111 1    
   110   56   57 am   BACKBONE|DICT|INTERRES
   111   56   58 2    
   112   57  112 1    
   113   57  113 1    
   114   59   60 1    
   115   59  114 1    
   116   59  115 1    
   117   60   61 1    
   118   61  116 1    
   119   61  117 1    
@<TRIPOS>SUBSTRUCTURE
     1 UNK         1 GROUP             0       ****    0 ROOT    
