@<TRIPOS>MOLECULE
3R8
117   119    1
SMALL
USER_CHARGES


@<TRIPOS>ATOM
      1 CA         13.1732  -23.6474  -43.7886 C.3       0 UNK        -0.2013 
      2 C          13.7764  -24.8050  -44.5706 C.2       0 UNK         0.4866 
      3 O          13.2047  -25.2264  -45.5763 O.2       0 UNK        -0.5176 
      4 N          14.9267  -25.3173  -44.1192 N.am      1 UNK        -0.4884 
      5 CA         15.6756  -26.3983  -44.7696 C.3       1 UNK         0.0853 
      6 C6         15.0203  -27.7950  -44.5884 C.3       10 UNK        -0.0849 
      7 S7         15.5540  -28.9783  -45.8730 S.3       10 UNK        -0.2776 
      8 C8         16.1167  -30.4044  -44.8886 C.3       10 UNK         0.0316 
      9 C9         17.4325  -30.1521  -44.1612 C.ar      10 UNK        -0.0863 
     10 C10        17.4512  -30.0092  -42.7711 C.ar      10 UNK        -0.1009 
     11 C11        18.6614  -29.8636  -42.0875 C.ar      10 UNK        -0.0712 
     12 C12        19.8602  -29.8382  -42.8095 C.ar      10 UNK        -0.0894 
     13 C13        19.8601  -29.9875  -44.2012 C.ar      10 UNK        -0.0745 
     14 C14        18.6393  -30.1369  -44.8687 C.ar      10 UNK        -0.0972 
     15 C15        21.1655  -30.1078  -44.9852 C.3       10 UNK         0.0209 
     16 S16        22.4974  -28.9912  -44.4267 S.3       10 UNK        -0.2568 
     17 C17        22.1178  -27.4433  -45.3228 C.3       10 UNK        -0.0983 
     18 CA         21.8045  -26.2341  -44.4057 C.3       3 UNK         0.0876 
     19 N          20.6278  -26.5011  -43.5865 N.am      3 UNK        -0.4424 
     20 C          19.8373  -25.5765  -43.0350 C.2       2 UNK         0.4918 
     21 O          20.0019  -24.3594  -43.1431 O.2       2 UNK        -0.4875 
     22 CA         18.6258  -26.1275  -42.2628 C.3       2 UNK         0.0481 
     23 CB         18.4364  -25.3888  -40.9269 C.3       2 UNK        -0.1831 
     24 N          17.3561  -26.1169  -43.0038 N.am      2 UNK        -0.4498 
     25 C          17.1421  -26.3896  -44.3057 C.2       1 UNK         0.5027 
     26 O          18.0223  -26.6152  -45.1356 O.2       1 UNK        -0.4969 
     27 C          23.0165  -25.8228  -43.5444 C.2       3 UNK         0.5005 
     28 O          23.0529  -26.1014  -42.3420 O.2       3 UNK        -0.5279 
     29 N          24.0195  -25.2140  -44.1943 N.am      4 UNK        -0.4463 
     30 CA         25.2723  -24.7495  -43.5840 C.3       4 UNK         0.0283 
     31 CB         26.0831  -23.9681  -44.6308 C.3       4 UNK        -0.1875 
     32 C          26.1379  -25.8609  -42.9580 C.2       4 UNK         0.4949 
     33 O          26.9718  -25.5583  -42.1045 O.2       4 UNK        -0.5039 
     34 N          25.9231  -27.1191  -43.3709 N.am      5 UNK        -0.4663 
     35 CA         26.5556  -28.3039  -42.7844 C.3       5 UNK         0.0242 
     36 CB         26.3626  -29.5034  -43.7252 C.3       5 UNK        -0.1982 
     37 C          26.0396  -28.6351  -41.3712 C.2       5 UNK         0.5017 
     38 O          26.7461  -29.3214  -40.6327 O.2       5 UNK        -0.5012 
     39 N          24.8342  -28.1541  -41.0226 N.am      6 UNK        -0.4439 
     40 CA         24.1472  -28.2013  -39.7220 C.3       6 UNK         0.0297 
     41 CB         24.9375  -27.4132  -38.6600 C.3       6 UNK        -0.2006 
     42 C          23.7671  -29.5965  -39.1874 C.2       6 UNK         0.4892 
     43 O          22.6981  -29.7292  -38.5942 O.2       6 UNK        -0.5089 
     44 N          24.6327  -30.5972  -39.3764 N.am      7 UNK        -0.4243 
     45 CA         24.4613  -31.9726  -38.8995 C.3       7 UNK         0.0196 
     46 CB         25.8201  -32.4799  -38.3872 C.3       7 UNK        -0.2007 
     47 C          23.9122  -32.9207  -39.9799 C.2       7 UNK         0.5020 
     48 O          23.5909  -34.0658  -39.6640 O.2       7 UNK        -0.5147 
     49 N          23.8215  -32.4537  -41.2321 N.am      8 UNK        -0.4734 
     50 CA         23.4472  -33.2492  -42.4088 C.3       8 UNK         0.0238 
     51 CB         24.1277  -32.6372  -43.6468 C.3       8 UNK        -0.1912 
     52 C          21.9257  -33.4106  -42.6163 C.2       8 UNK         0.5038 
     53 O          21.5115  -33.7963  -43.7108 O.2       8 UNK        -0.5046 
     54 N          21.1231  -33.0981  -41.5917 N.am      9 UNK        -0.4200 
     55 CA         19.6537  -33.1581  -41.5968 C.3       9 UNK         0.0839 
     56 C          19.0930  -34.5814  -41.8622 C.2       9 UNK         0.5513 
     57 N          17.9827  -34.6863  -42.5797 N.am      9 UNK        -0.7519 
     58 O          19.6245  -35.5809  -41.3825 O.2       9 UNK        -0.4960 
     59 C59        19.0427  -32.5739  -40.2924 C.3       10 UNK        -0.0876 
     60 S60        19.7692  -30.9783  -39.7790 S.3       10 UNK        -0.2414 
     61 C61        18.6673  -29.7602  -40.5666 C.3       10 UNK         0.0169 
     62 H62        12.1748  -23.9107  -43.4403 H         1 UNK         0.0903 
     63 H63        13.7752  -23.3817  -42.9199 H         1 UNK         0.0903 
     64 H64        13.0904  -22.7672  -44.4256 H         1 UNK         0.0903 
     65 H65        15.3829  -24.8771  -43.3327 H         1 UNK         0.3096 
     66 H66        15.6931  -26.1647  -45.8373 H         1 UNK         0.1121 
     67 H67        15.2083  -28.1938  -43.5901 H         1 UNK         0.0849 
     68 H68        13.9355  -27.7178  -44.6713 H         1 UNK         0.0849 
     69 H69        15.3312  -30.6900  -44.1870 H         1 UNK         0.0865 
     70 H70        16.2426  -31.2577  -45.5566 H         1 UNK         0.0865 
     71 H71        16.5231  -30.0393  -42.2169 H         1 UNK         0.1346 
     72 H72        20.7972  -29.7562  -42.2758 H         1 UNK         0.1412 
     73 H73        18.6255  -30.2752  -45.9413 H         1 UNK         0.1426 
     74 H74        20.9949  -29.9568  -46.0522 H         1 UNK         0.0716 
     75 H75        21.5183  -31.1342  -44.8812 H         1 UNK         0.0716 
     76 H76        22.9588  -27.2186  -45.9809 H         1 UNK         0.0695 
     77 H77        21.2704  -27.6122  -45.9893 H         1 UNK         0.0695 
     78 H78        21.5662  -25.3838  -45.0491 H         1 UNK         0.0983 
     79 H79        20.4031  -27.4776  -43.4606 H         1 UNK         0.3095 
     80 H80        18.8357  -27.1678  -42.0247 H         1 UNK         0.0454 
     81 H81        19.3642  -25.3769  -40.3531 H         1 UNK         0.0851 
     82 H82        18.1351  -24.3516  -41.0788 H         1 UNK         0.0851 
     83 H83        17.6820  -25.8720  -40.3060 H         1 UNK         0.0851 
     84 H84        16.5396  -25.9920  -42.4257 H         1 UNK         0.2976 
     85 H85        23.9172  -25.0392  -45.1843 H         1 UNK         0.3116 
     86 H86        25.0058  -24.0625  -42.7780 H         1 UNK         0.0646 
     87 H87        27.0069  -23.5798  -44.1993 H         1 UNK         0.0847 
     88 H88        25.5243  -23.1130  -45.0117 H         1 UNK         0.0847 
     89 H89        26.3601  -24.5958  -45.4787 H         1 UNK         0.0847 
     90 H90        25.2247  -27.2775  -44.0829 H         1 UNK         0.3040 
     91 H91        27.6271  -28.1091  -42.6967 H         1 UNK         0.1015 
     92 H92        26.7948  -29.3116  -44.7075 H         1 UNK         0.0786 
     93 H93        25.3090  -29.7426  -43.8634 H         1 UNK         0.0786 
     94 H94        26.8497  -30.3949  -43.3274 H         1 UNK         0.0786 
     95 H95        24.3423  -27.6005  -41.7182 H         1 UNK         0.3172 
     96 H96        23.2064  -27.6720  -39.8830 H         1 UNK         0.0595 
     97 H97        25.1216  -26.3887  -38.9839 H         1 UNK         0.0839 
     98 H98        25.9015  -27.8749  -38.4438 H         1 UNK         0.0839 
     99 H99        24.3849  -27.3618  -37.7209 H         1 UNK         0.0839 
    100 H100       25.5114  -30.3672  -39.8375 H         1 UNK         0.2998 
    101 H101       23.7561  -31.9906  -38.0657 H         1 UNK         0.0822 
    102 H102       26.1992  -31.8502  -37.5820 H         1 UNK         0.0787 
    103 H103       25.7383  -33.4935  -37.9921 H         1 UNK         0.0787 
    104 H104       26.5691  -32.4970  -39.1801 H         1 UNK         0.0787 
    105 H105       24.0660  -31.4879  -41.3947 H         1 UNK         0.3055 
    106 H106       23.8430  -34.2596  -42.2819 H         1 UNK         0.1106 
    107 H107       23.9494  -33.2415  -44.5373 H         1 UNK         0.0828 
    108 H108       23.7543  -31.6355  -43.8543 H         1 UNK         0.0828 
    109 H109       25.2081  -32.5741  -43.5168 H         1 UNK         0.0828 
    110 H110       21.5480  -32.8007  -40.7267 H         1 UNK         0.2931 
    111 H111       19.3322  -32.5323  -42.4295 H         1 UNK         0.0412 
    112 H112       17.5370  -33.8704  -42.9698 H         1 UNK         0.3472 
    113 H113       17.5916  -35.6002  -42.7486 H         1 UNK         0.3472 
    114 H114       17.9628  -32.4550  -40.3990 H         1 UNK         0.0970 
    115 H115       19.1865  -33.2711  -39.4646 H         1 UNK         0.0970 
    116 H116       17.6620  -29.8830  -40.1609 H         1 UNK         0.0612 
    117 H117       18.9967  -28.7617  -40.2783 H         1 UNK         0.0612 
@<TRIPOS>BOND
     1    1    2 1    
     2    1   62 1    
     3    1   63 1    
     4    1   64 1    
     5    2    3 2    
     6    2    4 am   BACKBONE|DICT|INTERRES
     7    4    5 1    
     8    4   65 1    
     9    5    6 1    
    10    5   25 1    
    11    5   66 1    
    12    6    7 1    
    13    6   67 1    
    14    6   68 1    
    15    7    8 1    
    16    8    9 1    
    17    8   69 1    
    18    8   70 1    
    19    9   10 ar   
    20    9   14 ar   
    21   10   11 ar   
    22   10   71 1    
    23   11   12 ar   
    24   11   61 1    
    25   12   13 ar   
    26   12   72 1    
    27   13   14 ar   
    28   13   15 1    
    29   14   73 1    
    30   15   16 1    
    31   15   74 1    
    32   15   75 1    
    33   16   17 1    
    34   17   18 1    
    35   17   76 1    
    36   17   77 1    
    37   18   19 1    
    38   18   27 1    
    39   18   78 1    
    40   19   20 am   BACKBONE|DICT|INTERRES
    41   19   79 1    
    42   20   21 2    
    43   20   22 1    
    44   22   23 1    
    45   22   24 1    
    46   22   80 1    
    47   23   81 1    
    48   23   82 1    
    49   23   83 1    
    50   24   25 am   BACKBONE|DICT|INTERRES
    51   24   84 1    
    52   25   26 2    
    53   27   28 2    
    54   27   29 am   BACKBONE|DICT|INTERRES
    55   29   30 1    
    56   29   85 1    
    57   30   31 1    
    58   30   32 1    
    59   30   86 1    
    60   31   87 1    
    61   31   88 1    
    62   31   89 1    
    63   32   33 2    
    64   32   34 am   BACKBONE|DICT|INTERRES
    65   34   35 1    
    66   34   90 1    
    67   35   36 1    
    68   35   37 1    
    69   35   91 1    
    70   36   92 1    
    71   36   93 1    
    72   36   94 1    
    73   37   38 2    
    74   37   39 am   BACKBONE|DICT|INTERRES
    75   39   40 1    
    76   39   95 1    
    77   40   41 1    
    78   40   42 1    
    79   40   96 1    
    80   41   97 1    
    81   41   98 1    
    82   41   99 1    
    83   42   43 2    
    84   42   44 am   BACKBONE|DICT|INTERRES
    85   44   45 1    
    86   44  100 1    
    87   45   46 1    
    88   45   47 1    
    89   45  101 1    
    90   46  102 1    
    91   46  103 1    
    92   46  104 1    
    93   47   48 2    
    94   47   49 am   BACKBONE|DICT|INTERRES
    95   49   50 1    
    96   49  105 1    
    97   50   51 1    
    98   50   52 1    
    99   50  106 1    
   100   51  107 1    
   101   51  108 1    
   102   51  109 1    
   103   52   53 2    
   104   52   54 am   BACKBONE|DICT|INTERRES
   105   54   55 1    
   106   54  110 1    
   107   55   56 1    
   108   55   59 1    
   109   55  111 1    
   110   56   57 am   BACKBONE|DICT|INTERRES
   111   56   58 2    
   112   57  112 1    
   113   57  113 1    
   114   59   60 1    
   115   59  114 1    
   116   59  115 1    
   117   60   61 1    
   118   61  116 1    
   119   61  117 1    
@<TRIPOS>SUBSTRUCTURE
     1 UNK         1 GROUP             0       ****    0 ROOT    
