@<TRIPOS>MOLECULE
3R8
117   119    1
SMALL
USER_CHARGES


@<TRIPOS>ATOM
      1 CA         18.9711  -23.4997  -40.4602 C.3       0 UNK        -0.2013 
      2 C          18.6926  -23.5851  -41.9536 C.2       0 UNK         0.4866 
      3 O          18.7464  -22.5680  -42.6461 O.2       0 UNK        -0.5176 
      4 N          18.3834  -24.7893  -42.4506 N.am      1 UNK        -0.4884 
      5 CA         18.1176  -25.0800  -43.8649 C.3       1 UNK         0.0853 
      6 C6         17.5350  -26.5026  -44.0619 C.3       10 UNK        -0.0849 
      7 S7         16.0853  -26.8542  -43.0077 S.3       10 UNK        -0.2776 
      8 C8         15.4291  -28.3750  -43.7737 C.3       10 UNK         0.0316 
      9 C9         16.5065  -29.4358  -43.9547 C.ar      10 UNK        -0.0863 
     10 C10        17.0569  -30.0812  -42.8430 C.ar      10 UNK        -0.1009 
     11 C11        18.0901  -31.0097  -43.0023 C.ar      10 UNK        -0.0712 
     12 C12        18.5646  -31.2970  -44.2858 C.ar      10 UNK        -0.0894 
     13 C13        18.0080  -30.6728  -45.4061 C.ar      10 UNK        -0.0745 
     14 C14        16.9757  -29.7468  -45.2346 C.ar      10 UNK        -0.0972 
     15 C15        18.5348  -30.9843  -46.8005 C.3       10 UNK         0.0209 
     16 S16        19.4299  -29.5744  -47.5293 S.3       10 UNK        -0.2568 
     17 C17        20.7718  -29.3460  -46.3158 C.3       10 UNK        -0.0983 
     18 CA         21.6503  -28.1018  -46.5978 C.3       3 UNK         0.0876 
     19 N          20.8346  -26.8876  -46.7132 N.am      3 UNK        -0.4424 
     20 C          21.2436  -25.7017  -47.1811 C.2       2 UNK         0.4918 
     21 O          22.3545  -25.5090  -47.6749 O.2       2 UNK        -0.4875 
     22 CA         20.2639  -24.5176  -47.0404 C.3       2 UNK         0.0481 
     23 CB         19.6157  -24.2022  -48.3980 C.3       2 UNK        -0.1831 
     24 N          19.2059  -24.6909  -46.0315 N.am      2 UNK        -0.4498 
     25 C          19.3920  -24.9236  -44.7224 C.2       1 UNK         0.5027 
     26 O          20.5029  -25.0901  -44.2087 O.2       1 UNK        -0.4969 
     27 C          22.7457  -28.0001  -45.5088 C.2       3 UNK         0.5005 
     28 O          23.5982  -28.8868  -45.4519 O.2       3 UNK        -0.5279 
     29 N          22.6846  -26.9611  -44.6573 N.am      4 UNK        -0.4463 
     30 CA         23.4573  -26.7445  -43.4320 C.3       4 UNK         0.0283 
     31 CB         24.9823  -26.7732  -43.6740 C.3       4 UNK        -0.1875 
     32 C          22.9924  -27.7238  -42.3468 C.2       4 UNK         0.4949 
     33 O          23.7396  -28.6165  -41.9480 O.2       4 UNK        -0.5039 
     34 N          21.7485  -27.5319  -41.8845 N.am      5 UNK        -0.4663 
     35 CA         21.0487  -28.3665  -40.8933 C.3       5 UNK         0.0242 
     36 CB         19.5937  -27.8845  -40.7736 C.3       5 UNK        -0.1982 
     37 C          21.7106  -28.4636  -39.5014 C.2       5 UNK         0.5017 
     38 O          21.2781  -29.2799  -38.6887 O.2       5 UNK        -0.5012 
     39 N          22.7427  -27.6490  -39.2452 N.am      6 UNK        -0.4439 
     40 CA         23.6375  -27.7784  -38.0937 C.3       6 UNK         0.0297 
     41 CB         24.4161  -26.4654  -37.9115 C.3       6 UNK        -0.2006 
     42 C          24.6132  -28.9668  -38.2239 C.2       6 UNK         0.4892 
     43 O          25.0645  -29.4777  -37.1981 O.2       6 UNK        -0.5089 
     44 N          24.9303  -29.3718  -39.4625 N.am      7 UNK        -0.4243 
     45 CA         25.8256  -30.4832  -39.7892 C.3       7 UNK         0.0196 
     46 CB         26.9273  -29.9815  -40.7381 C.3       7 UNK        -0.2007 
     47 C          25.0559  -31.6479  -40.4294 C.2       7 UNK         0.5020 
     48 O          25.3210  -32.8026  -40.0920 O.2       7 UNK        -0.5147 
     49 N          24.1198  -31.3377  -41.3373 N.am      8 UNK        -0.4734 
     50 CA         23.2184  -32.3037  -41.9702 C.3       8 UNK         0.0238 
     51 CB         22.5420  -31.6398  -43.1833 C.3       8 UNK        -0.1912 
     52 C          22.1699  -32.8412  -40.9792 C.2       8 UNK         0.5038 
     53 O          21.8852  -32.1900  -39.9729 O.2       8 UNK        -0.5046 
     54 N          21.6006  -34.0105  -41.2995 N.am      9 UNK        -0.4200 
     55 CA         20.6116  -34.7463  -40.4861 C.3       9 UNK         0.0839 
     56 C          21.1795  -35.3566  -39.1667 C.2       9 UNK         0.5513 
     57 N          22.4902  -35.3925  -38.9564 N.am      9 UNK        -0.7519 
     58 O          20.4217  -35.8431  -38.3309 O.2       9 UNK        -0.4960 
     59 C59        19.2840  -33.9641  -40.2482 C.3       10 UNK        -0.0876 
     60 S60        18.4427  -33.4771  -41.7927 S.3       10 UNK        -0.2414 
     61 C61        18.7176  -31.6782  -41.7891 C.3       10 UNK         0.0169 
     62 H62        18.7803  -24.4453  -39.9535 H         1 UNK         0.0903 
     63 H63        20.0116  -23.2254  -40.2887 H         1 UNK         0.0903 
     64 H64        18.3384  -22.7393  -40.0032 H         1 UNK         0.0903 
     65 H65        18.3181  -25.5830  -41.8313 H         1 UNK         0.3096 
     66 H66        17.3834  -24.3507  -44.2150 H         1 UNK         0.1121 
     67 H67        17.2376  -26.6477  -45.1024 H         1 UNK         0.0849 
     68 H68        18.2940  -27.2600  -43.8559 H         1 UNK         0.0849 
     69 H69        14.6286  -28.7731  -43.1485 H         1 UNK         0.0865 
     70 H70        14.9704  -28.1212  -44.7307 H         1 UNK         0.0865 
     71 H71        16.6966  -29.8374  -41.8528 H         1 UNK         0.1346 
     72 H72        19.3692  -32.0088  -44.4087 H         1 UNK         0.1412 
     73 H73        16.5580  -29.2509  -46.1004 H         1 UNK         0.1426 
     74 H74        17.6989  -31.2472  -47.4502 H         1 UNK         0.0716 
     75 H75        19.1941  -31.8536  -46.7824 H         1 UNK         0.0716 
     76 H76        21.3781  -30.2542  -46.3131 H         1 UNK         0.0695 
     77 H77        20.3322  -29.2670  -45.3197 H         1 UNK         0.0695 
     78 H78        22.1627  -28.2502  -47.5507 H         1 UNK         0.0983 
     79 H79        19.8894  -26.9626  -46.3704 H         1 UNK         0.3095 
     80 H80        20.8556  -23.6514  -46.7379 H         1 UNK         0.0454 
     81 H81        18.9816  -25.0201  -48.7425 H         1 UNK         0.0851 
     82 H82        20.3739  -24.0342  -49.1644 H         1 UNK         0.0851 
     83 H83        19.0060  -23.2999  -48.3490 H         1 UNK         0.0851 
     84 H84        18.2592  -24.5895  -46.3698 H         1 UNK         0.2976 
     85 H85        21.9190  -26.3040  -44.7813 H         1 UNK         0.3116 
     86 H86        23.2053  -25.7407  -43.0861 H         1 UNK         0.0646 
     87 H87        25.3429  -27.7665  -43.9418 H         1 UNK         0.0847 
     88 H88        25.5195  -26.4744  -42.7733 H         1 UNK         0.0847 
     89 H89        25.2711  -26.0856  -44.4686 H         1 UNK         0.0847 
     90 H90        21.2176  -26.7660  -42.2770 H         1 UNK         0.3040 
     91 H91        21.0313  -29.3851  -41.2828 H         1 UNK         0.1015 
     92 H92        19.0773  -27.9420  -41.7310 H         1 UNK         0.0786 
     93 H93        19.5399  -26.8574  -40.4129 H         1 UNK         0.0786 
     94 H94        19.0307  -28.5049  -40.0747 H         1 UNK         0.0786 
     95 H95        23.0093  -26.9907  -39.9620 H         1 UNK         0.3172 
     96 H96        23.0315  -27.9417  -37.1999 H         1 UNK         0.0595 
     97 H97        25.0713  -26.5195  -37.0408 H         1 UNK         0.0839 
     98 H98        23.7430  -25.6221  -37.7556 H         1 UNK         0.0839 
     99 H99        25.0427  -26.2419  -38.7759 H         1 UNK         0.0839 
    100 H100       24.4789  -28.9225  -40.2542 H         1 UNK         0.2998 
    101 H101       26.3054  -30.8643  -38.8851 H         1 UNK         0.0822 
    102 H102       27.6078  -30.7900  -41.0088 H         1 UNK         0.0787 
    103 H103       26.5126  -29.5781  -41.6632 H         1 UNK         0.0787 
    104 H104       27.5237  -29.1981  -40.2703 H         1 UNK         0.0787 
    105 H105       23.9676  -30.3585  -41.5698 H         1 UNK         0.3055 
    106 H106       23.8192  -33.1453  -42.3224 H         1 UNK         0.1106 
    107 H107       21.8837  -32.3379  -43.7016 H         1 UNK         0.0828 
    108 H108       21.9405  -30.7785  -42.8956 H         1 UNK         0.0828 
    109 H109       23.2806  -31.2957  -43.9079 H         1 UNK         0.0828 
    110 H110       21.8894  -34.4773  -42.1470 H         1 UNK         0.2931 
    111 H111       20.3555  -35.6177  -41.0898 H         1 UNK         0.0412 
    112 H112       23.1300  -34.9914  -39.6238 H         1 UNK         0.3472 
    113 H113       22.8413  -35.8020  -38.1049 H         1 UNK         0.3472 
    114 H114       18.5767  -34.5836  -39.6941 H         1 UNK         0.0970 
    115 H115       19.4559  -33.0883  -39.6208 H         1 UNK         0.0970 
    116 H116       19.7863  -31.4714  -41.7875 H         1 UNK         0.0612 
    117 H117       18.3182  -31.2566  -40.8654 H         1 UNK         0.0612 
@<TRIPOS>BOND
     1    1    2 1    
     2    1   62 1    
     3    1   63 1    
     4    1   64 1    
     5    2    3 2    
     6    2    4 am   BACKBONE|DICT|INTERRES
     7    4    5 1    
     8    4   65 1    
     9    5    6 1    
    10    5   25 1    
    11    5   66 1    
    12    6    7 1    
    13    6   67 1    
    14    6   68 1    
    15    7    8 1    
    16    8    9 1    
    17    8   69 1    
    18    8   70 1    
    19    9   10 ar   
    20    9   14 ar   
    21   10   11 ar   
    22   10   71 1    
    23   11   12 ar   
    24   11   61 1    
    25   12   13 ar   
    26   12   72 1    
    27   13   14 ar   
    28   13   15 1    
    29   14   73 1    
    30   15   16 1    
    31   15   74 1    
    32   15   75 1    
    33   16   17 1    
    34   17   18 1    
    35   17   76 1    
    36   17   77 1    
    37   18   19 1    
    38   18   27 1    
    39   18   78 1    
    40   19   20 am   BACKBONE|DICT|INTERRES
    41   19   79 1    
    42   20   21 2    
    43   20   22 1    
    44   22   23 1    
    45   22   24 1    
    46   22   80 1    
    47   23   81 1    
    48   23   82 1    
    49   23   83 1    
    50   24   25 am   BACKBONE|DICT|INTERRES
    51   24   84 1    
    52   25   26 2    
    53   27   28 2    
    54   27   29 am   BACKBONE|DICT|INTERRES
    55   29   30 1    
    56   29   85 1    
    57   30   31 1    
    58   30   32 1    
    59   30   86 1    
    60   31   87 1    
    61   31   88 1    
    62   31   89 1    
    63   32   33 2    
    64   32   34 am   BACKBONE|DICT|INTERRES
    65   34   35 1    
    66   34   90 1    
    67   35   36 1    
    68   35   37 1    
    69   35   91 1    
    70   36   92 1    
    71   36   93 1    
    72   36   94 1    
    73   37   38 2    
    74   37   39 am   BACKBONE|DICT|INTERRES
    75   39   40 1    
    76   39   95 1    
    77   40   41 1    
    78   40   42 1    
    79   40   96 1    
    80   41   97 1    
    81   41   98 1    
    82   41   99 1    
    83   42   43 2    
    84   42   44 am   BACKBONE|DICT|INTERRES
    85   44   45 1    
    86   44  100 1    
    87   45   46 1    
    88   45   47 1    
    89   45  101 1    
    90   46  102 1    
    91   46  103 1    
    92   46  104 1    
    93   47   48 2    
    94   47   49 am   BACKBONE|DICT|INTERRES
    95   49   50 1    
    96   49  105 1    
    97   50   51 1    
    98   50   52 1    
    99   50  106 1    
   100   51  107 1    
   101   51  108 1    
   102   51  109 1    
   103   52   53 2    
   104   52   54 am   BACKBONE|DICT|INTERRES
   105   54   55 1    
   106   54  110 1    
   107   55   56 1    
   108   55   59 1    
   109   55  111 1    
   110   56   57 am   BACKBONE|DICT|INTERRES
   111   56   58 2    
   112   57  112 1    
   113   57  113 1    
   114   59   60 1    
   115   59  114 1    
   116   59  115 1    
   117   60   61 1    
   118   61  116 1    
   119   61  117 1    
@<TRIPOS>SUBSTRUCTURE
     1 UNK         1 GROUP             0       ****    0 ROOT    
