@<TRIPOS>MOLECULE
3R8
117   119    1
SMALL
USER_CHARGES


@<TRIPOS>ATOM
      1 CA         18.3222  -28.4789  -41.7487 C.3       0 UNK        -0.2013 
      2 C          17.6123  -27.1900  -42.1191 C.2       0 UNK         0.4866 
      3 O          17.6229  -26.2343  -41.3437 O.2       0 UNK        -0.5176 
      4 N          16.9917  -27.1612  -43.3051 N.am      1 UNK        -0.4884 
      5 CA         16.2093  -26.0245  -43.8140 C.3       1 UNK         0.0853 
      6 C6         15.3099  -26.4328  -45.0062 C.3       10 UNK        -0.0849 
      7 S7         14.1920  -27.8119  -44.5771 S.3       10 UNK        -0.2776 
      8 C8         14.6521  -29.0845  -45.7984 C.3       10 UNK         0.0316 
      9 C9         16.0790  -29.5957  -45.6304 C.ar      10 UNK        -0.0863 
     10 C10        16.4330  -30.3598  -44.5139 C.ar      10 UNK        -0.1009 
     11 C11        17.7210  -30.8931  -44.3874 C.ar      10 UNK        -0.0712 
     12 C12        18.6594  -30.6490  -45.3986 C.ar      10 UNK        -0.0894 
     13 C13        18.3206  -29.8888  -46.5221 C.ar      10 UNK        -0.0745 
     14 C14        17.0289  -29.3635  -46.6290 C.ar      10 UNK        -0.0972 
     15 C15        19.3227  -29.7036  -47.6567 C.3       10 UNK         0.0209 
     16 S16        19.6064  -27.9487  -48.0549 S.3       10 UNK        -0.2568 
     17 C17        21.3658  -27.6904  -47.6101 C.3       10 UNK        -0.0983 
     18 CA         21.6063  -27.0428  -46.2146 C.3       3 UNK         0.0876 
     19 N          20.6033  -26.0122  -45.9332 N.am      3 UNK        -0.4424 
     20 C          20.6992  -24.9772  -45.0910 C.2       2 UNK         0.4918 
     21 O          21.7051  -24.7169  -44.4313 O.2       2 UNK        -0.4875 
     22 CA         19.4158  -24.1649  -44.8991 C.3       2 UNK         0.0481 
     23 CB         19.0993  -23.3239  -46.1522 C.3       2 UNK        -0.1831 
     24 N          18.3407  -25.1038  -44.5813 N.am      2 UNK        -0.4498 
     25 C          17.0945  -24.8170  -44.1899 C.2       1 UNK         0.5027 
     26 O          16.6397  -23.6755  -44.1048 O.2       1 UNK        -0.4969 
     27 C          21.7309  -28.0650  -45.0578 C.2       3 UNK         0.5005 
     28 O          21.6692  -29.2735  -45.2812 O.2       3 UNK        -0.5279 
     29 N          21.9145  -27.5571  -43.8305 N.am      4 UNK        -0.4463 
     30 CA         22.0052  -28.3301  -42.5874 C.3       4 UNK         0.0283 
     31 CB         21.8589  -27.3719  -41.3941 C.3       4 UNK        -0.1875 
     32 C          23.2883  -29.1676  -42.4449 C.2       4 UNK         0.4949 
     33 O          23.3276  -30.0336  -41.5708 O.2       4 UNK        -0.5039 
     34 N          24.3064  -28.8814  -43.2731 N.am      5 UNK        -0.4663 
     35 CA         25.5986  -29.5737  -43.3788 C.3       5 UNK         0.0242 
     36 CB         25.4039  -30.9771  -43.9901 C.3       5 UNK        -0.1982 
     37 C          26.3746  -29.5930  -42.0484 C.2       5 UNK         0.5017 
     38 O          26.7670  -30.6597  -41.5745 O.2       5 UNK        -0.5012 
     39 N          26.5511  -28.3964  -41.4667 N.am      6 UNK        -0.4439 
     40 CA         27.1708  -28.1310  -40.1605 C.3       6 UNK         0.0297 
     41 CB         28.6664  -28.5169  -40.1589 C.3       6 UNK        -0.2006 
     42 C          26.3782  -28.7593  -38.9962 C.2       6 UNK         0.4892 
     43 O          26.9691  -29.3523  -38.0919 O.2       6 UNK        -0.5089 
     44 N          25.0470  -28.5987  -39.0549 N.am      7 UNK        -0.4243 
     45 CA         24.0440  -29.0887  -38.1018 C.3       7 UNK         0.0196 
     46 CB         24.2027  -28.4029  -36.7275 C.3       7 UNK        -0.2007 
     47 C          23.9919  -30.6267  -38.0100 C.2       7 UNK         0.5020 
     48 O          23.8148  -31.1745  -36.9208 O.2       7 UNK        -0.5147 
     49 N          24.1164  -31.2990  -39.1614 N.am      8 UNK        -0.4734 
     50 CA         23.9522  -32.7481  -39.2926 C.3       8 UNK         0.0238 
     51 CB         24.6584  -33.2344  -40.5666 C.3       8 UNK        -0.1912 
     52 C          22.4715  -33.1588  -39.3134 C.2       8 UNK         0.5038 
     53 O          22.1484  -34.2434  -38.8267 O.2       8 UNK        -0.5046 
     54 N          21.6075  -32.2912  -39.8582 N.am      9 UNK        -0.4200 
     55 CA         20.1484  -32.4754  -39.9090 C.3       9 UNK         0.0839 
     56 C          19.3395  -31.2494  -39.3980 C.2       9 UNK         0.5513 
     57 N          19.9719  -30.2285  -38.8304 N.am      9 UNK        -0.7519 
     58 O          18.1149  -31.2360  -39.4884 O.2       9 UNK        -0.4960 
     59 C59        19.6803  -33.0177  -41.2865 C.3       10 UNK        -0.0876 
     60 S60        19.7827  -31.8156  -42.6612 S.3       10 UNK        -0.2414 
     61 C61        18.0331  -31.7906  -43.1893 C.3       10 UNK         0.0169 
     62 H62        19.0710  -28.3041  -40.9777 H         1 UNK         0.0903 
     63 H63        17.6062  -29.2041  -41.3640 H         1 UNK         0.0903 
     64 H64        18.8212  -28.9089  -42.6156 H         1 UNK         0.0903 
     65 H65        16.9757  -27.9928  -43.8822 H         1 UNK         0.3096 
     66 H66        15.5570  -25.6888  -43.0042 H         1 UNK         0.1121 
     67 H67        14.6906  -25.5901  -45.3203 H         1 UNK         0.0849 
     68 H68        15.9157  -26.7008  -45.8738 H         1 UNK         0.0849 
     69 H69        13.9641  -29.9255  -45.7007 H         1 UNK         0.0865 
     70 H70        14.4958  -28.6857  -46.8022 H         1 UNK         0.0865 
     71 H71        15.6905  -30.5612  -43.7530 H         1 UNK         0.1346 
     72 H72        19.6512  -31.0740  -45.3296 H         1 UNK         0.1412 
     73 H73        16.7584  -28.7957  -47.5091 H         1 UNK         0.1426 
     74 H74        18.9339  -30.2007  -48.5463 H         1 UNK         0.0716 
     75 H75        20.2676  -30.1968  -47.4259 H         1 UNK         0.0716 
     76 H76        21.7647  -27.0144  -48.3679 H         1 UNK         0.0695 
     77 H77        21.9351  -28.6121  -47.7426 H         1 UNK         0.0695 
     78 H78        22.5793  -26.5483  -46.2612 H         1 UNK         0.0983 
     79 H79        19.7385  -26.1405  -46.4406 H         1 UNK         0.3095 
     80 H80        19.5573  -23.4982  -44.0462 H         1 UNK         0.0454 
     81 H81        19.9513  -22.7015  -46.4287 H         1 UNK         0.0851 
     82 H82        18.2584  -22.6519  -45.9826 H         1 UNK         0.0851 
     83 H83        18.8571  -23.9479  -47.0130 H         1 UNK         0.0851 
     84 H84        18.6098  -26.0777  -44.5531 H         1 UNK         0.2976 
     85 H85        21.9684  -26.5456  -43.7497 H         1 UNK         0.3116 
     86 H86        21.1705  -29.0321  -42.5703 H         1 UNK         0.0646 
     87 H87        22.6991  -26.6800  -41.3251 H         1 UNK         0.0847 
     88 H88        20.9468  -26.7792  -41.4664 H         1 UNK         0.0847 
     89 H89        21.8084  -27.9235  -40.4549 H         1 UNK         0.0847 
     90 H90        24.1588  -28.1297  -43.9311 H         1 UNK         0.3040 
     91 H91        26.2098  -28.9988  -44.0766 H         1 UNK         0.1015 
     92 H92        26.3604  -31.4829  -44.1277 H         1 UNK         0.0786 
     93 H93        24.9248  -30.9179  -44.9675 H         1 UNK         0.0786 
     94 H94        24.7860  -31.6127  -43.3574 H         1 UNK         0.0786 
     95 H95        26.1824  -27.5872  -41.9479 H         1 UNK         0.3172 
     96 H96        27.1164  -27.0514  -40.0122 H         1 UNK         0.0595 
     97 H97        28.8098  -29.5950  -40.2376 H         1 UNK         0.0839 
     98 H98        29.1501  -28.1945  -39.2360 H         1 UNK         0.0839 
     99 H99        29.1997  -28.0459  -40.9844 H         1 UNK         0.0839 
    100 H100       24.6779  -28.1198  -39.8633 H         1 UNK         0.2998 
    101 H101       23.0762  -28.7847  -38.5020 H         1 UNK         0.0822 
    102 H102       23.3756  -28.6597  -36.0645 H         1 UNK         0.0787 
    103 H103       24.2127  -27.3172  -36.8242 H         1 UNK         0.0787 
    104 H104       25.1236  -28.7041  -36.2273 H         1 UNK         0.0787 
    105 H105       24.1985  -30.7745  -40.0292 H         1 UNK         0.3055 
    106 H106       24.4217  -33.2349  -38.4346 H         1 UNK         0.1106 
    107 H107       25.7181  -32.9793  -40.5556 H         1 UNK         0.0828 
    108 H108       24.5861  -34.3184  -40.6640 H         1 UNK         0.0828 
    109 H109       24.2155  -32.7962  -41.4606 H         1 UNK         0.0828 
    110 H110       21.9662  -31.4471  -40.2862 H         1 UNK         0.2931 
    111 H111       19.8885  -33.2468  -39.1820 H         1 UNK         0.0412 
    112 H112       20.9654  -30.2593  -38.6821 H         1 UNK         0.3472 
    113 H113       19.4315  -29.4521  -38.4835 H         1 UNK         0.3472 
    114 H114       20.2744  -33.8915  -41.5578 H         1 UNK         0.0970 
    115 H115       18.6571  -33.3871  -41.1992 H         1 UNK         0.0970 
    116 H116       17.4255  -31.4888  -42.3348 H         1 UNK         0.0612 
    117 H117       17.7311  -32.8075  -43.4429 H         1 UNK         0.0612 
@<TRIPOS>BOND
     1    1    2 1    
     2    1   62 1    
     3    1   63 1    
     4    1   64 1    
     5    2    3 2    
     6    2    4 am   BACKBONE|DICT|INTERRES
     7    4    5 1    
     8    4   65 1    
     9    5    6 1    
    10    5   25 1    
    11    5   66 1    
    12    6    7 1    
    13    6   67 1    
    14    6   68 1    
    15    7    8 1    
    16    8    9 1    
    17    8   69 1    
    18    8   70 1    
    19    9   10 ar   
    20    9   14 ar   
    21   10   11 ar   
    22   10   71 1    
    23   11   12 ar   
    24   11   61 1    
    25   12   13 ar   
    26   12   72 1    
    27   13   14 ar   
    28   13   15 1    
    29   14   73 1    
    30   15   16 1    
    31   15   74 1    
    32   15   75 1    
    33   16   17 1    
    34   17   18 1    
    35   17   76 1    
    36   17   77 1    
    37   18   19 1    
    38   18   27 1    
    39   18   78 1    
    40   19   20 am   BACKBONE|DICT|INTERRES
    41   19   79 1    
    42   20   21 2    
    43   20   22 1    
    44   22   23 1    
    45   22   24 1    
    46   22   80 1    
    47   23   81 1    
    48   23   82 1    
    49   23   83 1    
    50   24   25 am   BACKBONE|DICT|INTERRES
    51   24   84 1    
    52   25   26 2    
    53   27   28 2    
    54   27   29 am   BACKBONE|DICT|INTERRES
    55   29   30 1    
    56   29   85 1    
    57   30   31 1    
    58   30   32 1    
    59   30   86 1    
    60   31   87 1    
    61   31   88 1    
    62   31   89 1    
    63   32   33 2    
    64   32   34 am   BACKBONE|DICT|INTERRES
    65   34   35 1    
    66   34   90 1    
    67   35   36 1    
    68   35   37 1    
    69   35   91 1    
    70   36   92 1    
    71   36   93 1    
    72   36   94 1    
    73   37   38 2    
    74   37   39 am   BACKBONE|DICT|INTERRES
    75   39   40 1    
    76   39   95 1    
    77   40   41 1    
    78   40   42 1    
    79   40   96 1    
    80   41   97 1    
    81   41   98 1    
    82   41   99 1    
    83   42   43 2    
    84   42   44 am   BACKBONE|DICT|INTERRES
    85   44   45 1    
    86   44  100 1    
    87   45   46 1    
    88   45   47 1    
    89   45  101 1    
    90   46  102 1    
    91   46  103 1    
    92   46  104 1    
    93   47   48 2    
    94   47   49 am   BACKBONE|DICT|INTERRES
    95   49   50 1    
    96   49  105 1    
    97   50   51 1    
    98   50   52 1    
    99   50  106 1    
   100   51  107 1    
   101   51  108 1    
   102   51  109 1    
   103   52   53 2    
   104   52   54 am   BACKBONE|DICT|INTERRES
   105   54   55 1    
   106   54  110 1    
   107   55   56 1    
   108   55   59 1    
   109   55  111 1    
   110   56   57 am   BACKBONE|DICT|INTERRES
   111   56   58 2    
   112   57  112 1    
   113   57  113 1    
   114   59   60 1    
   115   59  114 1    
   116   59  115 1    
   117   60   61 1    
   118   61  116 1    
   119   61  117 1    
@<TRIPOS>SUBSTRUCTURE
     1 UNK         1 GROUP             0       ****    0 ROOT    
