@<TRIPOS>MOLECULE
3R8
117   119    1
SMALL
USER_CHARGES


@<TRIPOS>ATOM
      1 CA         15.9208  -27.5507  -41.1886 C.3       0 UNK        -0.2013 
      2 C          16.2833  -26.3189  -42.0049 C.2       0 UNK         0.4866 
      3 O          15.6707  -25.2669  -41.8200 O.2       0 UNK        -0.5176 
      4 N          17.2705  -26.4367  -42.9005 N.am      1 UNK        -0.4884 
      5 CA         17.7797  -25.3360  -43.7197 C.3       1 UNK         0.0853 
      6 C6         16.9569  -25.1116  -45.0229 C.3       10 UNK        -0.0849 
      7 S7         17.1318  -26.3616  -46.3464 S.3       10 UNK        -0.2776 
      8 C8         15.9181  -27.6447  -45.8903 C.3       10 UNK         0.0316 
      9 C9         16.6018  -28.9416  -45.4722 C.ar      10 UNK        -0.0863 
     10 C10        16.3187  -29.5310  -44.2356 C.ar      10 UNK        -0.1009 
     11 C11        16.9524  -30.7176  -43.8485 C.ar      10 UNK        -0.0712 
     12 C12        17.8517  -31.3297  -44.7243 C.ar      10 UNK        -0.0894 
     13 C13        18.1670  -30.7349  -45.9496 C.ar      10 UNK        -0.0745 
     14 C14        17.5213  -29.5567  -46.3282 C.ar      10 UNK        -0.0972 
     15 C15        19.2580  -31.3267  -46.8307 C.3       10 UNK         0.0209 
     16 S16        20.7991  -30.3466  -46.7546 S.3       10 UNK        -0.2568 
     17 C17        21.1735  -30.3672  -44.9662 C.3       10 UNK        -0.0983 
     18 CA         21.9079  -29.1122  -44.4384 C.3       3 UNK         0.0876 
     19 N          21.3663  -27.8476  -44.9502 N.am      3 UNK        -0.4424 
     20 C          22.0063  -26.6739  -44.8487 C.2       2 UNK         0.4918 
     21 O          23.1024  -26.5420  -44.3049 O.2       2 UNK        -0.4875 
     22 CA         21.2827  -25.4291  -45.3908 C.3       2 UNK         0.0481 
     23 CB         21.4828  -25.3108  -46.9093 C.3       2 UNK        -0.1831 
     24 N          19.8498  -25.3805  -45.0788 N.am      2 UNK        -0.4498 
     25 C          19.3099  -25.4714  -43.8559 C.2       1 UNK         0.5027 
     26 O          19.9823  -25.6579  -42.8395 O.2       1 UNK        -0.4969 
     27 C          21.9338  -29.1511  -42.8953 C.2       3 UNK         0.5005 
     28 O          22.7832  -29.8388  -42.3271 O.2       3 UNK        -0.5279 
     29 N          21.0082  -28.4320  -42.2386 N.am      4 UNK        -0.4463 
     30 CA         20.9443  -28.3106  -40.7805 C.3       4 UNK         0.0283 
     31 CB         19.5848  -27.7613  -40.3232 C.3       4 UNK        -0.1875 
     32 C          22.0956  -27.4546  -40.2471 C.2       4 UNK         0.4949 
     33 O          22.7504  -27.8537  -39.2842 O.2       4 UNK        -0.5039 
     34 N          22.3504  -26.3270  -40.9248 N.am      5 UNK        -0.4663 
     35 CA         23.4927  -25.4488  -40.6701 C.3       5 UNK         0.0242 
     36 CB         23.3507  -24.1706  -41.5121 C.3       5 UNK        -0.1982 
     37 C          24.8416  -26.1382  -40.9408 C.2       5 UNK         0.5017 
     38 O          25.7858  -25.9306  -40.1782 O.2       5 UNK        -0.5012 
     39 N          24.9015  -26.9456  -42.0097 N.am      6 UNK        -0.4439 
     40 CA         26.0820  -27.7107  -42.4053 C.3       6 UNK         0.0297 
     41 CB         25.9283  -28.2125  -43.8504 C.3       6 UNK        -0.2006 
     42 C          26.4010  -28.8763  -41.4548 C.2       6 UNK         0.4892 
     43 O          27.5275  -28.9430  -40.9601 O.2       6 UNK        -0.5089 
     44 N          25.4418  -29.7917  -41.2457 N.am      7 UNK        -0.4243 
     45 CA         25.6862  -31.0690  -40.5682 C.3       7 UNK         0.0196 
     46 CB         26.4194  -32.0364  -41.5247 C.3       7 UNK        -0.2007 
     47 C          24.4079  -31.6888  -39.9798 C.2       7 UNK         0.5020 
     48 O          24.2522  -32.9098  -40.0347 O.2       7 UNK        -0.5147 
     49 N          23.5132  -30.8610  -39.4175 N.am      8 UNK        -0.4734 
     50 CA         22.2966  -31.2647  -38.6883 C.3       8 UNK         0.0238 
     51 CB         22.6797  -31.8976  -37.3328 C.3       8 UNK        -0.1912 
     52 C          21.3287  -32.1561  -39.5020 C.2       8 UNK         0.5038 
     53 O          20.7034  -33.0526  -38.9327 O.2       8 UNK        -0.5046 
     54 N          21.2415  -31.9020  -40.8156 N.am      9 UNK        -0.4200 
     55 CA         20.4816  -32.6747  -41.8152 C.3       9 UNK         0.0839 
     56 C          21.1096  -34.0589  -42.1634 C.2       9 UNK         0.5513 
     57 N          22.3197  -34.3828  -41.7223 N.am      9 UNK        -0.7519 
     58 O          20.5018  -34.8472  -42.8829 O.2       9 UNK        -0.4960 
     59 C59        18.9516  -32.7749  -41.5267 C.3       10 UNK        -0.0876 
     60 S60        18.1154  -31.1569  -41.3605 S.3       10 UNK        -0.2414 
     61 C61        16.6816  -31.3286  -42.4800 C.3       10 UNK         0.0169 
     62 H62        14.8763  -27.8149  -41.3504 H         1 UNK         0.0903 
     63 H63        16.5328  -28.4118  -41.4508 H         1 UNK         0.0903 
     64 H64        16.0605  -27.3499  -40.1266 H         1 UNK         0.0903 
     65 H65        17.7513  -27.3174  -43.0139 H         1 UNK         0.3096 
     66 H66        17.6711  -24.4194  -43.1348 H         1 UNK         0.1121 
     67 H67        17.2321  -24.1479  -45.4550 H         1 UNK         0.0849 
     68 H68        15.8992  -25.0083  -44.7759 H         1 UNK         0.0849 
     69 H69        15.2586  -27.2773  -45.1029 H         1 UNK         0.0865 
     70 H70        15.2810  -27.8476  -46.7520 H         1 UNK         0.0865 
     71 H71        15.6040  -29.0640  -43.5736 H         1 UNK         0.1346 
     72 H72        18.3530  -32.2398  -44.4267 H         1 UNK         0.1412 
     73 H73        17.7634  -29.0976  -47.2773 H         1 UNK         0.1426 
     74 H74        19.4752  -32.3556  -46.5393 H         1 UNK         0.0716 
     75 H75        18.9112  -31.3664  -47.8643 H         1 UNK         0.0716 
     76 H76        20.2501  -30.4891  -44.4076 H         1 UNK         0.0695 
     77 H77        21.7659  -31.2610  -44.7611 H         1 UNK         0.0695 
     78 H78        22.9418  -29.1779  -44.7813 H         1 UNK         0.0983 
     79 H79        20.4776  -27.8923  -45.4279 H         1 UNK         0.3095 
     80 H80        21.7419  -24.5573  -44.9205 H         1 UNK         0.0454 
     81 H81        21.0030  -26.1299  -47.4464 H         1 UNK         0.0851 
     82 H82        21.0761  -24.3747  -47.2920 H         1 UNK         0.0851 
     83 H83        22.5430  -25.3292  -47.1661 H         1 UNK         0.0851 
     84 H84        19.2156  -25.2849  -45.8616 H         1 UNK         0.2976 
     85 H85        20.3962  -27.8288  -42.7705 H         1 UNK         0.3116 
     86 H86        21.0408  -29.3069  -40.3598 H         1 UNK         0.0646 
     87 H87        19.4304  -26.7237  -40.6161 H         1 UNK         0.0847 
     88 H88        18.7661  -28.3528  -40.7260 H         1 UNK         0.0847 
     89 H89        19.5027  -27.7996  -39.2363 H         1 UNK         0.0847 
     90 H90        21.7319  -26.0742  -41.6882 H         1 UNK         0.3040 
     91 H91        23.4713  -25.1704  -39.6140 H         1 UNK         0.1015 
     92 H92        23.3455  -24.3876  -42.5810 H         1 UNK         0.0786 
     93 H93        24.1773  -23.4846  -41.3221 H         1 UNK         0.0786 
     94 H94        22.4281  -23.6403  -41.2749 H         1 UNK         0.0786 
     95 H95        24.0982  -26.9849  -42.6289 H         1 UNK         0.3172 
     96 H96        26.9350  -27.0286  -42.3878 H         1 UNK         0.0595 
     97 H97        26.8271  -28.7377  -44.1764 H         1 UNK         0.0839 
     98 H98        25.7672  -27.3869  -44.5438 H         1 UNK         0.0839 
     99 H99        25.0945  -28.9057  -43.9527 H         1 UNK         0.0839 
    100 H100       24.5224  -29.6801  -41.6710 H         1 UNK         0.2998 
    101 H101       26.3362  -30.8869  -39.7100 H         1 UNK         0.0822 
    102 H102       26.6552  -32.9799  -41.0306 H         1 UNK         0.0787 
    103 H103       25.8104  -32.2669  -42.3994 H         1 UNK         0.0787 
    104 H104       27.3639  -31.6206  -41.8749 H         1 UNK         0.0787 
    105 H105       23.6898  -29.8626  -39.4462 H         1 UNK         0.3055 
    106 H106       21.7481  -30.3498  -38.4628 H         1 UNK         0.1106 
    107 H107       23.3382  -31.2438  -36.7612 H         1 UNK         0.0828 
    108 H108       21.7961  -32.0783  -36.7193 H         1 UNK         0.0828 
    109 H109       23.1863  -32.8546  -37.4625 H         1 UNK         0.0828 
    110 H110       21.8394  -31.1769  -41.1990 H         1 UNK         0.2931 
    111 H111       20.5850  -32.1017  -42.7344 H         1 UNK         0.0412 
    112 H112       22.7069  -35.2782  -41.9736 H         1 UNK         0.3472 
    113 H113       22.8523  -33.7587  -41.1241 H         1 UNK         0.3472 
    114 H114       18.4614  -33.3382  -42.3212 H         1 UNK         0.0970 
    115 H115       18.7681  -33.3485  -40.6176 H         1 UNK         0.0970 
    116 H116       16.3979  -32.3761  -42.5875 H         1 UNK         0.0612 
    117 H117       15.8273  -30.8370  -42.0125 H         1 UNK         0.0612 
@<TRIPOS>BOND
     1    1    2 1    
     2    1   62 1    
     3    1   63 1    
     4    1   64 1    
     5    2    3 2    
     6    2    4 am   BACKBONE|DICT|INTERRES
     7    4    5 1    
     8    4   65 1    
     9    5    6 1    
    10    5   25 1    
    11    5   66 1    
    12    6    7 1    
    13    6   67 1    
    14    6   68 1    
    15    7    8 1    
    16    8    9 1    
    17    8   69 1    
    18    8   70 1    
    19    9   10 ar   
    20    9   14 ar   
    21   10   11 ar   
    22   10   71 1    
    23   11   12 ar   
    24   11   61 1    
    25   12   13 ar   
    26   12   72 1    
    27   13   14 ar   
    28   13   15 1    
    29   14   73 1    
    30   15   16 1    
    31   15   74 1    
    32   15   75 1    
    33   16   17 1    
    34   17   18 1    
    35   17   76 1    
    36   17   77 1    
    37   18   19 1    
    38   18   27 1    
    39   18   78 1    
    40   19   20 am   BACKBONE|DICT|INTERRES
    41   19   79 1    
    42   20   21 2    
    43   20   22 1    
    44   22   23 1    
    45   22   24 1    
    46   22   80 1    
    47   23   81 1    
    48   23   82 1    
    49   23   83 1    
    50   24   25 am   BACKBONE|DICT|INTERRES
    51   24   84 1    
    52   25   26 2    
    53   27   28 2    
    54   27   29 am   BACKBONE|DICT|INTERRES
    55   29   30 1    
    56   29   85 1    
    57   30   31 1    
    58   30   32 1    
    59   30   86 1    
    60   31   87 1    
    61   31   88 1    
    62   31   89 1    
    63   32   33 2    
    64   32   34 am   BACKBONE|DICT|INTERRES
    65   34   35 1    
    66   34   90 1    
    67   35   36 1    
    68   35   37 1    
    69   35   91 1    
    70   36   92 1    
    71   36   93 1    
    72   36   94 1    
    73   37   38 2    
    74   37   39 am   BACKBONE|DICT|INTERRES
    75   39   40 1    
    76   39   95 1    
    77   40   41 1    
    78   40   42 1    
    79   40   96 1    
    80   41   97 1    
    81   41   98 1    
    82   41   99 1    
    83   42   43 2    
    84   42   44 am   BACKBONE|DICT|INTERRES
    85   44   45 1    
    86   44  100 1    
    87   45   46 1    
    88   45   47 1    
    89   45  101 1    
    90   46  102 1    
    91   46  103 1    
    92   46  104 1    
    93   47   48 2    
    94   47   49 am   BACKBONE|DICT|INTERRES
    95   49   50 1    
    96   49  105 1    
    97   50   51 1    
    98   50   52 1    
    99   50  106 1    
   100   51  107 1    
   101   51  108 1    
   102   51  109 1    
   103   52   53 2    
   104   52   54 am   BACKBONE|DICT|INTERRES
   105   54   55 1    
   106   54  110 1    
   107   55   56 1    
   108   55   59 1    
   109   55  111 1    
   110   56   57 am   BACKBONE|DICT|INTERRES
   111   56   58 2    
   112   57  112 1    
   113   57  113 1    
   114   59   60 1    
   115   59  114 1    
   116   59  115 1    
   117   60   61 1    
   118   61  116 1    
   119   61  117 1    
@<TRIPOS>SUBSTRUCTURE
     1 UNK         1 GROUP             0       ****    0 ROOT    
