@<TRIPOS>MOLECULE
3R8
117   119    1
SMALL
USER_CHARGES


@<TRIPOS>ATOM
      1 CA         14.6893  -22.0504  -45.0903 C.3       0 UNK        -0.2013 
      2 C          15.6187  -23.0587  -45.7494 C.2       0 UNK         0.4866 
      3 O          16.7432  -22.7093  -46.1080 O.2       0 UNK        -0.5176 
      4 N          15.1539  -24.3043  -45.9176 N.am      1 UNK        -0.4884 
      5 CA         15.9161  -25.4154  -46.5005 C.3       1 UNK         0.0853 
      6 C6         14.9779  -26.6075  -46.8437 C.3       10 UNK        -0.0849 
      7 S7         15.8088  -28.0986  -47.5114 S.3       10 UNK        -0.2776 
      8 C8         15.9528  -29.1498  -46.0146 C.3       10 UNK         0.0316 
      9 C9         17.3486  -29.7071  -45.7105 C.ar      10 UNK        -0.0863 
     10 C10        17.4590  -30.7047  -44.7347 C.ar      10 UNK        -0.1009 
     11 C11        18.6942  -31.2803  -44.4205 C.ar      10 UNK        -0.0712 
     12 C12        19.8383  -30.8363  -45.0929 C.ar      10 UNK        -0.0894 
     13 C13        19.7561  -29.8288  -46.0566 C.ar      10 UNK        -0.0745 
     14 C14        18.5116  -29.2682  -46.3600 C.ar      10 UNK        -0.0972 
     15 C15        21.0048  -29.3945  -46.8149 C.3       10 UNK         0.0209 
     16 S16        21.5736  -27.7240  -46.3630 S.3       10 UNK        -0.2568 
     17 C17        22.1264  -27.9419  -44.6377 C.3       10 UNK        -0.0983 
     18 CA         21.4147  -26.9614  -43.6752 C.3       3 UNK         0.0876 
     19 N          19.9600  -27.1529  -43.6839 N.am      3 UNK        -0.4424 
     20 C          19.0644  -26.2656  -43.2339 C.2       2 UNK         0.4918 
     21 O          19.3502  -25.1591  -42.7732 O.2       2 UNK        -0.4875 
     22 CA         17.5956  -26.7176  -43.2865 C.3       2 UNK         0.0481 
     23 CB         16.9264  -26.5643  -41.9104 C.3       2 UNK        -0.1831 
     24 N          16.7789  -26.0399  -44.2978 N.am      2 UNK        -0.4498 
     25 C          17.0865  -25.8425  -45.5906 C.2       1 UNK         0.5027 
     26 O          18.1984  -26.0170  -46.0883 O.2       1 UNK        -0.4969 
     27 C          22.0113  -27.0619  -42.2547 C.2       3 UNK         0.5005 
     28 O          23.1148  -26.5624  -42.0273 O.2       3 UNK        -0.5279 
     29 N          21.2702  -27.6916  -41.3284 N.am      4 UNK        -0.4463 
     30 CA         21.5907  -27.8787  -39.9117 C.3       4 UNK         0.0283 
     31 CB         21.5146  -26.5290  -39.1613 C.3       4 UNK        -0.1875 
     32 C          22.9166  -28.6403  -39.7244 C.2       4 UNK         0.4949 
     33 O          23.1268  -29.6514  -40.3990 O.2       4 UNK        -0.5039 
     34 N          23.7886  -28.1470  -38.8344 N.am      5 UNK        -0.4663 
     35 CA         25.0698  -28.7482  -38.4485 C.3       5 UNK         0.0242 
     36 CB         25.7269  -27.8750  -37.3677 C.3       5 UNK        -0.1982 
     37 C          26.0546  -28.9978  -39.6050 C.2       5 UNK         0.5017 
     38 O          26.8956  -29.8876  -39.4810 O.2       5 UNK        -0.5012 
     39 N          25.9159  -28.2565  -40.7147 N.am      6 UNK        -0.4439 
     40 CA         26.6951  -28.4463  -41.9428 C.3       6 UNK         0.0297 
     41 CB         26.4439  -27.2680  -42.8970 C.3       6 UNK        -0.2006 
     42 C          26.4085  -29.7831  -42.6544 C.2       6 UNK         0.4892 
     43 O          27.2847  -30.2787  -43.3637 O.2       6 UNK        -0.5089 
     44 N          25.2075  -30.3410  -42.4483 N.am      7 UNK        -0.4243 
     45 CA         24.7740  -31.6356  -42.9817 C.3       7 UNK         0.0196 
     46 CB         23.5349  -31.4002  -43.8607 C.3       7 UNK        -0.2007 
     47 C          24.4681  -32.6516  -41.8642 C.2       7 UNK         0.5020 
     48 O          24.0234  -33.7578  -42.1707 O.2       7 UNK        -0.5147 
     49 N          24.6865  -32.2606  -40.5979 N.am      8 UNK        -0.4734 
     50 CA         24.3078  -32.9625  -39.3615 C.3       8 UNK         0.0238 
     51 CB         25.0887  -34.2856  -39.2105 C.3       8 UNK        -0.1912 
     52 C          22.7809  -33.1420  -39.2042 C.2       8 UNK         0.5038 
     53 O          22.3372  -34.1015  -38.5700 O.2       8 UNK        -0.5046 
     54 N          22.0105  -32.2135  -39.7815 N.am      9 UNK        -0.4200 
     55 CA         20.5449  -32.1562  -39.7288 C.3       9 UNK         0.0839 
     56 C          20.0453  -31.4322  -38.4505 C.2       9 UNK         0.5513 
     57 N          18.7970  -31.6580  -38.0655 N.am      9 UNK        -0.7519 
     58 O          20.7571  -30.6525  -37.8204 O.2       9 UNK        -0.4960 
     59 C59        19.9718  -31.5074  -41.0179 C.3       10 UNK        -0.0876 
     60 S60        20.2990  -32.5600  -42.4718 S.3       10 UNK        -0.2414 
     61 C61        18.7475  -32.4420  -43.4271 C.3       10 UNK         0.0169 
     62 H62        14.5112  -21.2103  -45.7610 H         1 UNK         0.0903 
     63 H63        13.7252  -22.4891  -44.8338 H         1 UNK         0.0903 
     64 H64        15.1408  -21.6665  -44.1759 H         1 UNK         0.0903 
     65 H65        14.2129  -24.5207  -45.6190 H         1 UNK         0.3096 
     66 H66        16.3573  -25.0600  -47.4349 H         1 UNK         0.1121 
     67 H67        14.3790  -26.8879  -45.9757 H         1 UNK         0.0849 
     68 H68        14.2553  -26.2824  -47.5939 H         1 UNK         0.0849 
     69 H69        15.6155  -28.6025  -45.1344 H         1 UNK         0.0865 
     70 H70        15.2581  -29.9830  -46.1321 H         1 UNK         0.0865 
     71 H71        16.5674  -31.0575  -44.2335 H         1 UNK         0.1346 
     72 H72        20.7948  -31.2953  -44.8893 H         1 UNK         0.1412 
     73 H73        18.4641  -28.4943  -47.1130 H         1 UNK         0.1426 
     74 H74        20.7914  -29.4102  -47.8846 H         1 UNK         0.0716 
     75 H75        21.8213  -30.1019  -46.6604 H         1 UNK         0.0716 
     76 H76        21.9585  -28.9715  -44.3226 H         1 UNK         0.0695 
     77 H77        23.2071  -27.7881  -44.6165 H         1 UNK         0.0695 
     78 H78        21.6161  -25.9452  -44.0218 H         1 UNK         0.0983 
     79 H79        19.6295  -27.9988  -44.1279 H         1 UNK         0.3095 
     80 H80        17.5788  -27.7801  -43.5349 H         1 UNK         0.0454 
     81 H81        16.8294  -25.5161  -41.6243 H         1 UNK         0.0851 
     82 H82        15.9316  -27.0097  -41.8982 H         1 UNK         0.0851 
     83 H83        17.5095  -27.0601  -41.1331 H         1 UNK         0.0851 
     84 H84        15.8426  -25.7971  -44.0102 H         1 UNK         0.2976 
     85 H85        20.3946  -28.0870  -41.6359 H         1 UNK         0.3116 
     86 H86        20.8110  -28.5230  -39.5055 H         1 UNK         0.0646 
     87 H87        21.6026  -26.6668  -38.0829 H         1 UNK         0.0847 
     88 H88        20.5562  -26.0402  -39.3370 H         1 UNK         0.0847 
     89 H89        22.2957  -25.8366  -39.4783 H         1 UNK         0.0847 
     90 H90        23.5313  -27.3004  -38.3478 H         1 UNK         0.3040 
     91 H91        24.8458  -29.7225  -38.0091 H         1 UNK         0.1015 
     92 H92        25.0893  -27.7826  -36.4882 H         1 UNK         0.0786 
     93 H93        25.9416  -26.8708  -37.7358 H         1 UNK         0.0786 
     94 H94        26.6712  -28.3085  -37.0345 H         1 UNK         0.0786 
     95 H95        25.1759  -27.5667  -40.7430 H         1 UNK         0.3172 
     96 H96        27.7523  -28.4408  -41.6688 H         1 UNK         0.0595 
     97 H97        26.6792  -26.3140  -42.4250 H         1 UNK         0.0839 
     98 H98        25.4065  -27.2319  -43.2304 H         1 UNK         0.0839 
     99 H99        27.0672  -27.3501  -43.7885 H         1 UNK         0.0839 
    100 H100       24.5441  -29.8669  -41.8428 H         1 UNK         0.2998 
    101 H101       25.5554  -32.0796  -43.6017 H         1 UNK         0.0822 
    102 H102       23.7577  -30.7254  -44.6872 H         1 UNK         0.0787 
    103 H103       23.1718  -32.3334  -44.2934 H         1 UNK         0.0787 
    104 H104       22.7189  -30.9685  -43.2807 H         1 UNK         0.0787 
    105 H105       25.0801  -31.3394  -40.4664 H         1 UNK         0.3055 
    106 H106       24.6109  -32.3112  -38.5403 H         1 UNK         0.1106 
    107 H107       24.7809  -35.0256  -39.9496 H         1 UNK         0.0828 
    108 H108       26.1616  -34.1278  -39.3190 H         1 UNK         0.0828 
    109 H109       24.9257  -34.7257  -38.2260 H         1 UNK         0.0828 
    110 H110       22.4656  -31.4125  -40.2084 H         1 UNK         0.2931 
    111 H111       20.1684  -33.1800  -39.6750 H         1 UNK         0.0412 
    112 H112       18.2014  -32.2976  -38.5684 H         1 UNK         0.3472 
    113 H113       18.4477  -31.1921  -37.2423 H         1 UNK         0.3472 
    114 H114       18.8961  -31.3494  -40.9263 H         1 UNK         0.0970 
    115 H115       20.4132  -30.5252  -41.1899 H         1 UNK         0.0970 
    116 H116       18.6360  -33.3662  -43.9952 H         1 UNK         0.0612 
    117 H117       17.8999  -32.4054  -42.7415 H         1 UNK         0.0612 
@<TRIPOS>BOND
     1    1    2 1    
     2    1   62 1    
     3    1   63 1    
     4    1   64 1    
     5    2    3 2    
     6    2    4 am   BACKBONE|DICT|INTERRES
     7    4    5 1    
     8    4   65 1    
     9    5    6 1    
    10    5   25 1    
    11    5   66 1    
    12    6    7 1    
    13    6   67 1    
    14    6   68 1    
    15    7    8 1    
    16    8    9 1    
    17    8   69 1    
    18    8   70 1    
    19    9   10 ar   
    20    9   14 ar   
    21   10   11 ar   
    22   10   71 1    
    23   11   12 ar   
    24   11   61 1    
    25   12   13 ar   
    26   12   72 1    
    27   13   14 ar   
    28   13   15 1    
    29   14   73 1    
    30   15   16 1    
    31   15   74 1    
    32   15   75 1    
    33   16   17 1    
    34   17   18 1    
    35   17   76 1    
    36   17   77 1    
    37   18   19 1    
    38   18   27 1    
    39   18   78 1    
    40   19   20 am   BACKBONE|DICT|INTERRES
    41   19   79 1    
    42   20   21 2    
    43   20   22 1    
    44   22   23 1    
    45   22   24 1    
    46   22   80 1    
    47   23   81 1    
    48   23   82 1    
    49   23   83 1    
    50   24   25 am   BACKBONE|DICT|INTERRES
    51   24   84 1    
    52   25   26 2    
    53   27   28 2    
    54   27   29 am   BACKBONE|DICT|INTERRES
    55   29   30 1    
    56   29   85 1    
    57   30   31 1    
    58   30   32 1    
    59   30   86 1    
    60   31   87 1    
    61   31   88 1    
    62   31   89 1    
    63   32   33 2    
    64   32   34 am   BACKBONE|DICT|INTERRES
    65   34   35 1    
    66   34   90 1    
    67   35   36 1    
    68   35   37 1    
    69   35   91 1    
    70   36   92 1    
    71   36   93 1    
    72   36   94 1    
    73   37   38 2    
    74   37   39 am   BACKBONE|DICT|INTERRES
    75   39   40 1    
    76   39   95 1    
    77   40   41 1    
    78   40   42 1    
    79   40   96 1    
    80   41   97 1    
    81   41   98 1    
    82   41   99 1    
    83   42   43 2    
    84   42   44 am   BACKBONE|DICT|INTERRES
    85   44   45 1    
    86   44  100 1    
    87   45   46 1    
    88   45   47 1    
    89   45  101 1    
    90   46  102 1    
    91   46  103 1    
    92   46  104 1    
    93   47   48 2    
    94   47   49 am   BACKBONE|DICT|INTERRES
    95   49   50 1    
    96   49  105 1    
    97   50   51 1    
    98   50   52 1    
    99   50  106 1    
   100   51  107 1    
   101   51  108 1    
   102   51  109 1    
   103   52   53 2    
   104   52   54 am   BACKBONE|DICT|INTERRES
   105   54   55 1    
   106   54  110 1    
   107   55   56 1    
   108   55   59 1    
   109   55  111 1    
   110   56   57 am   BACKBONE|DICT|INTERRES
   111   56   58 2    
   112   57  112 1    
   113   57  113 1    
   114   59   60 1    
   115   59  114 1    
   116   59  115 1    
   117   60   61 1    
   118   61  116 1    
   119   61  117 1    
@<TRIPOS>SUBSTRUCTURE
     1 UNK         1 GROUP             0       ****    0 ROOT    
