@<TRIPOS>MOLECULE
3R8
117   119    1
SMALL
USER_CHARGES


@<TRIPOS>ATOM
      1 CA         12.3198  -28.9948  -46.0159 C.3       0 UNK        -0.2013 
      2 C          13.7332  -29.5130  -45.7955 C.2       0 UNK         0.4866 
      3 O          14.0722  -30.5926  -46.2818 O.2       0 UNK        -0.5176 
      4 N          14.5563  -28.7573  -45.0588 N.am      1 UNK        -0.4884 
      5 CA         15.9608  -29.0757  -44.7825 C.3       1 UNK         0.0853 
      6 C6         16.5472  -28.1734  -43.6708 C.3       10 UNK        -0.0849 
      7 S7         15.7474  -28.4117  -42.0520 S.3       10 UNK        -0.2776 
      8 C8         16.1365  -26.8260  -41.2360 C.3       10 UNK         0.0316 
      9 C9         17.6258  -26.5015  -41.2753 C.ar      10 UNK        -0.0863 
     10 C10        18.5428  -27.3271  -40.6186 C.ar      10 UNK        -0.1009 
     11 C11        19.9120  -27.0546  -40.6801 C.ar      10 UNK        -0.0712 
     12 C12        20.3586  -25.9218  -41.3626 C.ar      10 UNK        -0.0894 
     13 C13        19.4556  -25.0941  -42.0359 C.ar      10 UNK        -0.0745 
     14 C14        18.0891  -25.3886  -41.9864 C.ar      10 UNK        -0.0972 
     15 C15        19.9524  -23.8781  -42.8089 C.3       10 UNK         0.0209 
     16 S16        21.3304  -24.2663  -43.9403 S.3       10 UNK        -0.2568 
     17 C17        20.5291  -25.3334  -45.1896 C.3       10 UNK        -0.0983 
     18 CA         20.8922  -26.8374  -45.0623 C.3       3 UNK         0.0876 
     19 N          20.0759  -27.6436  -45.9787 N.am      3 UNK        -0.4424 
     20 C          20.1264  -28.9723  -46.1529 C.2       2 UNK         0.4918 
     21 O          20.9215  -29.7216  -45.5885 O.2       2 UNK        -0.4875 
     22 CA         19.0155  -29.5752  -47.0211 C.3       2 UNK         0.0481 
     23 CB         19.4101  -30.9366  -47.6215 C.3       2 UNK        -0.1831 
     24 N          17.8748  -29.7576  -46.1319 N.am      2 UNK        -0.4498 
     25 C          16.8311  -28.9276  -46.0448 C.2       1 UNK         0.5027 
     26 O          16.6017  -28.0212  -46.8504 O.2       1 UNK        -0.4969 
     27 C          22.4077  -27.1049  -45.2260 C.2       3 UNK         0.5005 
     28 O          23.0328  -26.5694  -46.1444 O.2       3 UNK        -0.5279 
     29 N          22.9510  -27.9431  -44.3345 N.am      4 UNK        -0.4463 
     30 CA         24.3635  -28.3224  -44.2634 C.3       4 UNK         0.0283 
     31 CB         24.4468  -29.8536  -44.1315 C.3       4 UNK        -0.1875 
     32 C          25.0791  -27.6515  -43.0784 C.2       4 UNK         0.4949 
     33 O          26.2883  -27.8314  -42.9318 O.2       4 UNK        -0.5039 
     34 N          24.3242  -26.9324  -42.2327 N.am      5 UNK        -0.4663 
     35 CA         24.6964  -26.2646  -40.9765 C.3       5 UNK         0.0242 
     36 CB         25.7555  -25.1703  -41.2097 C.3       5 UNK        -0.1982 
     37 C          25.1226  -27.2205  -39.8470 C.2       5 UNK         0.5017 
     38 O          24.6404  -27.0778  -38.7231 O.2       5 UNK        -0.5012 
     39 N          25.9973  -28.1842  -40.1550 N.am      6 UNK        -0.4439 
     40 CA         26.5899  -29.1617  -39.2385 C.3       6 UNK         0.0297 
     41 CB         27.9019  -29.6782  -39.8588 C.3       6 UNK        -0.2006 
     42 C          25.6301  -30.3064  -38.8482 C.2       6 UNK         0.4892 
     43 O          26.0030  -31.4767  -38.9487 O.2       6 UNK        -0.5089 
     44 N          24.4171  -29.9479  -38.4047 N.am      7 UNK        -0.4243 
     45 CA         23.3298  -30.7745  -37.8541 C.3       7 UNK         0.0196 
     46 CB         23.7678  -31.4506  -36.5409 C.3       7 UNK        -0.2007 
     47 C          22.6989  -31.8085  -38.8072 C.2       7 UNK         0.5020 
     48 O          21.4813  -31.9898  -38.7659 O.2       7 UNK        -0.5147 
     49 N          23.5044  -32.4692  -39.6463 N.am      8 UNK        -0.4734 
     50 CA         23.1064  -33.4923  -40.6209 C.3       8 UNK         0.0238 
     51 CB         24.3442  -34.3356  -40.9800 C.3       8 UNK        -0.1912 
     52 C          22.4226  -32.8847  -41.8631 C.2       8 UNK         0.5038 
     53 O          22.8787  -33.0932  -42.9887 O.2       8 UNK        -0.5046 
     54 N          21.3550  -32.1207  -41.6211 N.am      9 UNK        -0.4200 
     55 CA         20.6209  -31.3170  -42.6077 C.3       9 UNK         0.0839 
     56 C          19.3746  -32.0310  -43.2091 C.2       9 UNK         0.5513 
     57 N          19.1426  -33.3080  -42.9313 N.am      9 UNK        -0.7519 
     58 O          18.5971  -31.4181  -43.9374 O.2       9 UNK        -0.4960 
     59 C59        20.2530  -29.9301  -42.0220 C.3       10 UNK        -0.0876 
     60 S60        21.6980  -29.0273  -41.3584 S.3       10 UNK        -0.2414 
     61 C61        20.9178  -28.0130  -40.0652 C.3       10 UNK         0.0169 
     62 H62        12.1541  -28.0377  -45.5215 H         1 UNK         0.0903 
     63 H63        12.1306  -28.8632  -47.0809 H         1 UNK         0.0903 
     64 H64        11.5936  -29.7076  -45.6260 H         1 UNK         0.0903 
     65 H65        14.2284  -27.8768  -44.6884 H         1 UNK         0.3096 
     66 H66        16.0121  -30.1164  -44.4518 H         1 UNK         0.1121 
     67 H67        16.4716  -27.1220  -43.9567 H         1 UNK         0.0849 
     68 H68        17.6118  -28.3742  -43.5321 H         1 UNK         0.0849 
     69 H69        15.5537  -26.0333  -41.7077 H         1 UNK         0.0865 
     70 H70        15.8062  -26.8702  -40.1972 H         1 UNK         0.0865 
     71 H71        18.1894  -28.2021  -40.0904 H         1 UNK         0.1346 
     72 H72        21.4162  -25.7039  -41.4011 H         1 UNK         0.1412 
     73 H73        17.3848  -24.7511  -42.5036 H         1 UNK         0.1426 
     74 H74        20.2895  -23.1268  -42.0937 H         1 UNK         0.0716 
     75 H75        19.1443  -23.4185  -43.3801 H         1 UNK         0.0716 
     76 H76        20.7997  -24.9588  -46.1786 H         1 UNK         0.0695 
     77 H77        19.4482  -25.2056  -45.1107 H         1 UNK         0.0695 
     78 H78        20.6058  -27.1490  -44.0556 H         1 UNK         0.0983 
     79 H79        19.3711  -27.1346  -46.4923 H         1 UNK         0.3095 
     80 H80        18.7847  -28.8891  -47.8387 H         1 UNK         0.0454 
     81 H81        20.2979  -30.8428  -48.2478 H         1 UNK         0.0851 
     82 H82        18.6117  -31.3376  -48.2456 H         1 UNK         0.0851 
     83 H83        19.6308  -31.6751  -46.8493 H         1 UNK         0.0851 
     84 H84        18.0264  -30.4283  -45.3786 H         1 UNK         0.2976 
     85 H85        22.3412  -28.4016  -43.6692 H         1 UNK         0.3116 
     86 H86        24.8849  -28.0243  -45.1751 H         1 UNK         0.0646 
     87 H87        25.4835  -30.1927  -44.1336 H         1 UNK         0.0847 
     88 H88        23.9906  -30.2082  -43.2061 H         1 UNK         0.0847 
     89 H89        23.9423  -30.3510  -44.9603 H         1 UNK         0.0847 
     90 H90        23.3425  -26.8790  -42.4601 H         1 UNK         0.3040 
     91 H91        23.7903  -25.7666  -40.6275 H         1 UNK         0.1015 
     92 H92        25.9526  -24.6185  -40.2895 H         1 UNK         0.0786 
     93 H93        25.4201  -24.4484  -41.9544 H         1 UNK         0.0786 
     94 H94        26.7063  -25.5831  -41.5479 H         1 UNK         0.0786 
     95 H95        26.2995  -28.2220  -41.1266 H         1 UNK         0.3172 
     96 H96        26.8475  -28.6432  -38.3128 H         1 UNK         0.0595 
     97 H97        27.7217  -30.2144  -40.7915 H         1 UNK         0.0839 
     98 H98        28.4151  -30.3625  -39.1816 H         1 UNK         0.0839 
     99 H99        28.5909  -28.8603  -40.0701 H         1 UNK         0.0839 
    100 H100       24.2360  -28.9476  -38.4030 H         1 UNK         0.2998 
    101 H101       22.5342  -30.0693  -37.6073 H         1 UNK         0.0822 
    102 H102       22.9372  -31.9906  -36.0842 H         1 UNK         0.0787 
    103 H103       24.5718  -32.1696  -36.7023 H         1 UNK         0.0787 
    104 H104       24.1151  -30.7166  -35.8137 H         1 UNK         0.0787 
    105 H105       24.4966  -32.2461  -39.5900 H         1 UNK         0.3055 
    106 H106       22.3774  -34.1546  -40.1486 H         1 UNK         0.1106 
    107 H107       24.7766  -34.8023  -40.0948 H         1 UNK         0.0828 
    108 H108       24.0860  -35.1372  -41.6733 H         1 UNK         0.0828 
    109 H109       25.1197  -33.7309  -41.4520 H         1 UNK         0.0828 
    110 H110       21.0801  -32.0006  -40.6508 H         1 UNK         0.2931 
    111 H111       21.2868  -31.1381  -43.4524 H         1 UNK         0.0412 
    112 H112       19.7716  -33.8234  -42.3370 H         1 UNK         0.3472 
    113 H113       18.3317  -33.7590  -43.3244 H         1 UNK         0.3472 
    114 H114       19.5113  -30.0499  -41.2305 H         1 UNK         0.0970 
    115 H115       19.7883  -29.3031  -42.7846 H         1 UNK         0.0970 
    116 H116       20.4438  -28.6627  -39.3277 H         1 UNK         0.0612 
    117 H117       21.6896  -27.4524  -39.5358 H         1 UNK         0.0612 
@<TRIPOS>BOND
     1    1    2 1    
     2    1   62 1    
     3    1   63 1    
     4    1   64 1    
     5    2    3 2    
     6    2    4 am   BACKBONE|DICT|INTERRES
     7    4    5 1    
     8    4   65 1    
     9    5    6 1    
    10    5   25 1    
    11    5   66 1    
    12    6    7 1    
    13    6   67 1    
    14    6   68 1    
    15    7    8 1    
    16    8    9 1    
    17    8   69 1    
    18    8   70 1    
    19    9   10 ar   
    20    9   14 ar   
    21   10   11 ar   
    22   10   71 1    
    23   11   12 ar   
    24   11   61 1    
    25   12   13 ar   
    26   12   72 1    
    27   13   14 ar   
    28   13   15 1    
    29   14   73 1    
    30   15   16 1    
    31   15   74 1    
    32   15   75 1    
    33   16   17 1    
    34   17   18 1    
    35   17   76 1    
    36   17   77 1    
    37   18   19 1    
    38   18   27 1    
    39   18   78 1    
    40   19   20 am   BACKBONE|DICT|INTERRES
    41   19   79 1    
    42   20   21 2    
    43   20   22 1    
    44   22   23 1    
    45   22   24 1    
    46   22   80 1    
    47   23   81 1    
    48   23   82 1    
    49   23   83 1    
    50   24   25 am   BACKBONE|DICT|INTERRES
    51   24   84 1    
    52   25   26 2    
    53   27   28 2    
    54   27   29 am   BACKBONE|DICT|INTERRES
    55   29   30 1    
    56   29   85 1    
    57   30   31 1    
    58   30   32 1    
    59   30   86 1    
    60   31   87 1    
    61   31   88 1    
    62   31   89 1    
    63   32   33 2    
    64   32   34 am   BACKBONE|DICT|INTERRES
    65   34   35 1    
    66   34   90 1    
    67   35   36 1    
    68   35   37 1    
    69   35   91 1    
    70   36   92 1    
    71   36   93 1    
    72   36   94 1    
    73   37   38 2    
    74   37   39 am   BACKBONE|DICT|INTERRES
    75   39   40 1    
    76   39   95 1    
    77   40   41 1    
    78   40   42 1    
    79   40   96 1    
    80   41   97 1    
    81   41   98 1    
    82   41   99 1    
    83   42   43 2    
    84   42   44 am   BACKBONE|DICT|INTERRES
    85   44   45 1    
    86   44  100 1    
    87   45   46 1    
    88   45   47 1    
    89   45  101 1    
    90   46  102 1    
    91   46  103 1    
    92   46  104 1    
    93   47   48 2    
    94   47   49 am   BACKBONE|DICT|INTERRES
    95   49   50 1    
    96   49  105 1    
    97   50   51 1    
    98   50   52 1    
    99   50  106 1    
   100   51  107 1    
   101   51  108 1    
   102   51  109 1    
   103   52   53 2    
   104   52   54 am   BACKBONE|DICT|INTERRES
   105   54   55 1    
   106   54  110 1    
   107   55   56 1    
   108   55   59 1    
   109   55  111 1    
   110   56   57 am   BACKBONE|DICT|INTERRES
   111   56   58 2    
   112   57  112 1    
   113   57  113 1    
   114   59   60 1    
   115   59  114 1    
   116   59  115 1    
   117   60   61 1    
   118   61  116 1    
   119   61  117 1    
@<TRIPOS>SUBSTRUCTURE
     1 UNK         1 GROUP             0       ****    0 ROOT    
