@<TRIPOS>MOLECULE
3R8
117   119    1
SMALL
USER_CHARGES


@<TRIPOS>ATOM
      1 CA         14.3411  -26.0580  -46.8155 C.3       0 UNK        -0.2013 
      2 C          15.5057  -26.8076  -47.4458 C.2       0 UNK         0.4866 
      3 O          15.4646  -27.1063  -48.6400 O.2       0 UNK        -0.5176 
      4 N          16.5357  -27.1095  -46.6493 N.am      1 UNK        -0.4884 
      5 CA         17.7694  -27.7868  -47.0646 C.3       1 UNK         0.0853 
      6 C6         17.9112  -29.2148  -46.4561 C.3       10 UNK        -0.0849 
      7 S7         16.4062  -30.2480  -46.5932 S.3       10 UNK        -0.2776 
      8 C8         16.3535  -31.1145  -44.9787 C.3       10 UNK         0.0316 
      9 C9         16.5129  -30.2126  -43.7538 C.ar      10 UNK        -0.0863 
     10 C10        17.2939  -30.6486  -42.6781 C.ar      10 UNK        -0.1009 
     11 C11        17.5109  -29.8234  -41.5711 C.ar      10 UNK        -0.0712 
     12 C12        16.9287  -28.5533  -41.5364 C.ar      10 UNK        -0.0894 
     13 C13        16.1564  -28.0992  -42.6085 C.ar      10 UNK        -0.0745 
     14 C14        15.9253  -28.9438  -43.6979 C.ar      10 UNK        -0.0972 
     15 C15        15.6040  -26.6835  -42.6165 C.3       10 UNK         0.0209 
     16 S16        16.6990  -25.5656  -43.5518 S.3       10 UNK        -0.2568 
     17 C17        17.9803  -25.1346  -42.3225 C.3       10 UNK        -0.0983 
     18 CA         19.2727  -25.9843  -42.4281 C.3       3 UNK         0.0876 
     19 N          19.8537  -25.9729  -43.7709 N.am      3 UNK        -0.4424 
     20 C          20.9086  -26.7026  -44.1564 C.2       2 UNK         0.4918 
     21 O          21.5773  -27.3969  -43.3903 O.2       2 UNK        -0.4875 
     22 CA         21.2003  -26.7178  -45.6677 C.3       2 UNK         0.0481 
     23 CB         22.5414  -27.3929  -46.0073 C.3       2 UNK        -0.1831 
     24 N          20.1105  -27.4251  -46.3454 N.am      2 UNK        -0.4498 
     25 C          18.9460  -26.8571  -46.6911 C.2       1 UNK         0.5027 
     26 O          18.7725  -25.6347  -46.6619 O.2       1 UNK        -0.4969 
     27 C          20.2947  -25.5509  -41.3586 C.2       3 UNK         0.5005 
     28 O          20.9462  -24.5163  -41.5211 O.2       3 UNK        -0.5279 
     29 N          20.4020  -26.3578  -40.2945 N.am      4 UNK        -0.4463 
     30 CA         21.2942  -26.2117  -39.1389 C.3       4 UNK         0.0283 
     31 CB         21.0727  -24.8704  -38.4076 C.3       4 UNK        -0.1875 
     32 C          22.7844  -26.4807  -39.4281 C.2       4 UNK         0.4949 
     33 O          23.6010  -26.3048  -38.5218 O.2       4 UNK        -0.5039 
     34 N          23.1368  -26.9698  -40.6280 N.am      5 UNK        -0.4663 
     35 CA         24.4837  -27.4540  -40.9581 C.3       5 UNK         0.0242 
     36 CB         24.7019  -27.3737  -42.4806 C.3       5 UNK        -0.1982 
     37 C          24.6754  -28.8809  -40.4107 C.2       5 UNK         0.5017 
     38 O          24.8136  -29.8248  -41.1896 O.2       5 UNK        -0.5012 
     39 N          24.6304  -29.0051  -39.0765 N.am      6 UNK        -0.4439 
     40 CA         24.4515  -30.2230  -38.2707 C.3       6 UNK         0.0297 
     41 CB         24.5427  -29.8403  -36.7840 C.3       6 UNK        -0.2006 
     42 C          25.3632  -31.4308  -38.5664 C.2       6 UNK         0.4892 
     43 O          25.0356  -32.5367  -38.1343 O.2       6 UNK        -0.5089 
     44 N          26.4634  -31.2246  -39.3010 N.am      7 UNK        -0.4243 
     45 CA         27.3188  -32.2829  -39.8428 C.3       7 UNK         0.0196 
     46 CB         28.5781  -31.6460  -40.4523 C.3       7 UNK        -0.2007 
     47 C          26.6116  -33.1757  -40.8839 C.2       7 UNK         0.5020 
     48 O          27.0159  -34.3275  -41.0478 O.2       7 UNK        -0.5147 
     49 N          25.5814  -32.6487  -41.5622 N.am      8 UNK        -0.4734 
     50 CA         24.7818  -33.3829  -42.5500 C.3       8 UNK         0.0238 
     51 CB         25.4783  -33.3485  -43.9231 C.3       8 UNK        -0.1912 
     52 C          23.3378  -32.8698  -42.6647 C.2       8 UNK         0.5038 
     53 O          22.4412  -33.6705  -42.9307 O.2       8 UNK        -0.5046 
     54 N          23.1343  -31.5589  -42.4802 N.am      9 UNK        -0.4200 
     55 CA         21.8622  -30.8320  -42.6239 C.3       9 UNK         0.0839 
     56 C          21.2963  -30.7876  -44.0776 C.2       9 UNK         0.5513 
     57 N          22.0803  -31.1071  -45.1017 N.am      9 UNK        -0.7519 
     58 O          20.1416  -30.4398  -44.2944 O.2       9 UNK        -0.4960 
     59 C59        20.8146  -31.2409  -41.5424 C.3       10 UNK        -0.0876 
     60 S60        20.1248  -29.8027  -40.6501 S.3       10 UNK        -0.2414 
     61 C61        18.3854  -30.2915  -40.4178 C.3       10 UNK         0.0169 
     62 H62        14.4978  -25.8779  -45.7522 H         1 UNK         0.0903 
     63 H63        14.2059  -25.0943  -47.3058 H         1 UNK         0.0903 
     64 H64        13.4213  -26.6311  -46.9290 H         1 UNK         0.0903 
     65 H65        16.5448  -26.7645  -45.6978 H         1 UNK         0.3096 
     66 H66        17.7940  -27.8797  -48.1524 H         1 UNK         0.1121 
     67 H67        18.1911  -29.1382  -45.4057 H         1 UNK         0.0849 
     68 H68        18.7232  -29.7578  -46.9425 H         1 UNK         0.0849 
     69 H69        15.4071  -31.6502  -44.8980 H         1 UNK         0.0865 
     70 H70        17.1372  -31.8740  -44.9861 H         1 UNK         0.0865 
     71 H71        17.7576  -31.6243  -42.7138 H         1 UNK         0.1346 
     72 H72        17.1035  -27.9056  -40.6884 H         1 UNK         0.1412 
     73 H73        15.3243  -28.5947  -44.5259 H         1 UNK         0.1426 
     74 H74        15.4591  -26.3121  -41.6009 H         1 UNK         0.0716 
     75 H75        14.6178  -26.6803  -43.0833 H         1 UNK         0.0716 
     76 H76        17.5519  -25.2154  -41.3218 H         1 UNK         0.0695 
     77 H77        18.2162  -24.0774  -42.4600 H         1 UNK         0.0695 
     78 H78        19.0108  -27.0255  -42.2378 H         1 UNK         0.0983 
     79 H79        19.3464  -25.4503  -44.4731 H         1 UNK         0.3095 
     80 H80        21.2531  -25.6834  -46.0138 H         1 UNK         0.0454 
     81 H81        22.5685  -28.4327  -45.6833 H         1 UNK         0.0851 
     82 H82        23.3689  -26.8798  -45.5158 H         1 UNK         0.0851 
     83 H83        22.7366  -27.3707  -47.0793 H         1 UNK         0.0851 
     84 H84        20.1726  -28.4336  -46.3378 H         1 UNK         0.2976 
     85 H85        19.8571  -27.2105  -40.2937 H         1 UNK         0.3116 
     86 H86        20.9927  -27.0018  -38.4495 H         1 UNK         0.0646 
     87 H87        21.4361  -24.0231  -38.9893 H         1 UNK         0.0847 
     88 H88        21.6023  -24.8537  -37.4543 H         1 UNK         0.0847 
     89 H89        20.0176  -24.7034  -38.1915 H         1 UNK         0.0847 
     90 H90        22.4223  -27.1126  -41.3331 H         1 UNK         0.3040 
     91 H91        25.2277  -26.8101  -40.4836 H         1 UNK         0.1015 
     92 H92        24.5160  -26.3679  -42.8573 H         1 UNK         0.0786 
     93 H93        24.0511  -28.0596  -43.0234 H         1 UNK         0.0786 
     94 H94        25.7290  -27.6341  -42.7387 H         1 UNK         0.0786 
     95 H95        24.5039  -28.1338  -38.5706 H         1 UNK         0.3172 
     96 H96        23.4323  -30.5629  -38.4652 H         1 UNK         0.0595 
     97 H97        25.5259  -29.4408  -36.5324 H         1 UNK         0.0839 
     98 H98        24.3683  -30.7050  -36.1417 H         1 UNK         0.0839 
     99 H99        23.7970  -29.0905  -36.5186 H         1 UNK         0.0839 
    100 H100       26.6362  -30.2860  -39.6306 H         1 UNK         0.2998 
    101 H101       27.6236  -32.9253  -39.0139 H         1 UNK         0.0822 
    102 H102       29.1342  -31.0742  -39.7091 H         1 UNK         0.0787 
    103 H103       29.2523  -32.4103  -40.8418 H         1 UNK         0.0787 
    104 H104       28.3320  -30.9770  -41.2781 H         1 UNK         0.0787 
    105 H105       25.3103  -31.6915  -41.3552 H         1 UNK         0.3055 
    106 H106       24.7062  -34.4251  -42.2303 H         1 UNK         0.1106 
    107 H107       24.8861  -33.8690  -44.6772 H         1 UNK         0.0828 
    108 H108       25.6301  -32.3264  -44.2718 H         1 UNK         0.0828 
    109 H109       26.4521  -33.8369  -43.8868 H         1 UNK         0.0828 
    110 H110       23.9175  -30.9616  -42.2302 H         1 UNK         0.2931 
    111 H111       22.1552  -29.8006  -42.4293 H         1 UNK         0.0412 
    112 H112       23.0340  -31.3877  -44.9457 H         1 UNK         0.3472 
    113 H113       21.7045  -31.0889  -46.0355 H         1 UNK         0.3472 
    114 H114       20.0158  -31.8447  -41.9748 H         1 UNK         0.0970 
    115 H115       21.2715  -31.8783  -40.7842 H         1 UNK         0.0970 
    116 H116       18.0247  -29.8546  -39.4854 H         1 UNK         0.0612 
    117 H117       18.3119  -31.3726  -40.2908 H         1 UNK         0.0612 
@<TRIPOS>BOND
     1    1    2 1    
     2    1   62 1    
     3    1   63 1    
     4    1   64 1    
     5    2    3 2    
     6    2    4 am   BACKBONE|DICT|INTERRES
     7    4    5 1    
     8    4   65 1    
     9    5    6 1    
    10    5   25 1    
    11    5   66 1    
    12    6    7 1    
    13    6   67 1    
    14    6   68 1    
    15    7    8 1    
    16    8    9 1    
    17    8   69 1    
    18    8   70 1    
    19    9   10 ar   
    20    9   14 ar   
    21   10   11 ar   
    22   10   71 1    
    23   11   12 ar   
    24   11   61 1    
    25   12   13 ar   
    26   12   72 1    
    27   13   14 ar   
    28   13   15 1    
    29   14   73 1    
    30   15   16 1    
    31   15   74 1    
    32   15   75 1    
    33   16   17 1    
    34   17   18 1    
    35   17   76 1    
    36   17   77 1    
    37   18   19 1    
    38   18   27 1    
    39   18   78 1    
    40   19   20 am   BACKBONE|DICT|INTERRES
    41   19   79 1    
    42   20   21 2    
    43   20   22 1    
    44   22   23 1    
    45   22   24 1    
    46   22   80 1    
    47   23   81 1    
    48   23   82 1    
    49   23   83 1    
    50   24   25 am   BACKBONE|DICT|INTERRES
    51   24   84 1    
    52   25   26 2    
    53   27   28 2    
    54   27   29 am   BACKBONE|DICT|INTERRES
    55   29   30 1    
    56   29   85 1    
    57   30   31 1    
    58   30   32 1    
    59   30   86 1    
    60   31   87 1    
    61   31   88 1    
    62   31   89 1    
    63   32   33 2    
    64   32   34 am   BACKBONE|DICT|INTERRES
    65   34   35 1    
    66   34   90 1    
    67   35   36 1    
    68   35   37 1    
    69   35   91 1    
    70   36   92 1    
    71   36   93 1    
    72   36   94 1    
    73   37   38 2    
    74   37   39 am   BACKBONE|DICT|INTERRES
    75   39   40 1    
    76   39   95 1    
    77   40   41 1    
    78   40   42 1    
    79   40   96 1    
    80   41   97 1    
    81   41   98 1    
    82   41   99 1    
    83   42   43 2    
    84   42   44 am   BACKBONE|DICT|INTERRES
    85   44   45 1    
    86   44  100 1    
    87   45   46 1    
    88   45   47 1    
    89   45  101 1    
    90   46  102 1    
    91   46  103 1    
    92   46  104 1    
    93   47   48 2    
    94   47   49 am   BACKBONE|DICT|INTERRES
    95   49   50 1    
    96   49  105 1    
    97   50   51 1    
    98   50   52 1    
    99   50  106 1    
   100   51  107 1    
   101   51  108 1    
   102   51  109 1    
   103   52   53 2    
   104   52   54 am   BACKBONE|DICT|INTERRES
   105   54   55 1    
   106   54  110 1    
   107   55   56 1    
   108   55   59 1    
   109   55  111 1    
   110   56   57 am   BACKBONE|DICT|INTERRES
   111   56   58 2    
   112   57  112 1    
   113   57  113 1    
   114   59   60 1    
   115   59  114 1    
   116   59  115 1    
   117   60   61 1    
   118   61  116 1    
   119   61  117 1    
@<TRIPOS>SUBSTRUCTURE
     1 UNK         1 GROUP             0       ****    0 ROOT    
