@<TRIPOS>MOLECULE
3R8
117   119    1
SMALL
USER_CHARGES


@<TRIPOS>ATOM
      1 CA         18.2110  -28.2206  -42.2919 C.3       0 UNK        -0.2013 
      2 C          17.2383  -27.3645  -43.0841 C.2       0 UNK         0.4866 
      3 O          16.6896  -26.4074  -42.5390 O.2       0 UNK        -0.5176 
      4 N          17.0211  -27.6957  -44.3649 N.am      1 UNK        -0.4884 
      5 CA         16.1142  -26.9788  -45.2762 C.3       1 UNK         0.0853 
      6 C6         15.9137  -27.7306  -46.6135 C.3       10 UNK        -0.0849 
      7 S7         15.2499  -29.4125  -46.3765 S.3       10 UNK        -0.2776 
      8 C8         16.5891  -30.4429  -47.0566 C.3       10 UNK         0.0316 
      9 C9         17.7736  -30.5697  -46.1069 C.ar      10 UNK        -0.0863 
     10 C10        17.6743  -31.3893  -44.9793 C.ar      10 UNK        -0.1009 
     11 C11        18.7785  -31.5944  -44.1475 C.ar      10 UNK        -0.0712 
     12 C12        19.9877  -30.9544  -44.4399 C.ar      10 UNK        -0.0894 
     13 C13        20.0997  -30.1222  -45.5592 C.ar      10 UNK        -0.0745 
     14 C14        18.9872  -29.9330  -46.3879 C.ar      10 UNK        -0.0972 
     15 C15        21.4436  -29.5002  -45.9242 C.3       10 UNK         0.0209 
     16 S16        21.4024  -27.6803  -45.9590 S.3       10 UNK        -0.2568 
     17 C17        21.5816  -27.2806  -44.1904 C.3       10 UNK        -0.0983 
     18 CA         21.5103  -25.7569  -43.8981 C.3       3 UNK         0.0876 
     19 N          20.2474  -25.1790  -44.3502 N.am      3 UNK        -0.4424 
     20 C          20.0843  -24.3811  -45.4119 C.2       2 UNK         0.4918 
     21 O          21.0119  -23.9254  -46.0826 O.2       2 UNK        -0.4875 
     22 CA         18.6272  -24.1179  -45.8242 C.3       2 UNK         0.0481 
     23 CB         18.4905  -23.5295  -47.2429 C.3       2 UNK        -0.1831 
     24 N          17.8995  -25.3804  -45.7193 N.am      2 UNK        -0.4498 
     25 C          16.5836  -25.5344  -45.5451 C.2       1 UNK         0.5027 
     26 O          15.7684  -24.6110  -45.5617 O.2       1 UNK        -0.4969 
     27 C          21.6385  -25.4984  -42.3891 C.2       3 UNK         0.5005 
     28 O          20.6220  -25.4079  -41.6947 O.2       3 UNK        -0.5279 
     29 N          22.8796  -25.4204  -41.9025 N.am      4 UNK        -0.4463 
     30 CA         23.2306  -25.3008  -40.4917 C.3       4 UNK         0.0283 
     31 CB         23.1876  -23.8270  -40.0510 C.3       4 UNK        -0.1875 
     32 C          24.6312  -25.8903  -40.3138 C.2       4 UNK         0.4949 
     33 O          25.4471  -25.7860  -41.2342 O.2       4 UNK        -0.5039 
     34 N          24.8774  -26.5002  -39.1461 N.am      5 UNK        -0.4663 
     35 CA         26.0949  -27.2113  -38.7219 C.3       5 UNK         0.0242 
     36 CB         27.3145  -26.2691  -38.6598 C.3       5 UNK        -0.1982 
     37 C          26.3923  -28.4732  -39.5525 C.2       5 UNK         0.5017 
     38 O          26.4036  -29.5749  -39.0031 O.2       5 UNK        -0.5012 
     39 N          26.5888  -28.2979  -40.8631 N.am      6 UNK        -0.4439 
     40 CA         26.7675  -29.3534  -41.8574 C.3       6 UNK         0.0297 
     41 CB         27.6622  -28.8202  -42.9918 C.3       6 UNK        -0.2006 
     42 C          25.3970  -29.8419  -42.3603 C.2       6 UNK         0.4892 
     43 O          25.0749  -29.6821  -43.5391 O.2       6 UNK        -0.5089 
     44 N          24.6042  -30.4074  -41.4451 N.am      7 UNK        -0.4243 
     45 CA         23.2868  -30.9739  -41.7042 C.3       7 UNK         0.0196 
     46 CB         22.1993  -29.9454  -41.3419 C.3       7 UNK        -0.2007 
     47 C          23.1502  -32.2365  -40.8533 C.2       7 UNK         0.5020 
     48 O          23.3177  -32.1605  -39.6348 O.2       7 UNK        -0.5147 
     49 N          22.8193  -33.3679  -41.4898 N.am      8 UNK        -0.4734 
     50 CA         22.5974  -34.6585  -40.8199 C.3       8 UNK         0.0238 
     51 CB         22.4672  -35.7645  -41.8797 C.3       8 UNK        -0.1912 
     52 C          21.3718  -34.6610  -39.8870 C.2       8 UNK         0.5038 
     53 O          21.3394  -35.4277  -38.9242 O.2       8 UNK        -0.5046 
     54 N          20.4044  -33.7897  -40.1907 N.am      9 UNK        -0.4200 
     55 CA         19.2211  -33.4886  -39.3793 C.3       9 UNK         0.0839 
     56 C          19.4777  -32.4816  -38.2181 C.2       9 UNK         0.5513 
     57 N          20.6780  -31.9367  -38.0479 N.am      9 UNK        -0.7519 
     58 O          18.5692  -32.2032  -37.4397 O.2       9 UNK        -0.4960 
     59 C59        18.0231  -33.0793  -40.2783 C.3       10 UNK        -0.0876 
     60 S60        18.3707  -31.6798  -41.4053 S.3       10 UNK        -0.2414 
     61 C61        18.6738  -32.5541  -42.9712 C.3       10 UNK         0.0169 
     62 H62        17.6848  -28.7329  -41.4874 H         1 UNK         0.0903 
     63 H63        18.6928  -28.9704  -42.9161 H         1 UNK         0.0903 
     64 H64        18.9875  -27.6002  -41.8460 H         1 UNK         0.0903 
     65 H65        17.4583  -28.5242  -44.7480 H         1 UNK         0.3096 
     66 H66        15.1441  -26.9082  -44.7786 H         1 UNK         0.1121 
     67 H67        15.2101  -27.1895  -47.2497 H         1 UNK         0.0849 
     68 H68        16.8492  -27.7775  -47.1740 H         1 UNK         0.0849 
     69 H69        16.1908  -31.4388  -47.2567 H         1 UNK         0.0865 
     70 H70        16.9022  -30.0498  -48.0253 H         1 UNK         0.0865 
     71 H71        16.7408  -31.8932  -44.7670 H         1 UNK         0.1346 
     72 H72        20.8481  -31.1270  -43.8101 H         1 UNK         0.1412 
     73 H73        19.0814  -29.3147  -47.2706 H         1 UNK         0.1426 
     74 H74        21.7313  -29.8571  -46.9139 H         1 UNK         0.0716 
     75 H75        22.2307  -29.8296  -45.2433 H         1 UNK         0.0716 
     76 H76        22.5407  -27.6832  -43.8587 H         1 UNK         0.0695 
     77 H77        20.8095  -27.8201  -43.6399 H         1 UNK         0.0695 
     78 H78        22.3460  -25.2601  -44.3965 H         1 UNK         0.0983 
     79 H79        19.4485  -25.4051  -43.7739 H         1 UNK         0.3095 
     80 H80        18.2133  -23.4075  -45.1058 H         1 UNK         0.0454 
     81 H81        19.0221  -22.5808  -47.3259 H         1 UNK         0.0851 
     82 H82        17.4485  -23.3365  -47.4973 H         1 UNK         0.0851 
     83 H83        18.9007  -24.2025  -47.9966 H         1 UNK         0.0851 
     84 H84        18.4804  -26.2083  -45.6898 H         1 UNK         0.2976 
     85 H85        23.6801  -25.5373  -42.5134 H         1 UNK         0.3116 
     86 H86        22.5257  -25.8830  -39.8937 H         1 UNK         0.0646 
     87 H87        23.4647  -23.7240  -39.0011 H         1 UNK         0.0847 
     88 H88        22.1879  -23.4073  -40.1639 H         1 UNK         0.0847 
     89 H89        23.8764  -23.2130  -40.6328 H         1 UNK         0.0847 
     90 H90        24.1209  -26.5326  -38.4754 H         1 UNK         0.3040 
     91 H91        25.9009  -27.5526  -37.7032 H         1 UNK         0.1015 
     92 H92        28.1899  -26.7932  -38.2738 H         1 UNK         0.0786 
     93 H93        27.1262  -25.4241  -37.9974 H         1 UNK         0.0786 
     94 H94        27.5832  -25.8709  -39.6385 H         1 UNK         0.0786 
     95 H95        26.4413  -27.3548  -41.2174 H         1 UNK         0.3172 
     96 H96        27.2769  -30.2049  -41.4010 H         1 UNK         0.0595 
     97 H97        27.2146  -27.9586  -43.4893 H         1 UNK         0.0839 
     98 H98        27.8289  -29.5859  -43.7506 H         1 UNK         0.0839 
     99 H99        28.6402  -28.5188  -42.6164 H         1 UNK         0.0839 
    100 H100       24.9481  -30.5158  -40.4967 H         1 UNK         0.2998 
    101 H101       23.1925  -31.2399  -42.7594 H         1 UNK         0.0822 
    102 H102       22.3022  -29.0362  -41.9315 H         1 UNK         0.0787 
    103 H103       22.2475  -29.6612  -40.2897 H         1 UNK         0.0787 
    104 H104       21.2006  -30.3430  -41.5242 H         1 UNK         0.0787 
    105 H105       22.7212  -33.3573  -42.4954 H         1 UNK         0.3055 
    106 H106       23.4725  -34.8732  -40.2019 H         1 UNK         0.1106 
    107 H107       21.6162  -35.5950  -42.5406 H         1 UNK         0.0828 
    108 H108       23.3641  -35.8330  -42.4955 H         1 UNK         0.0828 
    109 H109       22.3251  -36.7392  -41.4105 H         1 UNK         0.0828 
    110 H110       20.5430  -33.1878  -40.9870 H         1 UNK         0.2931 
    111 H111       18.9272  -34.4150  -38.8821 H         1 UNK         0.0412 
    112 H112       21.4548  -32.1629  -38.6561 H         1 UNK         0.3472 
    113 H113       20.8163  -31.2950  -37.2836 H         1 UNK         0.3472 
    114 H114       17.7047  -33.9414  -40.8659 H         1 UNK         0.0970 
    115 H115       17.1558  -32.8207  -39.6680 H         1 UNK         0.0970 
    116 H116       17.8673  -33.2676  -43.1475 H         1 UNK         0.0612 
    117 H117       19.5895  -33.1412  -42.8925 H         1 UNK         0.0612 
@<TRIPOS>BOND
     1    1    2 1    
     2    1   62 1    
     3    1   63 1    
     4    1   64 1    
     5    2    3 2    
     6    2    4 am   BACKBONE|DICT|INTERRES
     7    4    5 1    
     8    4   65 1    
     9    5    6 1    
    10    5   25 1    
    11    5   66 1    
    12    6    7 1    
    13    6   67 1    
    14    6   68 1    
    15    7    8 1    
    16    8    9 1    
    17    8   69 1    
    18    8   70 1    
    19    9   10 ar   
    20    9   14 ar   
    21   10   11 ar   
    22   10   71 1    
    23   11   12 ar   
    24   11   61 1    
    25   12   13 ar   
    26   12   72 1    
    27   13   14 ar   
    28   13   15 1    
    29   14   73 1    
    30   15   16 1    
    31   15   74 1    
    32   15   75 1    
    33   16   17 1    
    34   17   18 1    
    35   17   76 1    
    36   17   77 1    
    37   18   19 1    
    38   18   27 1    
    39   18   78 1    
    40   19   20 am   BACKBONE|DICT|INTERRES
    41   19   79 1    
    42   20   21 2    
    43   20   22 1    
    44   22   23 1    
    45   22   24 1    
    46   22   80 1    
    47   23   81 1    
    48   23   82 1    
    49   23   83 1    
    50   24   25 am   BACKBONE|DICT|INTERRES
    51   24   84 1    
    52   25   26 2    
    53   27   28 2    
    54   27   29 am   BACKBONE|DICT|INTERRES
    55   29   30 1    
    56   29   85 1    
    57   30   31 1    
    58   30   32 1    
    59   30   86 1    
    60   31   87 1    
    61   31   88 1    
    62   31   89 1    
    63   32   33 2    
    64   32   34 am   BACKBONE|DICT|INTERRES
    65   34   35 1    
    66   34   90 1    
    67   35   36 1    
    68   35   37 1    
    69   35   91 1    
    70   36   92 1    
    71   36   93 1    
    72   36   94 1    
    73   37   38 2    
    74   37   39 am   BACKBONE|DICT|INTERRES
    75   39   40 1    
    76   39   95 1    
    77   40   41 1    
    78   40   42 1    
    79   40   96 1    
    80   41   97 1    
    81   41   98 1    
    82   41   99 1    
    83   42   43 2    
    84   42   44 am   BACKBONE|DICT|INTERRES
    85   44   45 1    
    86   44  100 1    
    87   45   46 1    
    88   45   47 1    
    89   45  101 1    
    90   46  102 1    
    91   46  103 1    
    92   46  104 1    
    93   47   48 2    
    94   47   49 am   BACKBONE|DICT|INTERRES
    95   49   50 1    
    96   49  105 1    
    97   50   51 1    
    98   50   52 1    
    99   50  106 1    
   100   51  107 1    
   101   51  108 1    
   102   51  109 1    
   103   52   53 2    
   104   52   54 am   BACKBONE|DICT|INTERRES
   105   54   55 1    
   106   54  110 1    
   107   55   56 1    
   108   55   59 1    
   109   55  111 1    
   110   56   57 am   BACKBONE|DICT|INTERRES
   111   56   58 2    
   112   57  112 1    
   113   57  113 1    
   114   59   60 1    
   115   59  114 1    
   116   59  115 1    
   117   60   61 1    
   118   61  116 1    
   119   61  117 1    
@<TRIPOS>SUBSTRUCTURE
     1 UNK         1 GROUP             0       ****    0 ROOT    
