@<TRIPOS>MOLECULE
3R8
117   119    1
SMALL
USER_CHARGES


@<TRIPOS>ATOM
      1 CA         13.0600  -26.4189  -46.0622 C.3       0 UNK        -0.2013 
      2 C          14.1504  -27.4097  -46.4420 C.2       0 UNK         0.4866 
      3 O          14.1609  -27.9083  -47.5684 O.2       0 UNK        -0.5176 
      4 N          15.0622  -27.7048  -45.5085 N.am      1 UNK        -0.4884 
      5 CA         16.2114  -28.5924  -45.7155 C.3       1 UNK         0.0853 
      6 C6         16.8259  -29.0890  -44.3786 C.3       10 UNK        -0.0849 
      7 S7         15.6331  -29.7533  -43.1602 S.3       10 UNK        -0.2776 
      8 C8         15.4589  -28.3971  -41.9412 C.3       10 UNK         0.0316 
      9 C9         16.7961  -27.7962  -41.5241 C.ar      10 UNK        -0.0863 
     10 C10        17.7334  -28.5676  -40.8316 C.ar      10 UNK        -0.1009 
     11 C11        18.9981  -28.0485  -40.5394 C.ar      10 UNK        -0.0712 
     12 C12        19.3147  -26.7403  -40.9148 C.ar      10 UNK        -0.0894 
     13 C13        18.3851  -25.9610  -41.6061 C.ar      10 UNK        -0.0745 
     14 C14        17.1231  -26.4878  -41.8957 C.ar      10 UNK        -0.0972 
     15 C15        18.7502  -24.5635  -42.0769 C.3       10 UNK         0.0209 
     16 S16        19.2252  -24.5680  -43.8349 S.3       10 UNK        -0.2568 
     17 C17        20.9593  -25.1406  -43.7842 C.3       10 UNK        -0.0983 
     18 CA         21.1633  -26.6095  -44.2449 C.3       3 UNK         0.0876 
     19 N          20.5297  -26.8865  -45.5375 N.am      3 UNK        -0.4424 
     20 C          20.4171  -28.0994  -46.0909 C.2       2 UNK         0.4918 
     21 O          20.8410  -29.1347  -45.5740 O.2       2 UNK        -0.4875 
     22 CA         19.6043  -28.1944  -47.3926 C.3       2 UNK         0.0481 
     23 CB         20.2463  -29.1681  -48.3959 C.3       2 UNK        -0.1831 
     24 N          18.2665  -28.6684  -47.0416 N.am      2 UNK        -0.4498 
     25 C          17.3191  -27.8790  -46.5193 C.2       1 UNK         0.5027 
     26 O          17.3630  -26.6459  -46.5611 O.2       1 UNK        -0.4969 
     27 C          22.6692  -26.9445  -44.2966 C.2       3 UNK         0.5005 
     28 O          23.3941  -26.3230  -45.0777 O.2       3 UNK        -0.5279 
     29 N          23.1118  -27.9077  -43.4769 N.am      4 UNK        -0.4463 
     30 CA         24.5209  -28.2757  -43.3172 C.3       4 UNK         0.0283 
     31 CB         24.6664  -29.6112  -42.5689 C.3       4 UNK        -0.1875 
     32 C          25.4141  -27.1677  -42.7148 C.2       4 UNK         0.4949 
     33 O          26.4691  -26.9109  -43.2896 O.2       4 UNK        -0.5039 
     34 N          25.0641  -26.4863  -41.6089 N.am      5 UNK        -0.4663 
     35 CA         23.9655  -26.7031  -40.6550 C.3       5 UNK         0.0242 
     36 CB         23.4958  -25.3334  -40.1359 C.3       5 UNK        -0.1982 
     37 C          24.3569  -27.6284  -39.4861 C.2       5 UNK         0.5017 
     38 O          23.5630  -27.7959  -38.5593 O.2       5 UNK        -0.5012 
     39 N          25.5612  -28.2148  -39.5386 N.am      6 UNK        -0.4439 
     40 CA         26.1283  -29.1327  -38.5474 C.3       6 UNK         0.0297 
     41 CB         27.6489  -29.2235  -38.7761 C.3       6 UNK        -0.2006 
     42 C          25.4515  -30.5206  -38.5443 C.2       6 UNK         0.4892 
     43 O          26.0942  -31.5205  -38.8694 O.2       6 UNK        -0.5089 
     44 N          24.1648  -30.5475  -38.1731 N.am      7 UNK        -0.4243 
     45 CA         23.2784  -31.6943  -37.9204 C.3       7 UNK         0.0196 
     46 CB         23.8104  -32.5588  -36.7612 C.3       7 UNK        -0.2007 
     47 C          22.9356  -32.5727  -39.1372 C.2       7 UNK         0.5020 
     48 O          21.7802  -32.9759  -39.2716 O.2       7 UNK        -0.5147 
     49 N          23.9099  -32.8556  -40.0093 N.am      8 UNK        -0.4734 
     50 CA         23.7930  -33.7074  -41.2022 C.3       8 UNK         0.0238 
     51 CB         25.1979  -34.2122  -41.5815 C.3       8 UNK        -0.1912 
     52 C          23.0775  -33.0131  -42.3822 C.2       8 UNK         0.5038 
     53 O          23.5405  -33.0938  -43.5216 O.2       8 UNK        -0.5046 
     54 N          21.9849  -32.3101  -42.0772 N.am      9 UNK        -0.4200 
     55 CA         21.1852  -31.4972  -42.9983 C.3       9 UNK         0.0839 
     56 C          20.3342  -32.3521  -43.9736 C.2       9 UNK         0.5513 
     57 N          20.0080  -31.8081  -45.1366 N.am      9 UNK        -0.7519 
     58 O          19.9386  -33.4776  -43.6753 O.2       9 UNK        -0.4960 
     59 C59        20.3034  -30.4902  -42.2177 C.3       10 UNK        -0.0876 
     60 S60        21.2934  -29.4446  -41.0935 S.3       10 UNK        -0.2414 
     61 C61        20.0504  -28.9196  -39.8776 C.3       10 UNK         0.0169 
     62 H62        12.0791  -26.8816  -46.1674 H         1 UNK         0.0903 
     63 H63        13.1627  -26.0729  -45.0338 H         1 UNK         0.0903 
     64 H64        13.0991  -25.5494  -46.7178 H         1 UNK         0.0903 
     65 H65        15.0227  -27.2492  -44.6097 H         1 UNK         0.3096 
     66 H66        15.8734  -29.4593  -46.2882 H         1 UNK         0.1121 
     67 H67        17.4302  -28.3043  -43.9252 H         1 UNK         0.0849 
     68 H68        17.5342  -29.8950  -44.5809 H         1 UNK         0.0849 
     69 H69        14.8042  -27.6302  -42.3570 H         1 UNK         0.0865 
     70 H70        14.9479  -28.7809  -41.0571 H         1 UNK         0.0865 
     71 H71        17.4928  -29.5877  -40.5647 H         1 UNK         0.1346 
     72 H72        20.2985  -26.3455  -40.7011 H         1 UNK         0.1412 
     73 H73        16.4132  -25.8885  -42.4495 H         1 UNK         0.1426 
     74 H74        19.5517  -24.1394  -41.4700 H         1 UNK         0.0716 
     75 H75        17.8914  -23.9031  -41.9482 H         1 UNK         0.0716 
     76 H76        21.5300  -24.4604  -44.4198 H         1 UNK         0.0695 
     77 H77        21.3543  -25.0047  -42.7760 H         1 UNK         0.0695 
     78 H78        20.6836  -27.2591  -43.5093 H         1 UNK         0.0983 
     79 H79        20.1041  -26.0947  -45.9979 H         1 UNK         0.3095 
     80 H80        19.5469  -27.2096  -47.8615 H         1 UNK         0.0454 
     81 H81        21.2565  -28.8479  -48.6541 H         1 UNK         0.0851 
     82 H82        20.3187  -30.1811  -47.9981 H         1 UNK         0.0851 
     83 H83        19.6744  -29.2139  -49.3227 H         1 UNK         0.0851 
     84 H84        18.1647  -29.6695  -46.9543 H         1 UNK         0.2976 
     85 H85        22.4479  -28.4006  -42.8942 H         1 UNK         0.3116 
     86 H86        24.9039  -28.4529  -44.3249 H         1 UNK         0.0646 
     87 H87        25.7146  -29.8462  -42.3796 H         1 UNK         0.0847 
     88 H88        24.2642  -30.4283  -43.1653 H         1 UNK         0.0847 
     89 H89        24.1529  -29.6177  -41.6097 H         1 UNK         0.0847 
     90 H90        25.6995  -25.7515  -41.3310 H         1 UNK         0.3040 
     91 H91        23.1081  -27.1661  -41.1310 H         1 UNK         0.1015 
     92 H92        23.1837  -24.6849  -40.9548 H         1 UNK         0.0786 
     93 H93        24.2822  -24.8191  -39.5819 H         1 UNK         0.0786 
     94 H94        22.6405  -25.4373  -39.4665 H         1 UNK         0.0786 
     95 H95        26.1411  -28.0101  -40.3391 H         1 UNK         0.3172 
     96 H96        25.9714  -28.7003  -37.5569 H         1 UNK         0.0595 
     97 H97        28.1240  -28.2462  -38.6894 H         1 UNK         0.0839 
     98 H98        27.8873  -29.6278  -39.7608 H         1 UNK         0.0839 
     99 H99        28.1169  -29.8740  -38.0357 H         1 UNK         0.0839 
    100 H100       23.7334  -29.6361  -38.0371 H         1 UNK         0.2998 
    101 H101       22.3350  -31.2553  -37.5908 H         1 UNK         0.0822 
    102 H102       23.9575  -31.9651  -35.8590 H         1 UNK         0.0787 
    103 H103       23.1065  -33.3546  -36.5137 H         1 UNK         0.0787 
    104 H104       24.7605  -33.0330  -37.0096 H         1 UNK         0.0787 
    105 H105       24.8287  -32.4665  -39.8058 H         1 UNK         0.3055 
    106 H106       23.1861  -34.5777  -40.9425 H         1 UNK         0.1106 
    107 H107       25.1540  -34.9078  -42.4207 H         1 UNK         0.0828 
    108 H108       25.8545  -33.3904  -41.8704 H         1 UNK         0.0828 
    109 H109       25.6675  -34.7405  -40.7517 H         1 UNK         0.0828 
    110 H110       21.6679  -32.3389  -41.1143 H         1 UNK         0.2931 
    111 H111       21.8872  -30.9212  -43.6047 H         1 UNK         0.0412 
    112 H112       19.4562  -32.3369  -45.7926 H         1 UNK         0.3472 
    113 H113       20.3391  -30.8750  -45.3722 H         1 UNK         0.3472 
    114 H114       19.5451  -31.0202  -41.6382 H         1 UNK         0.0970 
    115 H115       19.7640  -29.8365  -42.9062 H         1 UNK         0.0970 
    116 H116       19.6022  -29.7969  -39.4087 H         1 UNK         0.0612 
    117 H117       20.5457  -28.3594  -39.0830 H         1 UNK         0.0612 
@<TRIPOS>BOND
     1    1    2 1    
     2    1   62 1    
     3    1   63 1    
     4    1   64 1    
     5    2    3 2    
     6    2    4 am   BACKBONE|DICT|INTERRES
     7    4    5 1    
     8    4   65 1    
     9    5    6 1    
    10    5   25 1    
    11    5   66 1    
    12    6    7 1    
    13    6   67 1    
    14    6   68 1    
    15    7    8 1    
    16    8    9 1    
    17    8   69 1    
    18    8   70 1    
    19    9   10 ar   
    20    9   14 ar   
    21   10   11 ar   
    22   10   71 1    
    23   11   12 ar   
    24   11   61 1    
    25   12   13 ar   
    26   12   72 1    
    27   13   14 ar   
    28   13   15 1    
    29   14   73 1    
    30   15   16 1    
    31   15   74 1    
    32   15   75 1    
    33   16   17 1    
    34   17   18 1    
    35   17   76 1    
    36   17   77 1    
    37   18   19 1    
    38   18   27 1    
    39   18   78 1    
    40   19   20 am   BACKBONE|DICT|INTERRES
    41   19   79 1    
    42   20   21 2    
    43   20   22 1    
    44   22   23 1    
    45   22   24 1    
    46   22   80 1    
    47   23   81 1    
    48   23   82 1    
    49   23   83 1    
    50   24   25 am   BACKBONE|DICT|INTERRES
    51   24   84 1    
    52   25   26 2    
    53   27   28 2    
    54   27   29 am   BACKBONE|DICT|INTERRES
    55   29   30 1    
    56   29   85 1    
    57   30   31 1    
    58   30   32 1    
    59   30   86 1    
    60   31   87 1    
    61   31   88 1    
    62   31   89 1    
    63   32   33 2    
    64   32   34 am   BACKBONE|DICT|INTERRES
    65   34   35 1    
    66   34   90 1    
    67   35   36 1    
    68   35   37 1    
    69   35   91 1    
    70   36   92 1    
    71   36   93 1    
    72   36   94 1    
    73   37   38 2    
    74   37   39 am   BACKBONE|DICT|INTERRES
    75   39   40 1    
    76   39   95 1    
    77   40   41 1    
    78   40   42 1    
    79   40   96 1    
    80   41   97 1    
    81   41   98 1    
    82   41   99 1    
    83   42   43 2    
    84   42   44 am   BACKBONE|DICT|INTERRES
    85   44   45 1    
    86   44  100 1    
    87   45   46 1    
    88   45   47 1    
    89   45  101 1    
    90   46  102 1    
    91   46  103 1    
    92   46  104 1    
    93   47   48 2    
    94   47   49 am   BACKBONE|DICT|INTERRES
    95   49   50 1    
    96   49  105 1    
    97   50   51 1    
    98   50   52 1    
    99   50  106 1    
   100   51  107 1    
   101   51  108 1    
   102   51  109 1    
   103   52   53 2    
   104   52   54 am   BACKBONE|DICT|INTERRES
   105   54   55 1    
   106   54  110 1    
   107   55   56 1    
   108   55   59 1    
   109   55  111 1    
   110   56   57 am   BACKBONE|DICT|INTERRES
   111   56   58 2    
   112   57  112 1    
   113   57  113 1    
   114   59   60 1    
   115   59  114 1    
   116   59  115 1    
   117   60   61 1    
   118   61  116 1    
   119   61  117 1    
@<TRIPOS>SUBSTRUCTURE
     1 UNK         1 GROUP             0       ****    0 ROOT    
