@<TRIPOS>MOLECULE
3R8
117   119    1
SMALL
USER_CHARGES


@<TRIPOS>ATOM
      1 CA         15.0125  -25.1316  -43.6729 C.3       0 UNK        -0.2013 
      2 C          14.5057  -24.8786  -45.0912 C.2       0 UNK         0.4866 
      3 O          13.3819  -24.3999  -45.2343 O.2       0 UNK        -0.5176 
      4 N          15.2424  -25.1772  -46.1735 N.am      1 UNK        -0.4884 
      5 CA         16.6129  -25.7015  -46.3054 C.3       1 UNK         0.0853 
      6 C6         16.8879  -27.0310  -45.5464 C.3       10 UNK        -0.0849 
      7 S7         15.7559  -28.4035  -45.9604 S.3       10 UNK        -0.2776 
      8 C8         15.3879  -29.1522  -44.3315 C.3       10 UNK         0.0316 
      9 C9         16.6348  -29.3618  -43.4786 C.ar      10 UNK        -0.0863 
     10 C10        17.5443  -30.3806  -43.7773 C.ar      10 UNK        -0.1009 
     11 C11        18.7135  -30.5335  -43.0229 C.ar      10 UNK        -0.0712 
     12 C12        18.9696  -29.6598  -41.9610 C.ar      10 UNK        -0.0894 
     13 C13        18.0805  -28.6188  -41.6746 C.ar      10 UNK        -0.0745 
     14 C14        16.8999  -28.5008  -42.4105 C.ar      10 UNK        -0.0972 
     15 C15        18.4132  -27.5671  -40.6273 C.3       10 UNK         0.0209 
     16 S16        18.8894  -25.9903  -41.4208 S.3       10 UNK        -0.2568 
     17 C17        20.6187  -26.3182  -41.8951 C.3       10 UNK        -0.0983 
     18 CA         20.7630  -26.9337  -43.3137 C.3       3 UNK         0.0876 
     19 N          20.3367  -26.0558  -44.4112 N.am      3 UNK        -0.4424 
     20 C          20.8159  -24.8654  -44.7964 C.2       2 UNK         0.4918 
     21 O          21.7772  -24.3125  -44.2625 O.2       2 UNK        -0.4875 
     22 CA         20.1474  -24.2091  -46.0236 C.3       2 UNK         0.0481 
     23 CB         21.1284  -24.1753  -47.2078 C.3       2 UNK        -0.1831 
     24 N          18.9264  -24.9149  -46.4374 N.am      2 UNK        -0.4498 
     25 C          17.6979  -24.6523  -45.9677 C.2       1 UNK         0.5027 
     26 O          17.4348  -23.6707  -45.2700 O.2       1 UNK        -0.4969 
     27 C          22.1550  -27.5731  -43.4856 C.2       3 UNK         0.5005 
     28 O          22.3497  -28.6780  -42.9788 O.2       3 UNK        -0.5279 
     29 N          23.0985  -26.8895  -44.1513 N.am      4 UNK        -0.4463 
     30 CA         24.4939  -27.3002  -44.3732 C.3       4 UNK         0.0283 
     31 CB         24.5619  -28.4838  -45.3608 C.3       4 UNK        -0.1875 
     32 C          25.2267  -27.5790  -43.0451 C.2       4 UNK         0.4949 
     33 O          25.7963  -28.6547  -42.8567 O.2       4 UNK        -0.5039 
     34 N          25.1253  -26.6060  -42.1261 N.am      5 UNK        -0.4663 
     35 CA         25.5985  -26.6300  -40.7333 C.3       5 UNK         0.0242 
     36 CB         27.1298  -26.8165  -40.6617 C.3       5 UNK        -0.1982 
     37 C          24.8420  -27.6254  -39.8281 C.2       5 UNK         0.5017 
     38 O          25.3323  -27.9459  -38.7452 O.2       5 UNK        -0.5012 
     39 N          23.6712  -28.1037  -40.2784 N.am      6 UNK        -0.4439 
     40 CA         22.7218  -29.0216  -39.6290 C.3       6 UNK         0.0297 
     41 CB         22.2118  -28.4626  -38.2876 C.3       6 UNK        -0.2006 
     42 C          23.2147  -30.4714  -39.4828 C.2       6 UNK         0.4892 
     43 O          22.3903  -31.3844  -39.5366 O.2       6 UNK        -0.5089 
     44 N          24.5338  -30.6674  -39.3494 N.am      7 UNK        -0.4243 
     45 CA         25.2277  -31.9548  -39.2350 C.3       7 UNK         0.0196 
     46 CB         26.7364  -31.6976  -39.0963 C.3       7 UNK        -0.2007 
     47 C          24.9547  -32.9317  -40.3924 C.2       7 UNK         0.5020 
     48 O          25.0119  -34.1429  -40.1802 O.2       7 UNK        -0.5147 
     49 N          24.6038  -32.3999  -41.5724 N.am      8 UNK        -0.4734 
     50 CA         24.1372  -33.1523  -42.7420 C.3       8 UNK         0.0238 
     51 CB         23.9283  -32.1727  -43.9083 C.3       8 UNK        -0.1912 
     52 C          22.8547  -33.9745  -42.4957 C.2       8 UNK         0.5038 
     53 O          22.6387  -34.9614  -43.2003 O.2       8 UNK        -0.5046 
     54 N          22.0516  -33.5685  -41.5041 N.am      9 UNK        -0.4200 
     55 CA         20.8531  -34.2666  -41.0185 C.3       9 UNK         0.0839 
     56 C          21.0149  -34.7512  -39.5473 C.2       9 UNK         0.5513 
     57 N          22.2226  -34.8301  -38.9986 N.am      9 UNK        -0.7519 
     58 O          20.0325  -35.0920  -38.8930 O.2       9 UNK        -0.4960 
     59 C59        19.5761  -33.4083  -41.2356 C.3       10 UNK        -0.0876 
     60 S60        19.1517  -33.2727  -43.0049 S.3       10 UNK        -0.2414 
     61 C61        19.7312  -31.5973  -43.4063 C.3       10 UNK         0.0169 
     62 H62        16.0786  -24.9534  -43.5580 H         1 UNK         0.0903 
     63 H63        14.5048  -24.4687  -42.9726 H         1 UNK         0.0903 
     64 H64        14.7912  -26.1545  -43.3756 H         1 UNK         0.0903 
     65 H65        14.8175  -24.9675  -47.0661 H         1 UNK         0.3096 
     66 H66        16.7224  -25.9107  -47.3713 H         1 UNK         0.1121 
     67 H67        16.8915  -26.8570  -44.4743 H         1 UNK         0.0849 
     68 H68        17.8878  -27.4011  -45.7771 H         1 UNK         0.0849 
     69 H69        14.6648  -28.5261  -43.8076 H         1 UNK         0.0865 
     70 H70        14.8927  -30.1115  -44.4886 H         1 UNK         0.0865 
     71 H71        17.3544  -31.0408  -44.6128 H         1 UNK         0.1346 
     72 H72        19.8888  -29.7541  -41.4000 H         1 UNK         0.1412 
     73 H73        16.2164  -27.6942  -42.1844 H         1 UNK         0.1426 
     74 H74        19.2054  -27.9094  -39.9595 H         1 UNK         0.0716 
     75 H75        17.5375  -27.3954  -39.9998 H         1 UNK         0.0716 
     76 H76        21.0488  -26.9712  -41.1349 H         1 UNK         0.0695 
     77 H77        21.1760  -25.3829  -41.8258 H         1 UNK         0.0695 
     78 H78        20.0765  -27.7736  -43.3850 H         1 UNK         0.0983 
     79 H79        19.5690  -26.4202  -44.9507 H         1 UNK         0.3095 
     80 H80        19.9068  -23.1785  -45.7547 H         1 UNK         0.0454 
     81 H81        21.4349  -25.1770  -47.5119 H         1 UNK         0.0851 
     82 H82        22.0332  -23.6223  -46.9510 H         1 UNK         0.0851 
     83 H83        20.6871  -23.6817  -48.0738 H         1 UNK         0.0851 
     84 H84        19.0557  -25.7002  -47.0610 H         1 UNK         0.2976 
     85 H85        22.8505  -25.9525  -44.4555 H         1 UNK         0.3116 
     86 H86        25.0026  -26.4534  -44.8365 H         1 UNK         0.0646 
     87 H87        24.0845  -28.2367  -46.3088 H         1 UNK         0.0847 
     88 H88        25.5962  -28.7525  -45.5789 H         1 UNK         0.0847 
     89 H89        24.0729  -29.3725  -44.9625 H         1 UNK         0.0847 
     90 H90        24.6237  -25.7692  -42.3938 H         1 UNK         0.3040 
     91 H91        25.3745  -25.6427  -40.3258 H         1 UNK         0.1015 
     92 H92        27.4329  -27.8213  -40.9573 H         1 UNK         0.0786 
     93 H93        27.4965  -26.6560  -39.6470 H         1 UNK         0.0786 
     94 H94        27.6474  -26.1058  -41.3060 H         1 UNK         0.0786 
     95 H95        23.4302  -27.8763  -41.2351 H         1 UNK         0.3172 
     96 H96        21.8656  -29.0692  -40.3015 H         1 UNK         0.0595 
     97 H97        23.0036  -28.4039  -37.5404 H         1 UNK         0.0839 
     98 H98        21.4278  -29.0998  -37.8761 H         1 UNK         0.0839 
     99 H99        21.7878  -27.4658  -38.4086 H         1 UNK         0.0839 
    100 H100       25.1051  -29.8336  -39.2609 H         1 UNK         0.2998 
    101 H101       24.8719  -32.4323  -38.3198 H         1 UNK         0.0822 
    102 H102       27.2847  -32.6342  -38.9831 H         1 UNK         0.0787 
    103 H103       27.1393  -31.1861  -39.9716 H         1 UNK         0.0787 
    104 H104       26.9564  -31.0870  -38.2202 H         1 UNK         0.0787 
    105 H105       24.5924  -31.3921  -41.6496 H         1 UNK         0.3055 
    106 H106       24.9235  -33.8587  -43.0168 H         1 UNK         0.1106 
    107 H107       23.5926  -32.6954  -44.8050 H         1 UNK         0.0828 
    108 H108       23.1780  -31.4170  -43.6706 H         1 UNK         0.0828 
    109 H109       24.8544  -31.6566  -44.1628 H         1 UNK         0.0828 
    110 H110       22.3245  -32.7634  -40.9479 H         1 UNK         0.2931 
    111 H111       20.7215  -35.1913  -41.5829 H         1 UNK         0.0412 
    112 H112       22.3076  -35.1543  -38.0483 H         1 UNK         0.3472 
    113 H113       23.0535  -34.5963  -39.5270 H         1 UNK         0.3472 
    114 H114       18.7132  -33.8602  -40.7435 H         1 UNK         0.0970 
    115 H115       19.6918  -32.4185  -40.7906 H         1 UNK         0.0970 
    116 H116       20.6934  -31.4125  -42.9259 H         1 UNK         0.0612 
    117 H117       19.9147  -31.5410  -44.4801 H         1 UNK         0.0612 
@<TRIPOS>BOND
     1    1    2 1    
     2    1   62 1    
     3    1   63 1    
     4    1   64 1    
     5    2    3 2    
     6    2    4 am   BACKBONE|DICT|INTERRES
     7    4    5 1    
     8    4   65 1    
     9    5    6 1    
    10    5   25 1    
    11    5   66 1    
    12    6    7 1    
    13    6   67 1    
    14    6   68 1    
    15    7    8 1    
    16    8    9 1    
    17    8   69 1    
    18    8   70 1    
    19    9   10 ar   
    20    9   14 ar   
    21   10   11 ar   
    22   10   71 1    
    23   11   12 ar   
    24   11   61 1    
    25   12   13 ar   
    26   12   72 1    
    27   13   14 ar   
    28   13   15 1    
    29   14   73 1    
    30   15   16 1    
    31   15   74 1    
    32   15   75 1    
    33   16   17 1    
    34   17   18 1    
    35   17   76 1    
    36   17   77 1    
    37   18   19 1    
    38   18   27 1    
    39   18   78 1    
    40   19   20 am   BACKBONE|DICT|INTERRES
    41   19   79 1    
    42   20   21 2    
    43   20   22 1    
    44   22   23 1    
    45   22   24 1    
    46   22   80 1    
    47   23   81 1    
    48   23   82 1    
    49   23   83 1    
    50   24   25 am   BACKBONE|DICT|INTERRES
    51   24   84 1    
    52   25   26 2    
    53   27   28 2    
    54   27   29 am   BACKBONE|DICT|INTERRES
    55   29   30 1    
    56   29   85 1    
    57   30   31 1    
    58   30   32 1    
    59   30   86 1    
    60   31   87 1    
    61   31   88 1    
    62   31   89 1    
    63   32   33 2    
    64   32   34 am   BACKBONE|DICT|INTERRES
    65   34   35 1    
    66   34   90 1    
    67   35   36 1    
    68   35   37 1    
    69   35   91 1    
    70   36   92 1    
    71   36   93 1    
    72   36   94 1    
    73   37   38 2    
    74   37   39 am   BACKBONE|DICT|INTERRES
    75   39   40 1    
    76   39   95 1    
    77   40   41 1    
    78   40   42 1    
    79   40   96 1    
    80   41   97 1    
    81   41   98 1    
    82   41   99 1    
    83   42   43 2    
    84   42   44 am   BACKBONE|DICT|INTERRES
    85   44   45 1    
    86   44  100 1    
    87   45   46 1    
    88   45   47 1    
    89   45  101 1    
    90   46  102 1    
    91   46  103 1    
    92   46  104 1    
    93   47   48 2    
    94   47   49 am   BACKBONE|DICT|INTERRES
    95   49   50 1    
    96   49  105 1    
    97   50   51 1    
    98   50   52 1    
    99   50  106 1    
   100   51  107 1    
   101   51  108 1    
   102   51  109 1    
   103   52   53 2    
   104   52   54 am   BACKBONE|DICT|INTERRES
   105   54   55 1    
   106   54  110 1    
   107   55   56 1    
   108   55   59 1    
   109   55  111 1    
   110   56   57 am   BACKBONE|DICT|INTERRES
   111   56   58 2    
   112   57  112 1    
   113   57  113 1    
   114   59   60 1    
   115   59  114 1    
   116   59  115 1    
   117   60   61 1    
   118   61  116 1    
   119   61  117 1    
@<TRIPOS>SUBSTRUCTURE
     1 UNK         1 GROUP             0       ****    0 ROOT    
