@<TRIPOS>MOLECULE
3R8
117   119    1
SMALL
USER_CHARGES


@<TRIPOS>ATOM
      1 CA         16.1655  -23.5517  -47.8554 C.3       0 UNK        -0.2013 
      2 C          17.0872  -24.5311  -47.1440 C.2       0 UNK         0.4866 
      3 O          16.9689  -24.7069  -45.9305 O.2       0 UNK        -0.5176 
      4 N          17.9983  -25.1705  -47.8926 N.am      1 UNK        -0.4884 
      5 CA         19.0103  -26.1171  -47.4028 C.3       1 UNK         0.0853 
      6 C6         18.3679  -27.3849  -46.7646 C.3       10 UNK        -0.0849 
      7 S7         19.4229  -28.8683  -46.8884 S.3       10 UNK        -0.2776 
      8 C8         18.2593  -30.1676  -46.3645 C.3       10 UNK         0.0316 
      9 C9         18.0650  -30.1732  -44.8552 C.ar      10 UNK        -0.0863 
     10 C10        18.9026  -30.9455  -44.0461 C.ar      10 UNK        -0.1009 
     11 C11        18.7386  -30.9575  -42.6587 C.ar      10 UNK        -0.0712 
     12 C12        17.7081  -30.2103  -42.0825 C.ar      10 UNK        -0.0894 
     13 C13        16.8678  -29.4248  -42.8792 C.ar      10 UNK        -0.0745 
     14 C14        17.0478  -29.4161  -44.2660 C.ar      10 UNK        -0.0972 
     15 C15        15.7627  -28.5881  -42.2463 C.3       10 UNK         0.0209 
     16 S16        16.3829  -27.4567  -40.9573 S.3       10 UNK        -0.2568 
     17 C17        17.5071  -26.3661  -41.8971 C.3       10 UNK        -0.0983 
     18 CA         19.0078  -26.7516  -41.7895 C.3       3 UNK         0.0876 
     19 N          19.7711  -26.1039  -42.8624 N.am      3 UNK        -0.4424 
     20 C          21.0630  -26.2913  -43.1681 C.2       2 UNK         0.4918 
     21 O          21.8480  -26.9602  -42.4935 O.2       2 UNK        -0.4875 
     22 CA         21.5066  -25.6474  -44.4912 C.3       2 UNK         0.0481 
     23 CB         22.9720  -25.9198  -44.8772 C.3       2 UNK        -0.1831 
     24 N          20.6203  -26.1439  -45.5410 N.am      2 UNK        -0.4498 
     25 C          20.0514  -25.4074  -46.5008 C.2       1 UNK         0.5027 
     26 O          20.3183  -24.2174  -46.6911 O.2       1 UNK        -0.4969 
     27 C          19.5732  -26.5203  -40.3689 C.2       3 UNK         0.5005 
     28 O          19.3728  -27.3663  -39.4951 O.2       3 UNK        -0.5279 
     29 N          20.3027  -25.4144  -40.1571 N.am      4 UNK        -0.4463 
     30 CA         20.9569  -25.0348  -38.8977 C.3       4 UNK         0.0283 
     31 CB         21.2889  -23.5315  -38.9477 C.3       4 UNK        -0.1875 
     32 C          22.1916  -25.9018  -38.5558 C.2       4 UNK         0.4949 
     33 O          23.2662  -25.3644  -38.2863 O.2       4 UNK        -0.5039 
     34 N          22.0127  -27.2297  -38.5880 N.am      5 UNK        -0.4663 
     35 CA         22.9655  -28.3047  -38.2719 C.3       5 UNK         0.0242 
     36 CB         23.3641  -28.2480  -36.7818 C.3       5 UNK        -0.1982 
     37 C          24.2006  -28.3896  -39.1937 C.2       5 UNK         0.5017 
     38 O          25.1206  -29.1506  -38.8888 O.2       5 UNK        -0.5012 
     39 N          24.2123  -27.6276  -40.2943 N.am      6 UNK        -0.4439 
     40 CA         25.3044  -27.5932  -41.2667 C.3       6 UNK         0.0297 
     41 CB         25.3857  -26.1903  -41.8851 C.3       6 UNK        -0.2006 
     42 C          25.1564  -28.6816  -42.3415 C.2       6 UNK         0.4892 
     43 O          26.1658  -29.2492  -42.7620 O.2       6 UNK        -0.5089 
     44 N          23.9142  -28.9640  -42.7585 N.am      7 UNK        -0.4243 
     45 CA         23.5717  -30.0581  -43.6679 C.3       7 UNK         0.0196 
     46 CB         22.1415  -29.8583  -44.1885 C.3       7 UNK        -0.2007 
     47 C          23.7290  -31.4324  -42.9928 C.2       7 UNK         0.5020 
     48 O          23.5552  -31.5552  -41.7774 O.2       7 UNK        -0.5147 
     49 N          24.0493  -32.4479  -43.8026 N.am      8 UNK        -0.4734 
     50 CA         24.4372  -33.7958  -43.3754 C.3       8 UNK         0.0238 
     51 CB         25.2628  -34.4459  -44.5031 C.3       8 UNK        -0.1912 
     52 C          23.2628  -34.6862  -42.9151 C.2       8 UNK         0.5038 
     53 O          23.0890  -35.7872  -43.4424 O.2       8 UNK        -0.5046 
     54 N          22.4998  -34.2190  -41.9198 N.am      9 UNK        -0.4200 
     55 CA         21.5245  -35.0358  -41.1731 C.3       9 UNK         0.0839 
     56 C          22.1749  -35.9687  -40.1083 C.2       9 UNK         0.5513 
     57 N          23.4505  -35.8167  -39.7703 N.am      9 UNK        -0.7519 
     58 O          21.5080  -36.8572  -39.5844 O.2       9 UNK        -0.4960 
     59 C59        20.4001  -34.1758  -40.5397 C.3       10 UNK        -0.0876 
     60 S60        19.2419  -33.5203  -41.7849 S.3       10 UNK        -0.2414 
     61 C61        19.6853  -31.7618  -41.7826 C.3       10 UNK         0.0169 
     62 H62        16.3681  -23.5025  -48.9251 H         1 UNK         0.0903 
     63 H63        15.1261  -23.8497  -47.7206 H         1 UNK         0.0903 
     64 H64        16.2899  -22.5518  -47.4404 H         1 UNK         0.0903 
     65 H65        18.0601  -24.9522  -48.8779 H         1 UNK         0.3096 
     66 H66        19.5616  -26.4292  -48.2917 H         1 UNK         0.1121 
     67 H67        18.0888  -27.2083  -45.7243 H         1 UNK         0.0849 
     68 H68        17.4353  -27.6172  -47.2817 H         1 UNK         0.0849 
     69 H69        18.6464  -31.1348  -46.6889 H         1 UNK         0.0865 
     70 H70        17.3028  -30.0422  -46.8744 H         1 UNK         0.0865 
     71 H71        19.6869  -31.5383  -44.4952 H         1 UNK         0.1346 
     72 H72        17.5729  -30.2185  -41.0094 H         1 UNK         0.1412 
     73 H73        16.3966  -28.8184  -44.8890 H         1 UNK         0.1426 
     74 H74        15.0271  -29.2586  -41.8002 H         1 UNK         0.0716 
     75 H75        15.2307  -28.0055  -43.0001 H         1 UNK         0.0716 
     76 H76        17.3512  -25.3392  -41.5613 H         1 UNK         0.0695 
     77 H77        17.1896  -26.3838  -42.9415 H         1 UNK         0.0695 
     78 H78        19.0996  -27.8224  -41.9766 H         1 UNK         0.0983 
     79 H79        19.2287  -25.5266  -43.4891 H         1 UNK         0.3095 
     80 H80        21.3794  -24.5690  -44.3765 H         1 UNK         0.0454 
     81 H81        23.2332  -26.9751  -44.8098 H         1 UNK         0.0851 
     82 H82        23.6492  -25.3662  -44.2307 H         1 UNK         0.0851 
     83 H83        23.1792  -25.5928  -45.8960 H         1 UNK         0.0851 
     84 H84        20.3535  -27.1192  -45.4747 H         1 UNK         0.2976 
     85 H85        20.4476  -24.7950  -40.9410 H         1 UNK         0.3116 
     86 H86        20.2391  -25.1844  -38.0884 H         1 UNK         0.0646 
     87 H87        22.0108  -23.3034  -39.7329 H         1 UNK         0.0847 
     88 H88        21.7173  -23.1931  -38.0032 H         1 UNK         0.0847 
     89 H89        20.3962  -22.9317  -39.1258 H         1 UNK         0.0847 
     90 H90        21.0762  -27.5374  -38.8489 H         1 UNK         0.3040 
     91 H91        22.4219  -29.2376  -38.4306 H         1 UNK         0.1015 
     92 H92        23.9659  -27.3667  -36.5577 H         1 UNK         0.0786 
     93 H93        23.9513  -29.1220  -36.4971 H         1 UNK         0.0786 
     94 H94        22.4859  -28.2281  -36.1365 H         1 UNK         0.0786 
     95 H95        23.4049  -27.0497  -40.4836 H         1 UNK         0.3172 
     96 H96        26.2506  -27.7764  -40.7527 H         1 UNK         0.0595 
     97 H97        24.4100  -25.8467  -42.2221 H         1 UNK         0.0839 
     98 H98        26.0651  -26.1671  -42.7385 H         1 UNK         0.0839 
     99 H99        25.7527  -25.4654  -41.1582 H         1 UNK         0.0839 
    100 H100       23.1417  -28.4136  -42.3975 H         1 UNK         0.2998 
    101 H101       24.2551  -30.0152  -44.5188 H         1 UNK         0.0822 
    102 H102       22.0638  -28.9699  -44.8128 H         1 UNK         0.0787 
    103 H103       21.8264  -30.7019  -44.8028 H         1 UNK         0.0787 
    104 H104       21.4287  -29.7497  -43.3714 H         1 UNK         0.0787 
    105 H105       24.1133  -32.2660  -44.7943 H         1 UNK         0.3055 
    106 H106       25.0980  -33.6953  -42.5112 H         1 UNK         0.1106 
    107 H107       24.6723  -34.5808  -45.4101 H         1 UNK         0.0828 
    108 H108       25.6307  -35.4287  -44.2044 H         1 UNK         0.0828 
    109 H109       26.1355  -33.8434  -44.7560 H         1 UNK         0.0828 
    110 H110       22.7024  -33.2896  -41.5640 H         1 UNK         0.2931 
    111 H111       21.0448  -35.7119  -41.8840 H         1 UNK         0.0412 
    112 H112       23.8541  -36.4339  -39.0827 H         1 UNK         0.3472 
    113 H113       24.0092  -35.0862  -40.1801 H         1 UNK         0.3472 
    114 H114       19.7984  -34.7711  -39.8498 H         1 UNK         0.0970 
    115 H115       20.8228  -33.3673  -39.9409 H         1 UNK         0.0970 
    116 H116       20.7098  -31.6526  -42.1381 H         1 UNK         0.0612 
    117 H117       19.6684  -31.3813  -40.7600 H         1 UNK         0.0612 
@<TRIPOS>BOND
     1    1    2 1    
     2    1   62 1    
     3    1   63 1    
     4    1   64 1    
     5    2    3 2    
     6    2    4 am   BACKBONE|DICT|INTERRES
     7    4    5 1    
     8    4   65 1    
     9    5    6 1    
    10    5   25 1    
    11    5   66 1    
    12    6    7 1    
    13    6   67 1    
    14    6   68 1    
    15    7    8 1    
    16    8    9 1    
    17    8   69 1    
    18    8   70 1    
    19    9   10 ar   
    20    9   14 ar   
    21   10   11 ar   
    22   10   71 1    
    23   11   12 ar   
    24   11   61 1    
    25   12   13 ar   
    26   12   72 1    
    27   13   14 ar   
    28   13   15 1    
    29   14   73 1    
    30   15   16 1    
    31   15   74 1    
    32   15   75 1    
    33   16   17 1    
    34   17   18 1    
    35   17   76 1    
    36   17   77 1    
    37   18   19 1    
    38   18   27 1    
    39   18   78 1    
    40   19   20 am   BACKBONE|DICT|INTERRES
    41   19   79 1    
    42   20   21 2    
    43   20   22 1    
    44   22   23 1    
    45   22   24 1    
    46   22   80 1    
    47   23   81 1    
    48   23   82 1    
    49   23   83 1    
    50   24   25 am   BACKBONE|DICT|INTERRES
    51   24   84 1    
    52   25   26 2    
    53   27   28 2    
    54   27   29 am   BACKBONE|DICT|INTERRES
    55   29   30 1    
    56   29   85 1    
    57   30   31 1    
    58   30   32 1    
    59   30   86 1    
    60   31   87 1    
    61   31   88 1    
    62   31   89 1    
    63   32   33 2    
    64   32   34 am   BACKBONE|DICT|INTERRES
    65   34   35 1    
    66   34   90 1    
    67   35   36 1    
    68   35   37 1    
    69   35   91 1    
    70   36   92 1    
    71   36   93 1    
    72   36   94 1    
    73   37   38 2    
    74   37   39 am   BACKBONE|DICT|INTERRES
    75   39   40 1    
    76   39   95 1    
    77   40   41 1    
    78   40   42 1    
    79   40   96 1    
    80   41   97 1    
    81   41   98 1    
    82   41   99 1    
    83   42   43 2    
    84   42   44 am   BACKBONE|DICT|INTERRES
    85   44   45 1    
    86   44  100 1    
    87   45   46 1    
    88   45   47 1    
    89   45  101 1    
    90   46  102 1    
    91   46  103 1    
    92   46  104 1    
    93   47   48 2    
    94   47   49 am   BACKBONE|DICT|INTERRES
    95   49   50 1    
    96   49  105 1    
    97   50   51 1    
    98   50   52 1    
    99   50  106 1    
   100   51  107 1    
   101   51  108 1    
   102   51  109 1    
   103   52   53 2    
   104   52   54 am   BACKBONE|DICT|INTERRES
   105   54   55 1    
   106   54  110 1    
   107   55   56 1    
   108   55   59 1    
   109   55  111 1    
   110   56   57 am   BACKBONE|DICT|INTERRES
   111   56   58 2    
   112   57  112 1    
   113   57  113 1    
   114   59   60 1    
   115   59  114 1    
   116   59  115 1    
   117   60   61 1    
   118   61  116 1    
   119   61  117 1    
@<TRIPOS>SUBSTRUCTURE
     1 UNK         1 GROUP             0       ****    0 ROOT    
