@<TRIPOS>MOLECULE
3R8
117   119    1
SMALL
USER_CHARGES


@<TRIPOS>ATOM
      1 CA         17.8938  -24.7926  -48.7386 C.3       0 UNK        -0.2013 
      2 C          19.2757  -25.0785  -48.1706 C.2       0 UNK         0.4866 
      3 O          20.1770  -24.2508  -48.3042 O.2       0 UNK        -0.5176 
      4 N          19.4500  -26.2429  -47.5322 N.am      1 UNK        -0.4884 
      5 CA         20.7119  -26.6909  -46.9258 C.3       1 UNK         0.0853 
      6 C6         20.7953  -28.2390  -46.8645 C.3       10 UNK        -0.0849 
      7 S7         19.4203  -29.0445  -45.9661 S.3       10 UNK        -0.2776 
      8 C8         20.1658  -29.2074  -44.3179 C.3       10 UNK         0.0316 
      9 C9         19.2982  -30.0096  -43.3644 C.ar      10 UNK        -0.0863 
     10 C10        19.7191  -31.2668  -42.9289 C.ar      10 UNK        -0.1009 
     11 C11        18.9807  -31.9823  -41.9850 C.ar      10 UNK        -0.0712 
     12 C12        17.8122  -31.4219  -41.4607 C.ar      10 UNK        -0.0894 
     13 C13        17.3803  -30.1595  -41.8857 C.ar      10 UNK        -0.0745 
     14 C14        18.1156  -29.4685  -42.8542 C.ar      10 UNK        -0.0972 
     15 C15        16.1314  -29.5352  -41.2815 C.3       10 UNK         0.0209 
     16 S16        16.5378  -28.4933  -39.8406 S.3       10 UNK        -0.2568 
     17 C17        16.9872  -26.8997  -40.6126 C.3       10 UNK        -0.0983 
     18 CA         18.5139  -26.7039  -40.8119 C.3       3 UNK         0.0876 
     19 N          18.7783  -25.8159  -41.9562 N.am      3 UNK        -0.4424 
     20 C          19.9724  -25.6204  -42.5299 C.2       2 UNK         0.4918 
     21 O          21.0052  -26.1666  -42.1427 O.2       2 UNK        -0.4875 
     22 CA         20.0144  -24.6231  -43.6985 C.3       2 UNK         0.0481 
     23 CB         21.1774  -23.6203  -43.5500 C.3       2 UNK        -0.1831 
     24 N          20.0338  -25.2999  -45.0005 N.am      2 UNK        -0.4498 
     25 C          21.0104  -26.0390  -45.5542 C.2       1 UNK         0.5027 
     26 O          22.1103  -26.2354  -45.0363 O.2       1 UNK        -0.4969 
     27 C          19.2371  -26.2779  -39.5104 C.2       3 UNK         0.5005 
     28 O          19.4410  -27.1129  -38.6292 O.2       3 UNK        -0.5279 
     29 N          19.6595  -25.0063  -39.4250 N.am      4 UNK        -0.4463 
     30 CA         20.5397  -24.4905  -38.3721 C.3       4 UNK         0.0283 
     31 CB         20.6043  -22.9575  -38.4649 C.3       4 UNK        -0.1875 
     32 C          21.9580  -25.0932  -38.4232 C.2       4 UNK         0.4949 
     33 O          22.5668  -25.2826  -37.3701 O.2       4 UNK        -0.5039 
     34 N          22.4520  -25.3884  -39.6345 N.am      5 UNK        -0.4663 
     35 CA         23.7171  -26.0903  -39.8656 C.3       5 UNK         0.0242 
     36 CB         24.3581  -25.5768  -41.1667 C.3       5 UNK        -0.1982 
     37 C          23.4993  -27.6096  -39.9361 C.2       5 UNK         0.5017 
     38 O          24.3084  -28.3623  -39.3942 O.2       5 UNK        -0.5012 
     39 N          22.4100  -28.0177  -40.6053 N.am      6 UNK        -0.4439 
     40 CA         21.9486  -29.3910  -40.8349 C.3       6 UNK         0.0297 
     41 CB         21.5556  -30.0791  -39.5118 C.3       6 UNK        -0.2006 
     42 C          22.9220  -30.2375  -41.6789 C.2       6 UNK         0.4892 
     43 O          22.9609  -31.4580  -41.5248 O.2       6 UNK        -0.5089 
     44 N          23.6788  -29.5834  -42.5720 N.am      7 UNK        -0.4243 
     45 CA         24.8208  -30.1355  -43.3143 C.3       7 UNK         0.0196 
     46 CB         25.3791  -29.0404  -44.2381 C.3       7 UNK        -0.2007 
     47 C          24.5648  -31.4272  -44.1162 C.2       7 UNK         0.5020 
     48 O          25.5040  -32.1930  -44.3331 O.2       7 UNK        -0.5147 
     49 N          23.3173  -31.6469  -44.5487 N.am      8 UNK        -0.4734 
     50 CA         22.9096  -32.8118  -45.3370 C.3       8 UNK         0.0238 
     51 CB         21.6410  -32.4636  -46.1367 C.3       8 UNK        -0.1912 
     52 C          22.7007  -34.1009  -44.5167 C.2       8 UNK         0.5038 
     53 O          22.6583  -35.1705  -45.1274 O.2       8 UNK        -0.5046 
     54 N          22.5550  -34.0079  -43.1854 N.am      9 UNK        -0.4200 
     55 CA         22.2395  -35.1631  -42.3198 C.3       9 UNK         0.0839 
     56 C          22.6798  -35.0472  -40.8333 C.2       9 UNK         0.5513 
     57 N          23.1654  -33.9155  -40.3455 N.am      9 UNK        -0.7519 
     58 O          22.6086  -36.0314  -40.1015 O.2       9 UNK        -0.4960 
     59 C59        20.7834  -35.7182  -42.4845 C.3       10 UNK        -0.0876 
     60 S60        19.4663  -34.5229  -42.9152 S.3       10 UNK        -0.2414 
     61 C61        19.4802  -33.3445  -41.5284 C.3       10 UNK         0.0169 
     62 H62        17.1957  -25.6065  -48.5436 H         1 UNK         0.0903 
     63 H63        17.4868  -23.8833  -48.2969 H         1 UNK         0.0903 
     64 H64        17.9543  -24.6497  -49.8172 H         1 UNK         0.0903 
     65 H65        18.6803  -26.8942  -47.4500 H         1 UNK         0.3096 
     66 H66        21.5240  -26.3606  -47.5782 H         1 UNK         0.1121 
     67 H67        20.7863  -28.6324  -47.8823 H         1 UNK         0.0849 
     68 H68        21.7528  -28.5605  -46.4496 H         1 UNK         0.0849 
     69 H69        21.1495  -29.6650  -44.4155 H         1 UNK         0.0865 
     70 H70        20.3338  -28.2216  -43.8880 H         1 UNK         0.0865 
     71 H71        20.6367  -31.6938  -43.3036 H         1 UNK         0.1346 
     72 H72        17.2457  -31.9604  -40.7133 H         1 UNK         0.1412 
     73 H73        17.7890  -28.4918  -43.1842 H         1 UNK         0.1426 
     74 H74        15.4477  -30.3216  -40.9582 H         1 UNK         0.0716 
     75 H75        15.5888  -28.9570  -42.0308 H         1 UNK         0.0716 
     76 H76        16.5670  -26.0907  -40.0119 H         1 UNK         0.0695 
     77 H77        16.4690  -26.8420  -41.5709 H         1 UNK         0.0695 
     78 H78        18.9523  -27.6686  -41.0707 H         1 UNK         0.0983 
     79 H79        17.9793  -25.3194  -42.3242 H         1 UNK         0.3095 
     80 H80        19.0906  -24.0428  -43.6785 H         1 UNK         0.0454 
     81 H81        21.0802  -23.0470  -42.6275 H         1 UNK         0.0851 
     82 H82        22.1491  -24.1138  -43.5175 H         1 UNK         0.0851 
     83 H83        21.1930  -22.9074  -44.3741 H         1 UNK         0.0851 
     84 H84        19.1772  -25.2341  -45.5321 H         1 UNK         0.2976 
     85 H85        19.4239  -24.3732  -40.1749 H         1 UNK         0.3116 
     86 H86        20.1017  -24.7556  -37.4073 H         1 UNK         0.0646 
     87 H87        21.2342  -22.5467  -37.6745 H         1 UNK         0.0847 
     88 H88        19.6166  -22.5099  -38.3534 H         1 UNK         0.0847 
     89 H89        21.0202  -22.6249  -39.4168 H         1 UNK         0.0847 
     90 H90        21.8690  -25.2360  -40.4474 H         1 UNK         0.3040 
     91 H91        24.4081  -25.8878  -39.0439 H         1 UNK         0.1015 
     92 H92        24.5632  -24.5077  -41.1098 H         1 UNK         0.0786 
     93 H93        23.7198  -25.7477  -42.0347 H         1 UNK         0.0786 
     94 H94        25.3079  -26.0786  -41.3571 H         1 UNK         0.0786 
     95 H95        21.8581  -27.2984  -41.0709 H         1 UNK         0.3172 
     96 H96        21.0398  -29.2878  -41.4229 H         1 UNK         0.0595 
     97 H97        20.8560  -29.4695  -38.9403 H         1 UNK         0.0839 
     98 H98        22.4246  -30.2750  -38.8832 H         1 UNK         0.0839 
     99 H99        21.0676  -31.0363  -39.6998 H         1 UNK         0.0839 
    100 H100       23.5497  -28.5842  -42.6407 H         1 UNK         0.2998 
    101 H101       25.5859  -30.3770  -42.5736 H         1 UNK         0.0822 
    102 H102       24.6363  -28.7109  -44.9662 H         1 UNK         0.0787 
    103 H103       26.2457  -29.3999  -44.7953 H         1 UNK         0.0787 
    104 H104       25.7027  -28.1675  -43.6705 H         1 UNK         0.0787 
    105 H105       22.6099  -30.9683  -44.3188 H         1 UNK         0.3055 
    106 H106       23.7025  -33.0271  -46.0574 H         1 UNK         0.1106 
    107 H107       20.7786  -32.2936  -45.4932 H         1 UNK         0.0828 
    108 H108       21.7849  -31.5727  -46.7484 H         1 UNK         0.0828 
    109 H109       21.3762  -33.2769  -46.8136 H         1 UNK         0.0828 
    110 H110       22.6451  -33.1079  -42.7290 H         1 UNK         0.2931 
    111 H111       22.8994  -35.9603  -42.6691 H         1 UNK         0.0412 
    112 H112       23.4563  -33.8978  -39.3815 H         1 UNK         0.3472 
    113 H113       23.1822  -33.0486  -40.8794 H         1 UNK         0.3472 
    114 H114       20.4599  -36.2847  -41.6092 H         1 UNK         0.0970 
    115 H115       20.7921  -36.4502  -43.2934 H         1 UNK         0.0970 
    116 H116       20.4896  -33.2228  -41.1390 H         1 UNK         0.0612 
    117 H117       18.8731  -33.7394  -40.7126 H         1 UNK         0.0612 
@<TRIPOS>BOND
     1    1    2 1    
     2    1   62 1    
     3    1   63 1    
     4    1   64 1    
     5    2    3 2    
     6    2    4 am   BACKBONE|DICT|INTERRES
     7    4    5 1    
     8    4   65 1    
     9    5    6 1    
    10    5   25 1    
    11    5   66 1    
    12    6    7 1    
    13    6   67 1    
    14    6   68 1    
    15    7    8 1    
    16    8    9 1    
    17    8   69 1    
    18    8   70 1    
    19    9   10 ar   
    20    9   14 ar   
    21   10   11 ar   
    22   10   71 1    
    23   11   12 ar   
    24   11   61 1    
    25   12   13 ar   
    26   12   72 1    
    27   13   14 ar   
    28   13   15 1    
    29   14   73 1    
    30   15   16 1    
    31   15   74 1    
    32   15   75 1    
    33   16   17 1    
    34   17   18 1    
    35   17   76 1    
    36   17   77 1    
    37   18   19 1    
    38   18   27 1    
    39   18   78 1    
    40   19   20 am   BACKBONE|DICT|INTERRES
    41   19   79 1    
    42   20   21 2    
    43   20   22 1    
    44   22   23 1    
    45   22   24 1    
    46   22   80 1    
    47   23   81 1    
    48   23   82 1    
    49   23   83 1    
    50   24   25 am   BACKBONE|DICT|INTERRES
    51   24   84 1    
    52   25   26 2    
    53   27   28 2    
    54   27   29 am   BACKBONE|DICT|INTERRES
    55   29   30 1    
    56   29   85 1    
    57   30   31 1    
    58   30   32 1    
    59   30   86 1    
    60   31   87 1    
    61   31   88 1    
    62   31   89 1    
    63   32   33 2    
    64   32   34 am   BACKBONE|DICT|INTERRES
    65   34   35 1    
    66   34   90 1    
    67   35   36 1    
    68   35   37 1    
    69   35   91 1    
    70   36   92 1    
    71   36   93 1    
    72   36   94 1    
    73   37   38 2    
    74   37   39 am   BACKBONE|DICT|INTERRES
    75   39   40 1    
    76   39   95 1    
    77   40   41 1    
    78   40   42 1    
    79   40   96 1    
    80   41   97 1    
    81   41   98 1    
    82   41   99 1    
    83   42   43 2    
    84   42   44 am   BACKBONE|DICT|INTERRES
    85   44   45 1    
    86   44  100 1    
    87   45   46 1    
    88   45   47 1    
    89   45  101 1    
    90   46  102 1    
    91   46  103 1    
    92   46  104 1    
    93   47   48 2    
    94   47   49 am   BACKBONE|DICT|INTERRES
    95   49   50 1    
    96   49  105 1    
    97   50   51 1    
    98   50   52 1    
    99   50  106 1    
   100   51  107 1    
   101   51  108 1    
   102   51  109 1    
   103   52   53 2    
   104   52   54 am   BACKBONE|DICT|INTERRES
   105   54   55 1    
   106   54  110 1    
   107   55   56 1    
   108   55   59 1    
   109   55  111 1    
   110   56   57 am   BACKBONE|DICT|INTERRES
   111   56   58 2    
   112   57  112 1    
   113   57  113 1    
   114   59   60 1    
   115   59  114 1    
   116   59  115 1    
   117   60   61 1    
   118   61  116 1    
   119   61  117 1    
@<TRIPOS>SUBSTRUCTURE
     1 UNK         1 GROUP             0       ****    0 ROOT    
