@<TRIPOS>MOLECULE
3R8
117   119    1
SMALL
USER_CHARGES


@<TRIPOS>ATOM
      1 CA         14.0835  -27.8025  -49.7123 C.3       0 UNK        -0.2013 
      2 C          15.0232  -28.4986  -48.7392 C.2       0 UNK         0.4866 
      3 O          15.1515  -29.7226  -48.7801 O.2       0 UNK        -0.5176 
      4 N          15.6830  -27.7298  -47.8692 N.am      1 UNK        -0.4884 
      5 CA         16.6329  -28.2048  -46.8644 C.3       1 UNK         0.0853 
      6 C6         15.9382  -28.8424  -45.6294 C.3       10 UNK        -0.0849 
      7 S7         14.7817  -27.7355  -44.7451 S.3       10 UNK        -0.2776 
      8 C8         14.2134  -28.8204  -43.3970 C.3       10 UNK         0.0316 
      9 C9         15.3502  -29.2143  -42.4642 C.ar      10 UNK        -0.0863 
     10 C10        15.8639  -30.5129  -42.4858 C.ar      10 UNK        -0.1009 
     11 C11        16.9169  -30.8789  -41.6409 C.ar      10 UNK        -0.0712 
     12 C12        17.4571  -29.9310  -40.7643 C.ar      10 UNK        -0.0894 
     13 C13        16.9343  -28.6337  -40.7177 C.ar      10 UNK        -0.0745 
     14 C14        15.8821  -28.2834  -41.5698 C.ar      10 UNK        -0.0972 
     15 C15        17.4591  -27.6141  -39.7179 C.3       10 UNK         0.0209 
     16 S16        18.2510  -26.2013  -40.5482 S.3       10 UNK        -0.2568 
     17 C17        20.0184  -26.6428  -40.4827 C.3       10 UNK        -0.0983 
     18 CA         20.5477  -27.3676  -41.7486 C.3       3 UNK         0.0876 
     19 N          20.1234  -26.7242  -42.9980 N.am      3 UNK        -0.4424 
     20 C          20.4453  -27.1172  -44.2377 C.2       2 UNK         0.4918 
     21 O          21.2397  -28.0192  -44.5029 O.2       2 UNK        -0.4875 
     22 CA         19.7043  -26.4244  -45.3817 C.3       2 UNK         0.0481 
     23 CB         20.6578  -25.9936  -46.5115 C.3       2 UNK        -0.1831 
     24 N          18.7134  -27.3705  -45.8835 N.am      2 UNK        -0.4498 
     25 C          17.5697  -27.0416  -46.4903 C.2       1 UNK         0.5027 
     26 O          17.2415  -25.8797  -46.7542 O.2       1 UNK        -0.4969 
     27 C          22.0753  -27.5460  -41.6540 C.2       3 UNK         0.5005 
     28 O          22.5448  -28.6816  -41.5763 O.2       3 UNK        -0.5279 
     29 N          22.7962  -26.4134  -41.6954 N.am      4 UNK        -0.4463 
     30 CA         24.2427  -26.2329  -41.5112 C.3       4 UNK         0.0283 
     31 CB         25.0482  -27.0570  -42.5354 C.3       4 UNK        -0.1875 
     32 C          24.7165  -26.5327  -40.0765 C.2       4 UNK         0.4949 
     33 O          24.1149  -27.3371  -39.3635 O.2       4 UNK        -0.5039 
     34 N          25.8375  -25.9107  -39.6867 N.am      5 UNK        -0.4663 
     35 CA         26.4855  -26.1090  -38.3812 C.3       5 UNK         0.0242 
     36 CB         27.6149  -25.0797  -38.2132 C.3       5 UNK        -0.1982 
     37 C          27.0223  -27.5381  -38.1711 C.2       5 UNK         0.5017 
     38 O          27.1185  -27.9911  -37.0306 O.2       5 UNK        -0.5012 
     39 N          27.3354  -28.2226  -39.2789 N.am      6 UNK        -0.4439 
     40 CA         27.7580  -29.6221  -39.3250 C.3       6 UNK         0.0297 
     41 CB         28.5831  -29.8375  -40.6063 C.3       6 UNK        -0.2006 
     42 C          26.5889  -30.6271  -39.2660 C.2       6 UNK         0.4892 
     43 O          26.8611  -31.8275  -39.2264 O.2       6 UNK        -0.5089 
     44 N          25.3329  -30.1446  -39.2896 N.am      7 UNK        -0.4243 
     45 CA         24.0887  -30.9189  -39.4089 C.3       7 UNK         0.0196 
     46 CB         23.8530  -31.8033  -38.1656 C.3       7 UNK        -0.2007 
     47 C          24.0481  -31.7023  -40.7354 C.2       7 UNK         0.5020 
     48 O          23.9390  -32.9297  -40.7414 O.2       7 UNK        -0.5147 
     49 N          24.1802  -30.9597  -41.8406 N.am      8 UNK        -0.4734 
     50 CA         24.1991  -31.4790  -43.2074 C.3       8 UNK         0.0238 
     51 CB         24.8412  -30.4406  -44.1412 C.3       8 UNK        -0.1912 
     52 C          22.8001  -31.8554  -43.7144 C.2       8 UNK         0.5038 
     53 O          22.6880  -32.8212  -44.4710 O.2       8 UNK        -0.5046 
     54 N          21.7733  -31.0972  -43.2975 N.am      9 UNK        -0.4200 
     55 CA         20.3474  -31.2615  -43.6407 C.3       9 UNK         0.0839 
     56 C          20.0065  -30.9610  -45.1322 C.2       9 UNK         0.5513 
     57 N          20.7350  -31.5114  -46.0932 N.am      9 UNK        -0.7519 
     58 O          19.0824  -30.2043  -45.4198 O.2       9 UNK        -0.4960 
     59 C59        19.8033  -32.6362  -43.1592 C.3       10 UNK        -0.0876 
     60 S60        17.9960  -32.8475  -43.2833 S.3       10 UNK        -0.2414 
     61 C61        17.4183  -32.3168  -41.6394 C.3       10 UNK         0.0169 
     62 H62        13.0679  -28.1763  -49.5849 H         1 UNK         0.0903 
     63 H63        14.0682  -26.7230  -49.5625 H         1 UNK         0.0903 
     64 H64        14.3929  -27.9983  -50.7386 H         1 UNK         0.0903 
     65 H65        15.5859  -26.7212  -47.8819 H         1 UNK         0.3096 
     66 H66        17.2606  -28.9672  -47.3326 H         1 UNK         0.1121 
     67 H67        16.6901  -29.1957  -44.9226 H         1 UNK         0.0849 
     68 H68        15.3895  -29.7329  -45.9389 H         1 UNK         0.0849 
     69 H69        13.4413  -28.3021  -42.8264 H         1 UNK         0.0865 
     70 H70        13.7347  -29.7038  -43.8229 H         1 UNK         0.0865 
     71 H71        15.4449  -31.2452  -43.1626 H         1 UNK         0.1346 
     72 H72        18.2611  -30.2112  -40.0975 H         1 UNK         0.1412 
     73 H73        15.4786  -27.2801  -41.5392 H         1 UNK         0.1426 
     74 H74        16.6193  -27.2409  -39.1300 H         1 UNK         0.0716 
     75 H75        18.1433  -28.0742  -39.0038 H         1 UNK         0.0716 
     76 H76        20.2115  -27.2451  -39.5930 H         1 UNK         0.0695 
     77 H77        20.5541  -25.7055  -40.3216 H         1 UNK         0.0695 
     78 H78        20.1097  -28.3677  -41.7594 H         1 UNK         0.0983 
     79 H79        19.4359  -25.9925  -42.8873 H         1 UNK         0.3095 
     80 H80        19.2005  -25.5379  -44.9899 H         1 UNK         0.0454 
     81 H81        20.1256  -25.4587  -47.2980 H         1 UNK         0.0851 
     82 H82        21.1562  -26.8497  -46.9681 H         1 UNK         0.0851 
     83 H83        21.4336  -25.3270  -46.1332 H         1 UNK         0.0851 
     84 H84        18.9082  -28.3527  -45.6875 H         1 UNK         0.2976 
     85 H85        22.2747  -25.5522  -41.7818 H         1 UNK         0.3116 
     86 H86        24.4315  -25.1760  -41.7060 H         1 UNK         0.0646 
     87 H87        24.6593  -26.9283  -43.5457 H         1 UNK         0.0847 
     88 H88        26.0940  -26.7490  -42.5507 H         1 UNK         0.0847 
     89 H89        25.0319  -28.1208  -42.3023 H         1 UNK         0.0847 
     90 H90        26.2820  -25.2595  -40.3194 H         1 UNK         0.3040 
     91 H91        25.7380  -25.9293  -37.6050 H         1 UNK         0.1015 
     92 H92        28.3864  -25.1967  -38.9754 H         1 UNK         0.0786 
     93 H93        28.0987  -25.1866  -37.2411 H         1 UNK         0.0786 
     94 H94        27.2348  -24.0595  -38.2721 H         1 UNK         0.0786 
     95 H95        27.2316  -27.7501  -40.1648 H         1 UNK         0.3172 
     96 H96        28.4030  -29.8229  -38.4670 H         1 UNK         0.0595 
     97 H97        27.9858  -29.6748  -41.5045 H         1 UNK         0.0839 
     98 H98        28.9718  -30.8557  -40.6559 H         1 UNK         0.0839 
     99 H99        29.4412  -29.1661  -40.6452 H         1 UNK         0.0839 
    100 H100       25.2051  -29.1386  -39.3025 H         1 UNK         0.2998 
    101 H101       23.2758  -30.1920  -39.4490 H         1 UNK         0.0822 
    102 H102       22.8799  -32.2929  -38.2188 H         1 UNK         0.0787 
    103 H103       24.6039  -32.5881  -38.0708 H         1 UNK         0.0787 
    104 H104       23.8692  -31.2112  -37.2507 H         1 UNK         0.0787 
    105 H105       24.1032  -29.9534  -41.7359 H         1 UNK         0.3055 
    106 H106       24.8127  -32.3828  -43.2236 H         1 UNK         0.1106 
    107 H107       24.9268  -30.8322  -45.1558 H         1 UNK         0.0828 
    108 H108       24.2479  -29.5266  -44.1970 H         1 UNK         0.0828 
    109 H109       25.8456  -30.1742  -43.8117 H         1 UNK         0.0828 
    110 H110       21.9937  -30.2902  -42.7230 H         1 UNK         0.2931 
    111 H111       19.8362  -30.4964  -43.0546 H         1 UNK         0.0412 
    112 H112       20.5285  -31.3181  -47.0597 H         1 UNK         0.3472 
    113 H113       21.5018  -32.1235  -45.8364 H         1 UNK         0.3472 
    114 H114       20.1113  -32.8161  -42.1285 H         1 UNK         0.0970 
    115 H115       20.2555  -33.4423  -43.7387 H         1 UNK         0.0970 
    116 H116       16.5939  -32.9659  -41.3413 H         1 UNK         0.0612 
    117 H117       18.2013  -32.4628  -40.8943 H         1 UNK         0.0612 
@<TRIPOS>BOND
     1    1    2 1    
     2    1   62 1    
     3    1   63 1    
     4    1   64 1    
     5    2    3 2    
     6    2    4 am   BACKBONE|DICT|INTERRES
     7    4    5 1    
     8    4   65 1    
     9    5    6 1    
    10    5   25 1    
    11    5   66 1    
    12    6    7 1    
    13    6   67 1    
    14    6   68 1    
    15    7    8 1    
    16    8    9 1    
    17    8   69 1    
    18    8   70 1    
    19    9   10 ar   
    20    9   14 ar   
    21   10   11 ar   
    22   10   71 1    
    23   11   12 ar   
    24   11   61 1    
    25   12   13 ar   
    26   12   72 1    
    27   13   14 ar   
    28   13   15 1    
    29   14   73 1    
    30   15   16 1    
    31   15   74 1    
    32   15   75 1    
    33   16   17 1    
    34   17   18 1    
    35   17   76 1    
    36   17   77 1    
    37   18   19 1    
    38   18   27 1    
    39   18   78 1    
    40   19   20 am   BACKBONE|DICT|INTERRES
    41   19   79 1    
    42   20   21 2    
    43   20   22 1    
    44   22   23 1    
    45   22   24 1    
    46   22   80 1    
    47   23   81 1    
    48   23   82 1    
    49   23   83 1    
    50   24   25 am   BACKBONE|DICT|INTERRES
    51   24   84 1    
    52   25   26 2    
    53   27   28 2    
    54   27   29 am   BACKBONE|DICT|INTERRES
    55   29   30 1    
    56   29   85 1    
    57   30   31 1    
    58   30   32 1    
    59   30   86 1    
    60   31   87 1    
    61   31   88 1    
    62   31   89 1    
    63   32   33 2    
    64   32   34 am   BACKBONE|DICT|INTERRES
    65   34   35 1    
    66   34   90 1    
    67   35   36 1    
    68   35   37 1    
    69   35   91 1    
    70   36   92 1    
    71   36   93 1    
    72   36   94 1    
    73   37   38 2    
    74   37   39 am   BACKBONE|DICT|INTERRES
    75   39   40 1    
    76   39   95 1    
    77   40   41 1    
    78   40   42 1    
    79   40   96 1    
    80   41   97 1    
    81   41   98 1    
    82   41   99 1    
    83   42   43 2    
    84   42   44 am   BACKBONE|DICT|INTERRES
    85   44   45 1    
    86   44  100 1    
    87   45   46 1    
    88   45   47 1    
    89   45  101 1    
    90   46  102 1    
    91   46  103 1    
    92   46  104 1    
    93   47   48 2    
    94   47   49 am   BACKBONE|DICT|INTERRES
    95   49   50 1    
    96   49  105 1    
    97   50   51 1    
    98   50   52 1    
    99   50  106 1    
   100   51  107 1    
   101   51  108 1    
   102   51  109 1    
   103   52   53 2    
   104   52   54 am   BACKBONE|DICT|INTERRES
   105   54   55 1    
   106   54  110 1    
   107   55   56 1    
   108   55   59 1    
   109   55  111 1    
   110   56   57 am   BACKBONE|DICT|INTERRES
   111   56   58 2    
   112   57  112 1    
   113   57  113 1    
   114   59   60 1    
   115   59  114 1    
   116   59  115 1    
   117   60   61 1    
   118   61  116 1    
   119   61  117 1    
@<TRIPOS>SUBSTRUCTURE
     1 UNK         1 GROUP             0       ****    0 ROOT    
