@<TRIPOS>MOLECULE
3R8
117   119    1
SMALL
USER_CHARGES


@<TRIPOS>ATOM
      1 CA         19.5480  -23.9703  -39.8929 C.3       0 UNK        -0.2013 
      2 C          19.2882  -23.9727  -41.3915 C.2       0 UNK         0.4866 
      3 O          19.7711  -23.0875  -42.0983 O.2       0 UNK        -0.5176 
      4 N          18.5211  -24.9552  -41.8801 N.am      1 UNK        -0.4884 
      5 CA         18.2240  -25.1788  -43.2987 C.3       1 UNK         0.0853 
      6 C6         17.0552  -26.1801  -43.5149 C.3       10 UNK        -0.0849 
      7 S7         17.0388  -27.6058  -42.3698 S.3       10 UNK        -0.2776 
      8 C8         15.6561  -28.5839  -43.0368 C.3       10 UNK         0.0316 
      9 C9         16.1686  -29.6788  -43.9567 C.ar      10 UNK        -0.0863 
     10 C10        16.5528  -30.9103  -43.4191 C.ar      10 UNK        -0.1009 
     11 C11        17.0717  -31.9132  -44.2412 C.ar      10 UNK        -0.0712 
     12 C12        17.2011  -31.6800  -45.6129 C.ar      10 UNK        -0.0894 
     13 C13        16.8231  -30.4496  -46.1616 C.ar      10 UNK        -0.0745 
     14 C14        16.2911  -29.4576  -45.3315 C.ar      10 UNK        -0.0972 
     15 C15        17.0555  -30.1703  -47.6405 C.3       10 UNK         0.0209 
     16 S16        18.3714  -28.9331  -47.9106 S.3       10 UNK        -0.2568 
     17 C17        19.7115  -29.5757  -46.8481 C.3       10 UNK        -0.0983 
     18 CA         20.9662  -28.6713  -46.8045 C.3       3 UNK         0.0876 
     19 N          20.6308  -27.2778  -46.4958 N.am      3 UNK        -0.4424 
     20 C          21.4942  -26.2550  -46.4887 C.2       2 UNK         0.4918 
     21 O          22.6693  -26.3513  -46.8429 O.2       2 UNK        -0.4875 
     22 CA         20.9790  -24.8924  -45.9893 C.3       2 UNK         0.0481 
     23 CB         20.8170  -23.9230  -47.1716 C.3       2 UNK        -0.1831 
     24 N          19.7319  -24.9023  -45.2100 N.am      2 UNK        -0.4498 
     25 C          19.4989  -25.5747  -44.0722 C.2       1 UNK         0.5027 
     26 O          20.2381  -26.4573  -43.6283 O.2       1 UNK        -0.4969 
     27 C          21.9829  -29.2612  -45.8013 C.2       3 UNK         0.5005 
     28 O          22.8154  -30.0782  -46.1992 O.2       3 UNK        -0.5279 
     29 N          21.8886  -28.8409  -44.5305 N.am      4 UNK        -0.4463 
     30 CA         22.7576  -29.2722  -43.4337 C.3       4 UNK         0.0283 
     31 CB         21.9236  -30.0668  -42.4174 C.3       4 UNK        -0.1875 
     32 C          23.4643  -28.0855  -42.7576 C.2       4 UNK         0.4949 
     33 O          24.5809  -28.2606  -42.2689 O.2       4 UNK        -0.5039 
     34 N          22.8302  -26.9023  -42.7545 N.am      5 UNK        -0.4663 
     35 CA         23.3045  -25.6365  -42.1883 C.3       5 UNK         0.0242 
     36 CB         24.4776  -25.0741  -43.0230 C.3       5 UNK        -0.1982 
     37 C          23.5984  -25.7617  -40.6818 C.2       5 UNK         0.5017 
     38 O          22.6560  -25.8171  -39.8918 O.2       5 UNK        -0.5012 
     39 N          24.8853  -25.8044  -40.3129 N.am      6 UNK        -0.4439 
     40 CA         25.3562  -25.9858  -38.9379 C.3       6 UNK         0.0297 
     41 CB         26.8071  -25.4861  -38.8376 C.3       6 UNK        -0.2006 
     42 C          25.2538  -27.4399  -38.4365 C.2       6 UNK         0.4892 
     43 O          25.2841  -27.6501  -37.2227 O.2       6 UNK        -0.5089 
     44 N          25.1592  -28.4105  -39.3558 N.am      7 UNK        -0.4243 
     45 CA         25.0083  -29.8352  -39.0559 C.3       7 UNK         0.0196 
     46 CB         25.7500  -30.6442  -40.1387 C.3       7 UNK        -0.2007 
     47 C          23.5215  -30.2279  -38.9698 C.2       7 UNK         0.5020 
     48 O          22.6391  -29.3690  -39.0250 O.2       7 UNK        -0.5147 
     49 N          23.2686  -31.5351  -38.8606 N.am      8 UNK        -0.4734 
     50 CA         21.9462  -32.1523  -38.9390 C.3       8 UNK         0.0238 
     51 CB         21.5169  -32.6118  -37.5351 C.3       8 UNK        -0.1912 
     52 C          22.0215  -33.3404  -39.9069 C.2       8 UNK         0.5038 
     53 O          23.1110  -33.8780  -40.1265 O.2       8 UNK        -0.5046 
     54 N          20.8664  -33.7334  -40.4554 N.am      9 UNK        -0.4200 
     55 CA         20.7318  -34.8417  -41.4182 C.3       9 UNK         0.0839 
     56 C          20.8861  -36.2649  -40.8048 C.2       9 UNK         0.5513 
     57 N          20.8975  -36.4280  -39.4871 N.am      9 UNK        -0.7519 
     58 O          21.0008  -37.2403  -41.5425 O.2       9 UNK        -0.4960 
     59 C59        19.4182  -34.7379  -42.2380 C.3       10 UNK        -0.0876 
     60 S60        19.2568  -33.1472  -43.1148 S.3       10 UNK        -0.2414 
     61 C61        17.5182  -33.2340  -43.6372 C.3       10 UNK         0.0169 
     62 H62        19.1488  -24.8616  -39.4090 H         1 UNK         0.0903 
     63 H63        20.6195  -23.9340  -39.6984 H         1 UNK         0.0903 
     64 H64        19.0880  -23.0963  -39.4328 H         1 UNK         0.0903 
     65 H65        18.1761  -25.6785  -41.2635 H         1 UNK         0.3096 
     66 H66        17.8941  -24.2163  -43.6970 H         1 UNK         0.1121 
     67 H67        17.0314  -26.5419  -44.5448 H         1 UNK         0.0849 
     68 H68        16.1120  -25.6499  -43.3729 H         1 UNK         0.0849 
     69 H69        15.1060  -29.0283  -42.2058 H         1 UNK         0.0865 
     70 H70        14.9457  -27.9402  -43.5580 H         1 UNK         0.0865 
     71 H71        16.4719  -31.0800  -42.3539 H         1 UNK         0.1346 
     72 H72        17.6268  -32.4463  -46.2464 H         1 UNK         0.1412 
     73 H73        16.0128  -28.5012  -45.7524 H         1 UNK         0.1426 
     74 H74        17.3209  -31.0869  -48.1698 H         1 UNK         0.0716 
     75 H75        16.1299  -29.8115  -48.0927 H         1 UNK         0.0716 
     76 H76        19.9736  -30.5767  -47.1967 H         1 UNK         0.0695 
     77 H77        19.3200  -29.6946  -45.8361 H         1 UNK         0.0695 
     78 H78        21.4342  -28.6830  -47.7912 H         1 UNK         0.0983 
     79 H79        19.6767  -27.1031  -46.2183 H         1 UNK         0.3095 
     80 H80        21.7535  -24.4930  -45.3315 H         1 UNK         0.0454 
     81 H81        20.0242  -24.2429  -47.8490 H         1 UNK         0.0851 
     82 H82        21.7363  -23.8575  -47.7555 H         1 UNK         0.0851 
     83 H83        20.5838  -22.9139  -46.8315 H         1 UNK         0.0851 
     84 H84        19.0438  -24.2220  -45.5003 H         1 UNK         0.2976 
     85 H85        21.1826  -28.1472  -44.3069 H         1 UNK         0.3116 
     86 H86        23.5414  -29.9315  -43.8122 H         1 UNK         0.0646 
     87 H87        21.3942  -30.8913  -42.8950 H         1 UNK         0.0847 
     88 H88        21.1862  -29.4390  -41.9151 H         1 UNK         0.0847 
     89 H89        22.5650  -30.5008  -41.6525 H         1 UNK         0.0847 
     90 H90        21.8777  -26.8595  -43.1115 H         1 UNK         0.3040 
     91 H91        22.4747  -24.9323  -42.2750 H         1 UNK         0.1015 
     92 H92        25.3311  -25.7518  -43.0576 H         1 UNK         0.0786 
     93 H93        24.8241  -24.1203  -42.6227 H         1 UNK         0.0786 
     94 H94        24.1664  -24.8931  -44.0521 H         1 UNK         0.0786 
     95 H95        25.5873  -25.7805  -41.0387 H         1 UNK         0.3172 
     96 H96        24.7405  -25.3698  -38.2789 H         1 UNK         0.0595 
     97 H97        27.4781  -26.0605  -39.4777 H         1 UNK         0.0839 
     98 H98        27.1798  -25.5728  -37.8159 H         1 UNK         0.0839 
     99 H99        26.8871  -24.4364  -39.1206 H         1 UNK         0.0839 
    100 H100       25.0626  -28.1530  -40.3336 H         1 UNK         0.2998 
    101 H101       25.4668  -30.0557  -38.0895 H         1 UNK         0.0822 
    102 H102       26.7732  -30.2901  -40.2658 H         1 UNK         0.0787 
    103 H103       25.8120  -31.7011  -39.8779 H         1 UNK         0.0787 
    104 H104       25.2526  -30.5765  -41.1069 H         1 UNK         0.0787 
    105 H105       24.0377  -32.1919  -38.9040 H         1 UNK         0.3055 
    106 H106       21.2153  -31.4398  -39.3294 H         1 UNK         0.1106 
    107 H107       22.2066  -33.3495  -37.1227 H         1 UNK         0.0828 
    108 H108       20.5248  -33.0645  -37.5540 H         1 UNK         0.0828 
    109 H109       21.4740  -31.7715  -36.8420 H         1 UNK         0.0828 
    110 H110       20.0133  -33.2478  -40.2212 H         1 UNK         0.2931 
    111 H111       21.5553  -34.7420  -42.1286 H         1 UNK         0.0412 
    112 H112       20.8075  -35.6358  -38.8721 H         1 UNK         0.3472 
    113 H113       21.0015  -37.3553  -39.1051 H         1 UNK         0.3472 
    114 H114       18.5549  -34.8734  -41.5837 H         1 UNK         0.0970 
    115 H115       19.3664  -35.5345  -42.9830 H         1 UNK         0.0970 
    116 H116       16.8892  -33.4809  -42.7804 H         1 UNK         0.0612 
    117 H117       17.3955  -34.0437  -44.3583 H         1 UNK         0.0612 
@<TRIPOS>BOND
     1    1    2 1    
     2    1   62 1    
     3    1   63 1    
     4    1   64 1    
     5    2    3 2    
     6    2    4 am   BACKBONE|DICT|INTERRES
     7    4    5 1    
     8    4   65 1    
     9    5    6 1    
    10    5   25 1    
    11    5   66 1    
    12    6    7 1    
    13    6   67 1    
    14    6   68 1    
    15    7    8 1    
    16    8    9 1    
    17    8   69 1    
    18    8   70 1    
    19    9   10 ar   
    20    9   14 ar   
    21   10   11 ar   
    22   10   71 1    
    23   11   12 ar   
    24   11   61 1    
    25   12   13 ar   
    26   12   72 1    
    27   13   14 ar   
    28   13   15 1    
    29   14   73 1    
    30   15   16 1    
    31   15   74 1    
    32   15   75 1    
    33   16   17 1    
    34   17   18 1    
    35   17   76 1    
    36   17   77 1    
    37   18   19 1    
    38   18   27 1    
    39   18   78 1    
    40   19   20 am   BACKBONE|DICT|INTERRES
    41   19   79 1    
    42   20   21 2    
    43   20   22 1    
    44   22   23 1    
    45   22   24 1    
    46   22   80 1    
    47   23   81 1    
    48   23   82 1    
    49   23   83 1    
    50   24   25 am   BACKBONE|DICT|INTERRES
    51   24   84 1    
    52   25   26 2    
    53   27   28 2    
    54   27   29 am   BACKBONE|DICT|INTERRES
    55   29   30 1    
    56   29   85 1    
    57   30   31 1    
    58   30   32 1    
    59   30   86 1    
    60   31   87 1    
    61   31   88 1    
    62   31   89 1    
    63   32   33 2    
    64   32   34 am   BACKBONE|DICT|INTERRES
    65   34   35 1    
    66   34   90 1    
    67   35   36 1    
    68   35   37 1    
    69   35   91 1    
    70   36   92 1    
    71   36   93 1    
    72   36   94 1    
    73   37   38 2    
    74   37   39 am   BACKBONE|DICT|INTERRES
    75   39   40 1    
    76   39   95 1    
    77   40   41 1    
    78   40   42 1    
    79   40   96 1    
    80   41   97 1    
    81   41   98 1    
    82   41   99 1    
    83   42   43 2    
    84   42   44 am   BACKBONE|DICT|INTERRES
    85   44   45 1    
    86   44  100 1    
    87   45   46 1    
    88   45   47 1    
    89   45  101 1    
    90   46  102 1    
    91   46  103 1    
    92   46  104 1    
    93   47   48 2    
    94   47   49 am   BACKBONE|DICT|INTERRES
    95   49   50 1    
    96   49  105 1    
    97   50   51 1    
    98   50   52 1    
    99   50  106 1    
   100   51  107 1    
   101   51  108 1    
   102   51  109 1    
   103   52   53 2    
   104   52   54 am   BACKBONE|DICT|INTERRES
   105   54   55 1    
   106   54  110 1    
   107   55   56 1    
   108   55   59 1    
   109   55  111 1    
   110   56   57 am   BACKBONE|DICT|INTERRES
   111   56   58 2    
   112   57  112 1    
   113   57  113 1    
   114   59   60 1    
   115   59  114 1    
   116   59  115 1    
   117   60   61 1    
   118   61  116 1    
   119   61  117 1    
@<TRIPOS>SUBSTRUCTURE
     1 UNK         1 GROUP             0       ****    0 ROOT    
