@<TRIPOS>MOLECULE
3R8
117   119    1
SMALL
USER_CHARGES


@<TRIPOS>ATOM
      1 CA         21.0053  -29.6112  -47.8397 C.3       0 UNK        -0.2013 
      2 C          20.9704  -28.1735  -48.3505 C.2       0 UNK         0.4866 
      3 O          21.6051  -27.8804  -49.3624 O.2       0 UNK        -0.5176 
      4 N          20.2465  -27.2447  -47.7111 N.am      1 UNK        -0.4884 
      5 CA         19.4741  -27.4046  -46.4710 C.3       1 UNK         0.0853 
      6 C6         18.1431  -26.6008  -46.5259 C.3       10 UNK        -0.0849 
      7 S7         17.0378  -27.2505  -47.8297 S.3       10 UNK        -0.2776 
      8 C8         15.6056  -27.8884  -46.8861 C.3       10 UNK         0.0316 
      9 C9         15.9830  -28.8036  -45.7235 C.ar      10 UNK        -0.0863 
     10 C10        16.8877  -29.8558  -45.8987 C.ar      10 UNK        -0.1009 
     11 C11        17.2725  -30.6466  -44.8128 C.ar      10 UNK        -0.0712 
     12 C12        16.7043  -30.4233  -43.5562 C.ar      10 UNK        -0.0894 
     13 C13        15.7816  -29.3920  -43.3730 C.ar      10 UNK        -0.0745 
     14 C14        15.4282  -28.5837  -44.4581 C.ar      10 UNK        -0.0972 
     15 C15        15.1718  -29.1382  -42.0040 C.3       10 UNK         0.0209 
     16 S16        16.0922  -27.8532  -41.1034 S.3       10 UNK        -0.2568 
     17 C17        17.2925  -28.8184  -40.1176 C.3       10 UNK        -0.0983 
     18 CA         18.7072  -28.9503  -40.7454 C.3       3 UNK         0.0876 
     19 N          19.1715  -27.7003  -41.3520 N.am      3 UNK        -0.4424 
     20 C          20.2802  -27.5503  -42.0867 C.2       2 UNK         0.4918 
     21 O          21.1530  -28.4115  -42.2073 O.2       2 UNK        -0.4875 
     22 CA         20.3551  -26.2293  -42.8736 C.3       2 UNK         0.0481 
     23 CB         21.7596  -25.5944  -42.8816 C.3       2 UNK        -0.1831 
     24 N          19.8131  -26.4286  -44.2238 N.am      2 UNK        -0.4498 
     25 C          20.3694  -27.0991  -45.2465 C.2       1 UNK         0.5027 
     26 O          21.5360  -27.4946  -45.2514 O.2       1 UNK        -0.4969 
     27 C          19.6844  -29.5360  -39.7071 C.2       3 UNK         0.5005 
     28 O          19.9043  -30.7467  -39.7024 O.2       3 UNK        -0.5279 
     29 N          20.2426  -28.6759  -38.8451 N.am      4 UNK        -0.4463 
     30 CA         21.0932  -29.0619  -37.7137 C.3       4 UNK         0.0283 
     31 CB         20.2281  -29.2122  -36.4473 C.3       4 UNK        -0.1875 
     32 C          22.2660  -28.0863  -37.5193 C.2       4 UNK         0.4949 
     33 O          22.7567  -27.9301  -36.4007 O.2       4 UNK        -0.5039 
     34 N          22.7021  -27.4498  -38.6092 N.am      5 UNK        -0.4663 
     35 CA         23.8528  -26.5543  -38.6772 C.3       5 UNK         0.0242 
     36 CB         23.4048  -25.1127  -38.3782 C.3       5 UNK        -0.1982 
     37 C          24.4432  -26.6687  -40.0851 C.2       5 UNK         0.5017 
     38 O          23.7424  -27.1317  -40.9871 O.2       5 UNK        -0.5012 
     39 N          25.7019  -26.2413  -40.2568 N.am      6 UNK        -0.4439 
     40 CA         26.4719  -26.2717  -41.5081 C.3       6 UNK         0.0297 
     41 CB         25.9138  -25.2482  -42.5237 C.3       6 UNK        -0.2006 
     42 C          26.5897  -27.7019  -42.0717 C.2       6 UNK         0.4892 
     43 O          27.4561  -28.4515  -41.6195 O.2       6 UNK        -0.5089 
     44 N          25.7115  -28.0575  -43.0200 N.am      7 UNK        -0.4243 
     45 CA         25.5679  -29.4090  -43.5636 C.3       7 UNK         0.0196 
     46 CB         24.6734  -29.3627  -44.8134 C.3       7 UNK        -0.2007 
     47 C          24.9961  -30.4056  -42.5398 C.2       7 UNK         0.5020 
     48 O          25.4075  -31.5660  -42.5488 O.2       7 UNK        -0.5147 
     49 N          24.0691  -29.9342  -41.6887 N.am      8 UNK        -0.4734 
     50 CA         23.3588  -30.6711  -40.6343 C.3       8 UNK         0.0238 
     51 CB         24.2969  -30.9223  -39.4364 C.3       8 UNK        -0.1912 
     52 C          22.6757  -31.9529  -41.1520 C.2       8 UNK         0.5038 
     53 O          22.8753  -33.0341  -40.5937 O.2       8 UNK        -0.5046 
     54 N          21.9266  -31.8053  -42.2505 N.am      9 UNK        -0.4200 
     55 CA         21.3058  -32.9025  -43.0076 C.3       9 UNK         0.0839 
     56 C          20.0920  -33.6073  -42.3335 C.2       9 UNK         0.5513 
     57 N          19.5419  -33.1147  -41.2319 N.am      9 UNK        -0.7519 
     58 O          19.6432  -34.6409  -42.8228 O.2       9 UNK        -0.4960 
     59 C59        21.0053  -32.4791  -44.4701 C.3       10 UNK        -0.0876 
     60 S60        19.9663  -30.9855  -44.5865 S.3       10 UNK        -0.2414 
     61 C61        18.3454  -31.7049  -44.9772 C.3       10 UNK         0.0169 
     62 H62        21.4444  -29.6566  -46.8439 H         1 UNK         0.0903 
     63 H63        20.0051  -30.0420  -47.8080 H         1 UNK         0.0903 
     64 H64        21.6121  -30.2356  -48.4950 H         1 UNK         0.0903 
     65 H65        20.2628  -26.3037  -48.0769 H         1 UNK         0.3096 
     66 H66        19.2022  -28.4518  -46.3451 H         1 UNK         0.1121 
     67 H67        17.6063  -26.6386  -45.5775 H         1 UNK         0.0849 
     68 H68        18.3365  -25.5452  -46.7254 H         1 UNK         0.0849 
     69 H69        15.0267  -27.0350  -46.5293 H         1 UNK         0.0865 
     70 H70        14.9523  -28.4365  -47.5662 H         1 UNK         0.0865 
     71 H71        17.3263  -30.0306  -46.8716 H         1 UNK         0.1346 
     72 H72        16.9996  -31.0387  -42.7172 H         1 UNK         0.1412 
     73 H73        14.7249  -27.7752  -44.3100 H         1 UNK         0.1426 
     74 H74        14.1392  -28.8066  -42.1232 H         1 UNK         0.0716 
     75 H75        15.1248  -30.0592  -41.4212 H         1 UNK         0.0716 
     76 H76        17.3541  -28.3176  -39.1491 H         1 UNK         0.0695 
     77 H77        16.8807  -29.8074  -39.9087 H         1 UNK         0.0695 
     78 H78        18.6476  -29.6754  -41.5594 H         1 UNK         0.0983 
     79 H79        18.4973  -26.9484  -41.3345 H         1 UNK         0.3095 
     80 H80        19.6915  -25.5100  -42.3908 H         1 UNK         0.0454 
     81 H81        22.0432  -25.2816  -41.8767 H         1 UNK         0.0851 
     82 H82        22.5238  -26.2899  -43.2277 H         1 UNK         0.0851 
     83 H83        21.7957  -24.7110  -43.5184 H         1 UNK         0.0851 
     84 H84        18.8518  -26.1393  -44.3328 H         1 UNK         0.2976 
     85 H85        20.0262  -27.6916  -38.9307 H         1 UNK         0.3116 
     86 H86        21.5548  -30.0300  -37.9183 H         1 UNK         0.0646 
     87 H87        20.8233  -29.5554  -35.6002 H         1 UNK         0.0847 
     88 H88        19.4326  -29.9427  -36.5950 H         1 UNK         0.0847 
     89 H89        19.7667  -28.2662  -36.1621 H         1 UNK         0.0847 
     90 H90        22.3107  -27.6749  -39.5167 H         1 UNK         0.3040 
     91 H91        24.6103  -26.8697  -37.9559 H         1 UNK         0.1015 
     92 H92        22.9731  -25.0311  -37.3805 H         1 UNK         0.0786 
     93 H93        22.6584  -24.7673  -39.0949 H         1 UNK         0.0786 
     94 H94        24.2466  -24.4207  -38.4232 H         1 UNK         0.0786 
     95 H95        26.2041  -25.8997  -39.4487 H         1 UNK         0.3172 
     96 H96        27.4859  -25.9571  -41.2560 H         1 UNK         0.0595 
     97 H97        24.8655  -25.4226  -42.7655 H         1 UNK         0.0839 
     98 H98        26.4769  -25.2757  -43.4577 H         1 UNK         0.0839 
     99 H99        25.9919  -24.2332  -42.1343 H         1 UNK         0.0839 
    100 H100       25.0046  -27.3856  -43.2822 H         1 UNK         0.2998 
    101 H101       26.5578  -29.7628  -43.8598 H         1 UNK         0.0822 
    102 H102       25.0847  -28.7002  -45.5752 H         1 UNK         0.0787 
    103 H103       24.5775  -30.3527  -45.2614 H         1 UNK         0.0787 
    104 H104       23.6666  -29.0165  -44.5747 H         1 UNK         0.0787 
    105 H105       23.8163  -28.9514  -41.7636 H         1 UNK         0.3055 
    106 H106       22.5566  -30.0164  -40.2957 H         1 UNK         0.1106 
    107 H107       23.7610  -31.3939  -38.6119 H         1 UNK         0.0828 
    108 H108       25.1261  -31.5776  -39.7052 H         1 UNK         0.0828 
    109 H109       24.7153  -29.9890  -39.0596 H         1 UNK         0.0828 
    110 H110       21.7822  -30.8748  -42.6208 H         1 UNK         0.2931 
    111 H111       22.0666  -33.6828  -43.0752 H         1 UNK         0.0412 
    112 H112       18.7663  -33.6033  -40.8157 H         1 UNK         0.3472 
    113 H113       19.8885  -32.2658  -40.7928 H         1 UNK         0.3472 
    114 H114       20.5547  -33.2970  -45.0358 H         1 UNK         0.0970 
    115 H115       21.9450  -32.2613  -44.9799 H         1 UNK         0.0970 
    116 H116       18.1396  -32.5486  -44.3172 H         1 UNK         0.0612 
    117 H117       18.3533  -32.0949  -45.9962 H         1 UNK         0.0612 
@<TRIPOS>BOND
     1    1    2 1    
     2    1   62 1    
     3    1   63 1    
     4    1   64 1    
     5    2    3 2    
     6    2    4 am   BACKBONE|DICT|INTERRES
     7    4    5 1    
     8    4   65 1    
     9    5    6 1    
    10    5   25 1    
    11    5   66 1    
    12    6    7 1    
    13    6   67 1    
    14    6   68 1    
    15    7    8 1    
    16    8    9 1    
    17    8   69 1    
    18    8   70 1    
    19    9   10 ar   
    20    9   14 ar   
    21   10   11 ar   
    22   10   71 1    
    23   11   12 ar   
    24   11   61 1    
    25   12   13 ar   
    26   12   72 1    
    27   13   14 ar   
    28   13   15 1    
    29   14   73 1    
    30   15   16 1    
    31   15   74 1    
    32   15   75 1    
    33   16   17 1    
    34   17   18 1    
    35   17   76 1    
    36   17   77 1    
    37   18   19 1    
    38   18   27 1    
    39   18   78 1    
    40   19   20 am   BACKBONE|DICT|INTERRES
    41   19   79 1    
    42   20   21 2    
    43   20   22 1    
    44   22   23 1    
    45   22   24 1    
    46   22   80 1    
    47   23   81 1    
    48   23   82 1    
    49   23   83 1    
    50   24   25 am   BACKBONE|DICT|INTERRES
    51   24   84 1    
    52   25   26 2    
    53   27   28 2    
    54   27   29 am   BACKBONE|DICT|INTERRES
    55   29   30 1    
    56   29   85 1    
    57   30   31 1    
    58   30   32 1    
    59   30   86 1    
    60   31   87 1    
    61   31   88 1    
    62   31   89 1    
    63   32   33 2    
    64   32   34 am   BACKBONE|DICT|INTERRES
    65   34   35 1    
    66   34   90 1    
    67   35   36 1    
    68   35   37 1    
    69   35   91 1    
    70   36   92 1    
    71   36   93 1    
    72   36   94 1    
    73   37   38 2    
    74   37   39 am   BACKBONE|DICT|INTERRES
    75   39   40 1    
    76   39   95 1    
    77   40   41 1    
    78   40   42 1    
    79   40   96 1    
    80   41   97 1    
    81   41   98 1    
    82   41   99 1    
    83   42   43 2    
    84   42   44 am   BACKBONE|DICT|INTERRES
    85   44   45 1    
    86   44  100 1    
    87   45   46 1    
    88   45   47 1    
    89   45  101 1    
    90   46  102 1    
    91   46  103 1    
    92   46  104 1    
    93   47   48 2    
    94   47   49 am   BACKBONE|DICT|INTERRES
    95   49   50 1    
    96   49  105 1    
    97   50   51 1    
    98   50   52 1    
    99   50  106 1    
   100   51  107 1    
   101   51  108 1    
   102   51  109 1    
   103   52   53 2    
   104   52   54 am   BACKBONE|DICT|INTERRES
   105   54   55 1    
   106   54  110 1    
   107   55   56 1    
   108   55   59 1    
   109   55  111 1    
   110   56   57 am   BACKBONE|DICT|INTERRES
   111   56   58 2    
   112   57  112 1    
   113   57  113 1    
   114   59   60 1    
   115   59  114 1    
   116   59  115 1    
   117   60   61 1    
   118   61  116 1    
   119   61  117 1    
@<TRIPOS>SUBSTRUCTURE
     1 UNK         1 GROUP             0       ****    0 ROOT    
