@<TRIPOS>MOLECULE
3R8
117   119    1
SMALL
USER_CHARGES


@<TRIPOS>ATOM
      1 CA         15.3190  -24.7653  -45.6161 C.3       0 UNK        -0.2013 
      2 C          16.5689  -24.9289  -46.4676 C.2       0 UNK         0.4866 
      3 O          17.1878  -23.9287  -46.8310 O.2       0 UNK        -0.5176 
      4 N          16.9332  -26.1734  -46.8107 N.am      1 UNK        -0.4884 
      5 CA         18.0706  -26.4890  -47.6824 C.3       1 UNK         0.0853 
      6 C6         17.9631  -27.9136  -48.2969 C.3       10 UNK        -0.0849 
      7 S7         18.2980  -29.3169  -47.1673 S.3       10 UNK        -0.2776 
      8 C8         16.6445  -29.8371  -46.6065 C.3       10 UNK         0.0316 
      9 C9         16.5623  -29.7971  -45.0869 C.ar      10 UNK        -0.0863 
     10 C10        17.1583  -30.8065  -44.3237 C.ar      10 UNK        -0.1009 
     11 C11        17.1214  -30.7563  -42.9265 C.ar      10 UNK        -0.0712 
     12 C12        16.4704  -29.6953  -42.2912 C.ar      10 UNK        -0.0894 
     13 C13        15.8955  -28.6679  -43.0434 C.ar      10 UNK        -0.0745 
     14 C14        15.9220  -28.7376  -44.4391 C.ar      10 UNK        -0.0972 
     15 C15        15.2872  -27.4556  -42.3570 C.3       10 UNK         0.0209 
     16 S16        16.4108  -26.0233  -42.4523 S.3       10 UNK        -0.2568 
     17 C17        17.6169  -26.3670  -41.1259 C.3       10 UNK        -0.0983 
     18 CA         18.8708  -27.1590  -41.5837 C.3       3 UNK         0.0876 
     19 N          19.5020  -26.5820  -42.7802 N.am      3 UNK        -0.4424 
     20 C          20.3705  -27.2388  -43.5605 C.2       2 UNK         0.4918 
     21 O          20.8159  -28.3526  -43.2937 O.2       2 UNK        -0.4875 
     22 CA         20.7436  -26.5627  -44.8861 C.3       2 UNK         0.0481 
     23 CB         21.9579  -27.2526  -45.5523 C.3       2 UNK        -0.1831 
     24 N          19.5554  -26.6217  -45.7369 N.am      2 UNK        -0.4498 
     25 C          19.4321  -26.2113  -47.0062 C.2       1 UNK         0.5027 
     26 O          20.3149  -25.6283  -47.6378 O.2       1 UNK        -0.4969 
     27 C          19.8301  -27.3712  -40.3903 C.2       3 UNK         0.5005 
     28 O          19.4615  -28.0724  -39.4459 O.2       3 UNK        -0.5279 
     29 N          21.0179  -26.7502  -40.4208 N.am      4 UNK        -0.4463 
     30 CA         22.0545  -26.9025  -39.4010 C.3       4 UNK         0.0283 
     31 CB         23.1033  -25.7906  -39.5683 C.3       4 UNK        -0.1875 
     32 C          22.7188  -28.2847  -39.4906 C.2       4 UNK         0.4949 
     33 O          23.1525  -28.6811  -40.5737 O.2       4 UNK        -0.5039 
     34 N          22.8580  -28.9571  -38.3402 N.am      5 UNK        -0.4663 
     35 CA         23.4840  -30.2810  -38.2084 C.3       5 UNK         0.0242 
     36 CB         23.2604  -30.8019  -36.7794 C.3       5 UNK        -0.1982 
     37 C          24.9833  -30.3132  -38.5669 C.2       5 UNK         0.5017 
     38 O          25.5169  -31.3840  -38.8564 O.2       5 UNK        -0.5012 
     39 N          25.6346  -29.1430  -38.5409 N.am      6 UNK        -0.4439 
     40 CA         27.0068  -28.9409  -39.0045 C.3       6 UNK         0.0297 
     41 CB         27.5837  -27.6904  -38.3202 C.3       6 UNK        -0.2006 
     42 C          27.1119  -28.8067  -40.5363 C.2       6 UNK         0.4892 
     43 O          28.2095  -28.9817  -41.0671 O.2       6 UNK        -0.5089 
     44 N          26.0027  -28.4754  -41.2147 N.am      7 UNK        -0.4243 
     45 CA         25.9527  -28.2493  -42.6592 C.3       7 UNK         0.0196 
     46 CB         25.0583  -27.0347  -42.9605 C.3       7 UNK        -0.2007 
     47 C          25.4520  -29.4926  -43.4052 C.2       7 UNK         0.5020 
     48 O          26.0578  -29.8711  -44.4085 O.2       7 UNK        -0.5147 
     49 N          24.3695  -30.1087  -42.9154 N.am      8 UNK        -0.4734 
     50 CA         23.7537  -31.3011  -43.5004 C.3       8 UNK         0.0238 
     51 CB         22.8976  -30.9170  -44.7295 C.3       8 UNK        -0.1912 
     52 C          22.9751  -32.0686  -42.4186 C.2       8 UNK         0.5038 
     53 O          23.3549  -32.0166  -41.2488 O.2       8 UNK        -0.5046 
     54 N          21.9177  -32.7824  -42.8277 N.am      9 UNK        -0.4200 
     55 CA         21.0009  -33.5630  -41.9742 C.3       9 UNK         0.0839 
     56 C          21.6202  -34.8539  -41.3576 C.2       9 UNK         0.5513 
     57 N          22.7604  -35.3357  -41.8377 N.am      9 UNK        -0.7519 
     58 O          21.0432  -35.4514  -40.4523 O.2       9 UNK        -0.4960 
     59 C59        20.2438  -32.7049  -40.9158 C.3       10 UNK        -0.0876 
     60 S60        19.4799  -31.2043  -41.6151 S.3       10 UNK        -0.2414 
     61 C61        17.8383  -31.8120  -42.1015 C.3       10 UNK         0.0169 
     62 H62        14.5537  -24.2292  -46.1765 H         1 UNK         0.0903 
     63 H63        14.9010  -25.7207  -45.3041 H         1 UNK         0.0903 
     64 H64        15.5485  -24.1873  -44.7214 H         1 UNK         0.0903 
     65 H65        16.3935  -26.9622  -46.4915 H         1 UNK         0.3096 
     66 H66        18.0135  -25.7925  -48.5230 H         1 UNK         0.1121 
     67 H67        16.9869  -28.0470  -48.7655 H         1 UNK         0.0849 
     68 H68        18.6785  -27.9958  -49.1173 H         1 UNK         0.0849 
     69 H69        15.8678  -29.2139  -47.0513 H         1 UNK         0.0865 
     70 H70        16.4539  -30.8526  -46.9571 H         1 UNK         0.0865 
     71 H71        17.6784  -31.6151  -44.8191 H         1 UNK         0.1346 
     72 H72        16.4641  -29.6421  -41.2109 H         1 UNK         0.1412 
     73 H73        15.4628  -27.9499  -45.0159 H         1 UNK         0.1426 
     74 H74        15.0409  -27.6716  -41.3163 H         1 UNK         0.0716 
     75 H75        14.3466  -27.1981  -42.8461 H         1 UNK         0.0716 
     76 H76        17.1048  -26.8950  -40.3192 H         1 UNK         0.0695 
     77 H77        17.9166  -25.4040  -40.7081 H         1 UNK         0.0695 
     78 H78        18.5489  -28.1608  -41.8650 H         1 UNK         0.0983 
     79 H79        19.1582  -25.6781  -43.0716 H         1 UNK         0.3095 
     80 H80        20.9888  -25.5185  -44.6848 H         1 UNK         0.0454 
     81 H81        21.7018  -28.2477  -45.9176 H         1 UNK         0.0851 
     82 H82        22.7808  -27.3692  -44.8473 H         1 UNK         0.0851 
     83 H83        22.3440  -26.6761  -46.3919 H         1 UNK         0.0851 
     84 H84        18.7623  -27.0980  -45.3272 H         1 UNK         0.2976 
     85 H85        21.2593  -26.2251  -41.2476 H         1 UNK         0.3116 
     86 H86        21.5899  -26.7891  -38.4190 H         1 UNK         0.0646 
     87 H87        23.5964  -25.8392  -40.5396 H         1 UNK         0.0847 
     88 H88        23.8795  -25.8660  -38.8057 H         1 UNK         0.0847 
     89 H89        22.6530  -24.8026  -39.4711 H         1 UNK         0.0847 
     90 H90        22.4791  -28.5537  -37.4947 H         1 UNK         0.3040 
     91 H91        22.9755  -30.9548  -38.9007 H         1 UNK         0.1015 
     92 H92        23.7278  -30.1554  -36.0356 H         1 UNK         0.0786 
     93 H93        23.6850  -31.7996  -36.6571 H         1 UNK         0.0786 
     94 H94        22.1982  -30.8746  -36.5446 H         1 UNK         0.0786 
     95 H95        25.1195  -28.3237  -38.2547 H         1 UNK         0.3172 
     96 H96        27.6111  -29.8002  -38.7055 H         1 UNK         0.0595 
     97 H97        27.0259  -26.7904  -38.5825 H         1 UNK         0.0839 
     98 H98        28.6209  -27.5274  -38.6168 H         1 UNK         0.0839 
     99 H99        27.5722  -27.7899  -37.2346 H         1 UNK         0.0839 
    100 H100       25.1138  -28.4372  -40.7276 H         1 UNK         0.2998 
    101 H101       26.9532  -28.0182  -43.0321 H         1 UNK         0.0822 
    102 H102       25.4173  -26.1421  -42.4481 H         1 UNK         0.0787 
    103 H103       25.0540  -26.8138  -44.0285 H         1 UNK         0.0787 
    104 H104       24.0243  -27.2034  -42.6574 H         1 UNK         0.0787 
    105 H105       23.9277  -29.7589  -42.0673 H         1 UNK         0.3055 
    106 H106       24.5513  -31.9702  -43.8305 H         1 UNK         0.1106 
    107 H107       22.5745  -31.7981  -45.2843 H         1 UNK         0.0828 
    108 H108       22.0053  -30.3629  -44.4381 H         1 UNK         0.0828 
    109 H109       23.4556  -30.2970  -45.4309 H         1 UNK         0.0828 
    110 H110       21.6865  -32.7715  -43.8097 H         1 UNK         0.2931 
    111 H111       20.2443  -33.9377  -42.6643 H         1 UNK         0.0412 
    112 H112       23.2409  -34.8620  -42.5855 H         1 UNK         0.3472 
    113 H113       23.1478  -36.1773  -41.4404 H         1 UNK         0.3472 
    114 H114       20.9277  -32.3927  -40.1249 H         1 UNK         0.0970 
    115 H115       19.4683  -33.2944  -40.4234 H         1 UNK         0.0970 
    116 H116       17.2582  -32.0558  -41.2103 H         1 UNK         0.0612 
    117 H117       17.9434  -32.7350  -42.6736 H         1 UNK         0.0612 
@<TRIPOS>BOND
     1    1    2 1    
     2    1   62 1    
     3    1   63 1    
     4    1   64 1    
     5    2    3 2    
     6    2    4 am   BACKBONE|DICT|INTERRES
     7    4    5 1    
     8    4   65 1    
     9    5    6 1    
    10    5   25 1    
    11    5   66 1    
    12    6    7 1    
    13    6   67 1    
    14    6   68 1    
    15    7    8 1    
    16    8    9 1    
    17    8   69 1    
    18    8   70 1    
    19    9   10 ar   
    20    9   14 ar   
    21   10   11 ar   
    22   10   71 1    
    23   11   12 ar   
    24   11   61 1    
    25   12   13 ar   
    26   12   72 1    
    27   13   14 ar   
    28   13   15 1    
    29   14   73 1    
    30   15   16 1    
    31   15   74 1    
    32   15   75 1    
    33   16   17 1    
    34   17   18 1    
    35   17   76 1    
    36   17   77 1    
    37   18   19 1    
    38   18   27 1    
    39   18   78 1    
    40   19   20 am   BACKBONE|DICT|INTERRES
    41   19   79 1    
    42   20   21 2    
    43   20   22 1    
    44   22   23 1    
    45   22   24 1    
    46   22   80 1    
    47   23   81 1    
    48   23   82 1    
    49   23   83 1    
    50   24   25 am   BACKBONE|DICT|INTERRES
    51   24   84 1    
    52   25   26 2    
    53   27   28 2    
    54   27   29 am   BACKBONE|DICT|INTERRES
    55   29   30 1    
    56   29   85 1    
    57   30   31 1    
    58   30   32 1    
    59   30   86 1    
    60   31   87 1    
    61   31   88 1    
    62   31   89 1    
    63   32   33 2    
    64   32   34 am   BACKBONE|DICT|INTERRES
    65   34   35 1    
    66   34   90 1    
    67   35   36 1    
    68   35   37 1    
    69   35   91 1    
    70   36   92 1    
    71   36   93 1    
    72   36   94 1    
    73   37   38 2    
    74   37   39 am   BACKBONE|DICT|INTERRES
    75   39   40 1    
    76   39   95 1    
    77   40   41 1    
    78   40   42 1    
    79   40   96 1    
    80   41   97 1    
    81   41   98 1    
    82   41   99 1    
    83   42   43 2    
    84   42   44 am   BACKBONE|DICT|INTERRES
    85   44   45 1    
    86   44  100 1    
    87   45   46 1    
    88   45   47 1    
    89   45  101 1    
    90   46  102 1    
    91   46  103 1    
    92   46  104 1    
    93   47   48 2    
    94   47   49 am   BACKBONE|DICT|INTERRES
    95   49   50 1    
    96   49  105 1    
    97   50   51 1    
    98   50   52 1    
    99   50  106 1    
   100   51  107 1    
   101   51  108 1    
   102   51  109 1    
   103   52   53 2    
   104   52   54 am   BACKBONE|DICT|INTERRES
   105   54   55 1    
   106   54  110 1    
   107   55   56 1    
   108   55   59 1    
   109   55  111 1    
   110   56   57 am   BACKBONE|DICT|INTERRES
   111   56   58 2    
   112   57  112 1    
   113   57  113 1    
   114   59   60 1    
   115   59  114 1    
   116   59  115 1    
   117   60   61 1    
   118   61  116 1    
   119   61  117 1    
@<TRIPOS>SUBSTRUCTURE
     1 UNK         1 GROUP             0       ****    0 ROOT    
