@<TRIPOS>MOLECULE
3R8
117   119    1
SMALL
USER_CHARGES


@<TRIPOS>ATOM
      1 CA         15.5910  -22.7486  -46.7622 C.3       0 UNK        -0.2013 
      2 C          16.4044  -23.8696  -46.1338 C.2       0 UNK         0.4866 
      3 O          17.6233  -23.9031  -46.2907 O.2       0 UNK        -0.5176 
      4 N          15.7430  -24.7747  -45.4008 N.am      1 UNK        -0.4884 
      5 CA         16.3231  -25.9738  -44.7705 C.3       1 UNK         0.0853 
      6 C6         15.2385  -27.0591  -44.5388 C.3       10 UNK        -0.0849 
      7 S7         14.6776  -27.7506  -46.1400 S.3       10 UNK        -0.2776 
      8 C8         15.3475  -29.4549  -46.1655 C.3       10 UNK         0.0316 
      9 C9         16.7459  -29.5675  -45.5704 C.ar      10 UNK        -0.0863 
     10 C10        16.9293  -30.2413  -44.3586 C.ar      10 UNK        -0.1009 
     11 C11        18.1846  -30.2792  -43.7482 C.ar      10 UNK        -0.0712 
     12 C12        19.2618  -29.6421  -44.3693 C.ar      10 UNK        -0.0894 
     13 C13        19.0996  -28.9688  -45.5820 C.ar      10 UNK        -0.0745 
     14 C14        17.8405  -28.9579  -46.1930 C.ar      10 UNK        -0.0972 
     15 C15        20.2690  -28.2126  -46.2008 C.3       10 UNK         0.0209 
     16 S16        19.9664  -26.4180  -46.1388 S.3       10 UNK        -0.2568 
     17 C17        21.5200  -25.6908  -45.4963 C.3       10 UNK        -0.0983 
     18 CA         21.4845  -25.2689  -43.9960 C.3       3 UNK         0.0876 
     19 N          20.1716  -24.7506  -43.5913 N.am      3 UNK        -0.4424 
     20 C          19.8266  -24.2540  -42.3942 C.2       2 UNK         0.4918 
     21 O          20.6265  -24.0675  -41.4773 O.2       2 UNK        -0.4875 
     22 CA         18.3369  -23.9130  -42.1678 C.3       2 UNK         0.0481 
     23 CB         18.1493  -22.3942  -42.0205 C.3       2 UNK        -0.1831 
     24 N          17.4375  -24.3997  -43.2207 N.am      2 UNK        -0.4498 
     25 C          17.1671  -25.6828  -43.5040 C.2       1 UNK         0.5027 
     26 O          17.6045  -26.6181  -42.8321 O.2       1 UNK        -0.4969 
     27 C          22.0218  -26.3925  -43.0847 C.2       3 UNK         0.5005 
     28 O          23.2380  -26.4842  -42.9056 O.2       3 UNK        -0.5279 
     29 N          21.1253  -27.2339  -42.5417 N.am      4 UNK        -0.4463 
     30 CA         21.3816  -28.3154  -41.5726 C.3       4 UNK         0.0283 
     31 CB         21.8406  -27.7275  -40.2227 C.3       4 UNK        -0.1875 
     32 C          22.3381  -29.4313  -42.0476 C.2       4 UNK         0.4949 
     33 O          22.6924  -30.2961  -41.2454 O.2       4 UNK        -0.5039 
     34 N          22.7389  -29.3940  -43.3281 N.am      5 UNK        -0.4663 
     35 CA         23.6697  -30.2986  -44.0106 C.3       5 UNK         0.0242 
     36 CB         23.0364  -31.6964  -44.1700 C.3       5 UNK        -0.1982 
     37 C          25.0546  -30.3261  -43.3365 C.2       5 UNK         0.5017 
     38 O          25.6425  -31.3956  -43.1840 O.2       5 UNK        -0.5012 
     39 N          25.5247  -29.1474  -42.8947 N.am      6 UNK        -0.4439 
     40 CA         26.7302  -28.9393  -42.0779 C.3       6 UNK         0.0297 
     41 CB         28.0093  -29.2599  -42.8808 C.3       6 UNK        -0.2006 
     42 C          26.6566  -29.6878  -40.7292 C.2       6 UNK         0.4892 
     43 O          27.6426  -30.2829  -40.2926 O.2       6 UNK        -0.5089 
     44 N          25.4624  -29.6480  -40.1203 N.am      7 UNK        -0.4243 
     45 CA         25.0349  -30.3089  -38.8825 C.3       7 UNK         0.0196 
     46 CB         25.9467  -29.9509  -37.6896 C.3       7 UNK        -0.2007 
     47 C          24.8022  -31.8268  -39.0126 C.2       7 UNK         0.5020 
     48 O          24.5050  -32.4647  -38.0013 O.2       7 UNK        -0.5147 
     49 N          24.8727  -32.3924  -40.2289 N.am      8 UNK        -0.4734 
     50 CA         24.5761  -33.8083  -40.4870 C.3       8 UNK         0.0238 
     51 CB         25.0813  -34.2187  -41.8782 C.3       8 UNK        -0.1912 
     52 C          23.0893  -34.1718  -40.3131 C.2       8 UNK         0.5038 
     53 O          22.7924  -35.3492  -40.1043 O.2       8 UNK        -0.5046 
     54 N          22.1906  -33.1761  -40.3579 N.am      9 UNK        -0.4200 
     55 CA         20.7855  -33.3221  -39.9410 C.3       9 UNK         0.0839 
     56 C          20.5943  -33.5260  -38.4063 C.2       9 UNK         0.5513 
     57 N          21.5998  -33.3201  -37.5619 N.am      9 UNK        -0.7519 
     58 O          19.5030  -33.8854  -37.9721 O.2       9 UNK        -0.4960 
     59 C59        19.9010  -32.1505  -40.4398 C.3       10 UNK        -0.0876 
     60 S60        19.7656  -32.0539  -42.2552 S.3       10 UNK        -0.2414 
     61 C61        18.3440  -30.9198  -42.3746 C.3       10 UNK         0.0169 
     62 H62        15.7018  -22.7690  -47.8461 H         1 UNK         0.0903 
     63 H63        14.5298  -22.8330  -46.5287 H         1 UNK         0.0903 
     64 H64        15.9422  -21.7819  -46.4023 H         1 UNK         0.0903 
     65 H65        14.7412  -24.6842  -45.3029 H         1 UNK         0.3096 
     66 H66        17.0460  -26.3848  -45.4771 H         1 UNK         0.1121 
     67 H67        15.5954  -27.8640  -43.8964 H         1 UNK         0.0849 
     68 H68        14.3792  -26.6352  -44.0168 H         1 UNK         0.0849 
     69 H69        14.6521  -30.1061  -45.6335 H         1 UNK         0.0865 
     70 H70        15.3652  -29.8129  -47.1958 H         1 UNK         0.0865 
     71 H71        16.0828  -30.7010  -43.8668 H         1 UNK         0.1346 
     72 H72        20.2247  -29.6573  -43.8908 H         1 UNK         0.1412 
     73 H73        17.6997  -28.4226  -47.1224 H         1 UNK         0.1426 
     74 H74        20.3950  -28.5194  -47.2399 H         1 UNK         0.0716 
     75 H75        21.2012  -28.4564  -45.6913 H         1 UNK         0.0716 
     76 H76        21.6982  -24.7965  -46.0954 H         1 UNK         0.0695 
     77 H77        22.3636  -26.3465  -45.7217 H         1 UNK         0.0695 
     78 H78        22.1857  -24.4405  -43.8732 H         1 UNK         0.0983 
     79 H79        19.4484  -24.8413  -44.2919 H         1 UNK         0.3095 
     80 H80        18.0382  -24.3864  -41.2304 H         1 UNK         0.0454 
     81 H81        17.1165  -22.1422  -41.7797 H         1 UNK         0.0851 
     82 H82        18.4220  -21.8635  -42.9335 H         1 UNK         0.0851 
     83 H83        18.7712  -21.9985  -41.2162 H         1 UNK         0.0851 
     84 H84        17.0601  -23.7041  -43.8486 H         1 UNK         0.2976 
     85 H85        20.1507  -27.0828  -42.7741 H         1 UNK         0.3116 
     86 H86        20.4197  -28.7999  -41.4069 H         1 UNK         0.0646 
     87 H87        22.8272  -27.2689  -40.2940 H         1 UNK         0.0847 
     88 H88        21.1451  -26.9678  -39.8657 H         1 UNK         0.0847 
     89 H89        21.8948  -28.4994  -39.4540 H         1 UNK         0.0847 
     90 H90        22.4339  -28.5969  -43.8665 H         1 UNK         0.3040 
     91 H91        23.8310  -29.8935  -45.0108 H         1 UNK         0.1015 
     92 H92        23.6884  -32.3639  -44.7345 H         1 UNK         0.0786 
     93 H93        22.0889  -31.6406  -44.7061 H         1 UNK         0.0786 
     94 H94        22.8409  -32.1643  -43.2053 H         1 UNK         0.0786 
     95 H95        24.9520  -28.3263  -43.0516 H         1 UNK         0.3172 
     96 H96        26.7541  -27.8762  -41.8341 H         1 UNK         0.0595 
     97 H97        28.0900  -30.3227  -43.1114 H         1 UNK         0.0839 
     98 H98        28.9018  -28.9834  -42.3181 H         1 UNK         0.0839 
     99 H99        28.0369  -28.7094  -43.8210 H         1 UNK         0.0839 
    100 H100       24.7140  -29.1863  -40.6189 H         1 UNK         0.2998 
    101 H101       24.0505  -29.8908  -38.6666 H         1 UNK         0.0822 
    102 H102       25.5105  -30.2924  -36.7500 H         1 UNK         0.0787 
    103 H103       26.0885  -28.8735  -37.6060 H         1 UNK         0.0787 
    104 H104       26.9292  -30.4157  -37.7734 H         1 UNK         0.0787 
    105 H105       25.0990  -31.8169  -41.0313 H         1 UNK         0.3055 
    106 H106       25.1297  -34.3954  -39.7506 H         1 UNK         0.1106 
    107 H107       26.1338  -33.9681  -42.0114 H         1 UNK         0.0828 
    108 H108       24.9835  -35.2952  -42.0239 H         1 UNK         0.0828 
    109 H109       24.5168  -33.7356  -42.6740 H         1 UNK         0.0828 
    110 H110       22.5025  -32.2343  -40.5715 H         1 UNK         0.2931 
    111 H111       20.4054  -34.2328  -40.4083 H         1 UNK         0.0412 
    112 H112       21.4457  -33.4634  -36.5764 H         1 UNK         0.3472 
    113 H113       22.5169  -33.0380  -37.8873 H         1 UNK         0.3472 
    114 H114       18.8879  -32.2472  -40.0435 H         1 UNK         0.0970 
    115 H115       20.2839  -31.1999  -40.0643 H         1 UNK         0.0970 
    116 H116       17.4434  -31.4705  -42.0986 H         1 UNK         0.0612 
    117 H117       18.4528  -30.1207  -41.6406 H         1 UNK         0.0612 
@<TRIPOS>BOND
     1    1    2 1    
     2    1   62 1    
     3    1   63 1    
     4    1   64 1    
     5    2    3 2    
     6    2    4 am   BACKBONE|DICT|INTERRES
     7    4    5 1    
     8    4   65 1    
     9    5    6 1    
    10    5   25 1    
    11    5   66 1    
    12    6    7 1    
    13    6   67 1    
    14    6   68 1    
    15    7    8 1    
    16    8    9 1    
    17    8   69 1    
    18    8   70 1    
    19    9   10 ar   
    20    9   14 ar   
    21   10   11 ar   
    22   10   71 1    
    23   11   12 ar   
    24   11   61 1    
    25   12   13 ar   
    26   12   72 1    
    27   13   14 ar   
    28   13   15 1    
    29   14   73 1    
    30   15   16 1    
    31   15   74 1    
    32   15   75 1    
    33   16   17 1    
    34   17   18 1    
    35   17   76 1    
    36   17   77 1    
    37   18   19 1    
    38   18   27 1    
    39   18   78 1    
    40   19   20 am   BACKBONE|DICT|INTERRES
    41   19   79 1    
    42   20   21 2    
    43   20   22 1    
    44   22   23 1    
    45   22   24 1    
    46   22   80 1    
    47   23   81 1    
    48   23   82 1    
    49   23   83 1    
    50   24   25 am   BACKBONE|DICT|INTERRES
    51   24   84 1    
    52   25   26 2    
    53   27   28 2    
    54   27   29 am   BACKBONE|DICT|INTERRES
    55   29   30 1    
    56   29   85 1    
    57   30   31 1    
    58   30   32 1    
    59   30   86 1    
    60   31   87 1    
    61   31   88 1    
    62   31   89 1    
    63   32   33 2    
    64   32   34 am   BACKBONE|DICT|INTERRES
    65   34   35 1    
    66   34   90 1    
    67   35   36 1    
    68   35   37 1    
    69   35   91 1    
    70   36   92 1    
    71   36   93 1    
    72   36   94 1    
    73   37   38 2    
    74   37   39 am   BACKBONE|DICT|INTERRES
    75   39   40 1    
    76   39   95 1    
    77   40   41 1    
    78   40   42 1    
    79   40   96 1    
    80   41   97 1    
    81   41   98 1    
    82   41   99 1    
    83   42   43 2    
    84   42   44 am   BACKBONE|DICT|INTERRES
    85   44   45 1    
    86   44  100 1    
    87   45   46 1    
    88   45   47 1    
    89   45  101 1    
    90   46  102 1    
    91   46  103 1    
    92   46  104 1    
    93   47   48 2    
    94   47   49 am   BACKBONE|DICT|INTERRES
    95   49   50 1    
    96   49  105 1    
    97   50   51 1    
    98   50   52 1    
    99   50  106 1    
   100   51  107 1    
   101   51  108 1    
   102   51  109 1    
   103   52   53 2    
   104   52   54 am   BACKBONE|DICT|INTERRES
   105   54   55 1    
   106   54  110 1    
   107   55   56 1    
   108   55   59 1    
   109   55  111 1    
   110   56   57 am   BACKBONE|DICT|INTERRES
   111   56   58 2    
   112   57  112 1    
   113   57  113 1    
   114   59   60 1    
   115   59  114 1    
   116   59  115 1    
   117   60   61 1    
   118   61  116 1    
   119   61  117 1    
@<TRIPOS>SUBSTRUCTURE
     1 UNK         1 GROUP             0       ****    0 ROOT    
