@<TRIPOS>MOLECULE
3R8
117   119    1
SMALL
USER_CHARGES


@<TRIPOS>ATOM
      1 CA         15.7680  -23.1545  -45.2499 C.3       0 UNK        -0.2013 
      2 C          16.5729  -24.4392  -45.3720 C.2       0 UNK         0.4866 
      3 O          17.1484  -24.8899  -44.3806 O.2       0 UNK        -0.5176 
      4 N          16.6201  -25.0219  -46.5814 N.am      1 UNK        -0.4884 
      5 CA         17.3266  -26.2616  -46.9356 C.3       1 UNK         0.0853 
      6 C6         16.5908  -27.5180  -46.3918 C.3       10 UNK        -0.0849 
      7 S7         17.2340  -29.0808  -47.0914 S.3       10 UNK        -0.2776 
      8 C8         16.7340  -30.3095  -45.8408 C.3       10 UNK         0.0316 
      9 C9         17.4469  -30.0999  -44.5125 C.ar      10 UNK        -0.0863 
     10 C10        18.7598  -30.5454  -44.3310 C.ar      10 UNK        -0.1009 
     11 C11        19.4172  -30.3300  -43.1153 C.ar      10 UNK        -0.0712 
     12 C12        18.7540  -29.6636  -42.0807 C.ar      10 UNK        -0.0894 
     13 C13        17.4450  -29.2078  -42.2538 C.ar      10 UNK        -0.0745 
     14 C14        16.7907  -29.4512  -43.4636 C.ar      10 UNK        -0.0972 
     15 C15        16.7287  -28.4447  -41.1489 C.3       10 UNK         0.0209 
     16 S16        16.3371  -26.7419  -41.6698 S.3       10 UNK        -0.2568 
     17 C17        17.6951  -25.7396  -40.9746 C.3       10 UNK        -0.0983 
     18 CA         19.1326  -26.1783  -41.3524 C.3       3 UNK         0.0876 
     19 N          19.3626  -26.2415  -42.8064 N.am      3 UNK        -0.4424 
     20 C          20.4701  -26.7590  -43.3682 C.2       2 UNK         0.4918 
     21 O          21.4173  -27.1874  -42.7071 O.2       2 UNK        -0.4875 
     22 CA         20.5646  -26.7815  -44.9026 C.3       2 UNK         0.0481 
     23 CB         21.4487  -27.9237  -45.4362 C.3       2 UNK        -0.1831 
     24 N          19.2396  -26.8668  -45.5051 N.am      2 UNK        -0.4498 
     25 C          18.8229  -26.1556  -46.5591 C.2       1 UNK         0.5027 
     26 O          19.5486  -25.3993  -47.2087 O.2       1 UNK        -0.4969 
     27 C          20.1622  -25.3001  -40.6083 C.2       3 UNK         0.5005 
     28 O          20.4398  -25.5597  -39.4367 O.2       3 UNK        -0.5279 
     29 N          20.7254  -24.2979  -41.2993 N.am      4 UNK        -0.4463 
     30 CA         21.8060  -23.4461  -40.7968 C.3       4 UNK         0.0283 
     31 CB         21.9387  -22.2106  -41.7018 C.3       4 UNK        -0.1875 
     32 C          23.1580  -24.1770  -40.6868 C.2       4 UNK         0.4949 
     33 O          23.9816  -23.7845  -39.8601 O.2       4 UNK        -0.5039 
     34 N          23.3701  -25.2077  -41.5174 N.am      5 UNK        -0.4663 
     35 CA         24.5733  -26.0410  -41.5092 C.3       5 UNK         0.0242 
     36 CB         24.8865  -26.5118  -42.9396 C.3       5 UNK        -0.1982 
     37 C          24.4101  -27.2388  -40.5631 C.2       5 UNK         0.5017 
     38 O          25.3149  -27.5030  -39.7701 O.2       5 UNK        -0.5012 
     39 N          23.2579  -27.9215  -40.6582 N.am      6 UNK        -0.4439 
     40 CA         22.8769  -29.1228  -39.9078 C.3       6 UNK         0.0297 
     41 CB         22.6300  -28.7750  -38.4218 C.3       6 UNK        -0.2006 
     42 C          23.8656  -30.2879  -40.1435 C.2       6 UNK         0.4892 
     43 O          24.2523  -30.5196  -41.2913 O.2       6 UNK        -0.5089 
     44 N          24.2494  -30.9910  -39.0672 N.am      7 UNK        -0.4243 
     45 CA         25.1590  -32.1418  -39.0331 C.3       7 UNK         0.0196 
     46 CB         26.5859  -31.7374  -39.4748 C.3       7 UNK        -0.2007 
     47 C          24.5766  -33.3617  -39.7753 C.2       7 UNK         0.5020 
     48 O          23.4225  -33.7190  -39.5308 O.2       7 UNK        -0.5147 
     49 N          25.3801  -34.0116  -40.6269 N.am      8 UNK        -0.4734 
     50 CA         25.0295  -35.2220  -41.3748 C.3       8 UNK         0.0238 
     51 CB         26.3269  -35.9580  -41.7607 C.3       8 UNK        -0.1912 
     52 C          24.1436  -34.9084  -42.5959 C.2       8 UNK         0.5038 
     53 O          24.6013  -35.0221  -43.7352 O.2       8 UNK        -0.5046 
     54 N          22.9001  -34.4956  -42.3297 N.am      9 UNK        -0.4200 
     55 CA         21.8649  -34.1880  -43.3278 C.3       9 UNK         0.0839 
     56 C          21.4730  -35.4173  -44.1918 C.2       9 UNK         0.5513 
     57 N          21.1844  -35.2113  -45.4695 N.am      9 UNK        -0.7519 
     58 O          21.3839  -36.5425  -43.7039 O.2       9 UNK        -0.4960 
     59 C59        20.6036  -33.5682  -42.6715 C.3       10 UNK        -0.0876 
     60 S60        20.9920  -32.0933  -41.6744 S.3       10 UNK        -0.2414 
     61 C61        20.8572  -30.7769  -42.9206 C.3       10 UNK         0.0169 
     62 H62        14.9832  -23.2758  -44.5038 H         1 UNK         0.0903 
     63 H63        15.2997  -22.8730  -46.1928 H         1 UNK         0.0903 
     64 H64        16.4149  -22.3366  -44.9336 H         1 UNK         0.0903 
     65 H65        16.1519  -24.5677  -47.3539 H         1 UNK         0.3096 
     66 H66        17.3016  -26.3180  -48.0254 H         1 UNK         0.1121 
     67 H67        16.6152  -27.5320  -45.3032 H         1 UNK         0.0849 
     68 H68        15.5334  -27.4613  -46.6552 H         1 UNK         0.0849 
     69 H69        15.6513  -30.2717  -45.7096 H         1 UNK         0.0865 
     70 H70        16.9576  -31.3085  -46.2182 H         1 UNK         0.0865 
     71 H71        19.2717  -31.0460  -45.1416 H         1 UNK         0.1346 
     72 H72        19.2685  -29.4958  -41.1449 H         1 UNK         0.1412 
     73 H73        15.7750  -29.1032  -43.5963 H         1 UNK         0.1426 
     74 H74        17.3094  -28.4325  -40.2255 H         1 UNK         0.0716 
     75 H75        15.7964  -28.9609  -40.9160 H         1 UNK         0.0716 
     76 H76        17.5264  -24.7085  -41.2916 H         1 UNK         0.0695 
     77 H77        17.5719  -25.7436  -39.8896 H         1 UNK         0.0695 
     78 H78        19.2879  -27.1835  -40.9632 H         1 UNK         0.0983 
     79 H79        18.6171  -25.8758  -43.3941 H         1 UNK         0.3095 
     80 H80        21.0342  -25.8350  -45.1770 H         1 UNK         0.0454 
     81 H81        21.0357  -28.9001  -45.1877 H         1 UNK         0.0851 
     82 H82        21.5472  -27.8713  -46.5203 H         1 UNK         0.0851 
     83 H83        22.4555  -27.8772  -45.0209 H         1 UNK         0.0851 
     84 H84        18.5770  -27.4705  -45.0359 H         1 UNK         0.2976 
     85 H85        20.4201  -24.1430  -42.2495 H         1 UNK         0.3116 
     86 H86        21.5335  -23.1061  -39.7952 H         1 UNK         0.0646 
     87 H87        22.7177  -21.5409  -41.3343 H         1 UNK         0.0847 
     88 H88        21.0115  -21.6380  -41.7325 H         1 UNK         0.0847 
     89 H89        22.2012  -22.4833  -42.7247 H         1 UNK         0.0847 
     90 H90        22.6168  -25.5083  -42.1220 H         1 UNK         0.3040 
     91 H91        25.4240  -25.4515  -41.1589 H         1 UNK         0.1015 
     92 H92        25.0430  -25.6663  -43.6096 H         1 UNK         0.0786 
     93 H93        24.0849  -27.1237  -43.3531 H         1 UNK         0.0786 
     94 H94        25.7960  -27.1138  -42.9588 H         1 UNK         0.0786 
     95 H95        22.6044  -27.6418  -41.3873 H         1 UNK         0.3172 
     96 H96        21.9225  -29.4452  -40.3238 H         1 UNK         0.0595 
     97 H97        22.1831  -29.6126  -37.8851 H         1 UNK         0.0839 
     98 H98        21.9373  -27.9379  -38.3294 H         1 UNK         0.0839 
     99 H99        23.5500  -28.4963  -37.9065 H         1 UNK         0.0839 
    100 H100       23.8450  -30.7352  -38.1778 H         1 UNK         0.2998 
    101 H101       25.2203  -32.4407  -37.9856 H         1 UNK         0.0822 
    102 H102       26.6330  -31.4747  -40.5323 H         1 UNK         0.0787 
    103 H103       26.9384  -30.8747  -38.9090 H         1 UNK         0.0787 
    104 H104       27.2998  -32.5429  -39.2980 H         1 UNK         0.0787 
    105 H105       26.3001  -33.6302  -40.7947 H         1 UNK         0.3055 
    106 H106       24.4565  -35.8859  -40.7229 H         1 UNK         0.1106 
    107 H107       26.9680  -35.3458  -42.3963 H         1 UNK         0.0828 
    108 H108       26.9009  -36.2405  -40.8779 H         1 UNK         0.0828 
    109 H109       26.1066  -36.8757  -42.3079 H         1 UNK         0.0828 
    110 H110       22.6447  -34.3543  -41.3590 H         1 UNK         0.2931 
    111 H111       22.2958  -33.4387  -43.9951 H         1 UNK         0.0412 
    112 H112       20.9117  -35.9947  -46.0428 H         1 UNK         0.3472 
    113 H113       21.2482  -34.2915  -45.8777 H         1 UNK         0.3472 
    114 H114       20.1181  -34.2960  -42.0185 H         1 UNK         0.0970 
    115 H115       19.8623  -33.3012  -43.4272 H         1 UNK         0.0970 
    116 H116       21.4538  -29.9233  -42.5989 H         1 UNK         0.0612 
    117 H117       21.2983  -31.1139  -43.8597 H         1 UNK         0.0612 
@<TRIPOS>BOND
     1    1    2 1    
     2    1   62 1    
     3    1   63 1    
     4    1   64 1    
     5    2    3 2    
     6    2    4 am   BACKBONE|DICT|INTERRES
     7    4    5 1    
     8    4   65 1    
     9    5    6 1    
    10    5   25 1    
    11    5   66 1    
    12    6    7 1    
    13    6   67 1    
    14    6   68 1    
    15    7    8 1    
    16    8    9 1    
    17    8   69 1    
    18    8   70 1    
    19    9   10 ar   
    20    9   14 ar   
    21   10   11 ar   
    22   10   71 1    
    23   11   12 ar   
    24   11   61 1    
    25   12   13 ar   
    26   12   72 1    
    27   13   14 ar   
    28   13   15 1    
    29   14   73 1    
    30   15   16 1    
    31   15   74 1    
    32   15   75 1    
    33   16   17 1    
    34   17   18 1    
    35   17   76 1    
    36   17   77 1    
    37   18   19 1    
    38   18   27 1    
    39   18   78 1    
    40   19   20 am   BACKBONE|DICT|INTERRES
    41   19   79 1    
    42   20   21 2    
    43   20   22 1    
    44   22   23 1    
    45   22   24 1    
    46   22   80 1    
    47   23   81 1    
    48   23   82 1    
    49   23   83 1    
    50   24   25 am   BACKBONE|DICT|INTERRES
    51   24   84 1    
    52   25   26 2    
    53   27   28 2    
    54   27   29 am   BACKBONE|DICT|INTERRES
    55   29   30 1    
    56   29   85 1    
    57   30   31 1    
    58   30   32 1    
    59   30   86 1    
    60   31   87 1    
    61   31   88 1    
    62   31   89 1    
    63   32   33 2    
    64   32   34 am   BACKBONE|DICT|INTERRES
    65   34   35 1    
    66   34   90 1    
    67   35   36 1    
    68   35   37 1    
    69   35   91 1    
    70   36   92 1    
    71   36   93 1    
    72   36   94 1    
    73   37   38 2    
    74   37   39 am   BACKBONE|DICT|INTERRES
    75   39   40 1    
    76   39   95 1    
    77   40   41 1    
    78   40   42 1    
    79   40   96 1    
    80   41   97 1    
    81   41   98 1    
    82   41   99 1    
    83   42   43 2    
    84   42   44 am   BACKBONE|DICT|INTERRES
    85   44   45 1    
    86   44  100 1    
    87   45   46 1    
    88   45   47 1    
    89   45  101 1    
    90   46  102 1    
    91   46  103 1    
    92   46  104 1    
    93   47   48 2    
    94   47   49 am   BACKBONE|DICT|INTERRES
    95   49   50 1    
    96   49  105 1    
    97   50   51 1    
    98   50   52 1    
    99   50  106 1    
   100   51  107 1    
   101   51  108 1    
   102   51  109 1    
   103   52   53 2    
   104   52   54 am   BACKBONE|DICT|INTERRES
   105   54   55 1    
   106   54  110 1    
   107   55   56 1    
   108   55   59 1    
   109   55  111 1    
   110   56   57 am   BACKBONE|DICT|INTERRES
   111   56   58 2    
   112   57  112 1    
   113   57  113 1    
   114   59   60 1    
   115   59  114 1    
   116   59  115 1    
   117   60   61 1    
   118   61  116 1    
   119   61  117 1    
@<TRIPOS>SUBSTRUCTURE
     1 UNK         1 GROUP             0       ****    0 ROOT    
