@<TRIPOS>MOLECULE
3R8
117   119    1
SMALL
USER_CHARGES


@<TRIPOS>ATOM
      1 CA         14.4562  -23.0363  -43.2622 C.3       0 UNK        -0.2013 
      2 C          15.3997  -23.8322  -44.1514 C.2       0 UNK         0.4866 
      3 O          16.4434  -23.3168  -44.5517 O.2       0 UNK        -0.5176 
      4 N          15.0396  -25.0841  -44.4659 N.am      1 UNK        -0.4884 
      5 CA         15.8379  -26.0010  -45.2922 C.3       1 UNK         0.0853 
      6 C6         14.9715  -27.1833  -45.8014 C.3       10 UNK        -0.0849 
      7 S7         15.6297  -27.9463  -47.3236 S.3       10 UNK        -0.2776 
      8 C8         15.7446  -29.7071  -46.8614 C.3       10 UNK         0.0316 
      9 C9         16.9017  -29.9993  -45.9135 C.ar      10 UNK        -0.0863 
     10 C10        16.6569  -30.3702  -44.5871 C.ar      10 UNK        -0.1009 
     11 C11        17.7166  -30.6855  -43.7301 C.ar      10 UNK        -0.0712 
     12 C12        19.0285  -30.6163  -44.2059 C.ar      10 UNK        -0.0894 
     13 C13        19.2886  -30.2472  -45.5272 C.ar      10 UNK        -0.0745 
     14 C14        18.2204  -29.9418  -46.3768 C.ar      10 UNK        -0.0972 
     15 C15        20.7175  -30.2129  -46.0506 C.3       10 UNK         0.0209 
     16 S16        21.4863  -28.5736  -45.8515 S.3       10 UNK        -0.2568 
     17 C17        22.2356  -28.6778  -44.1898 C.3       10 UNK        -0.0983 
     18 CA         21.7088  -27.5834  -43.2254 C.3       3 UNK         0.0876 
     19 N          20.2756  -27.7393  -42.9666 N.am      3 UNK        -0.4424 
     20 C          19.4387  -26.7866  -42.5406 C.2       2 UNK         0.4918 
     21 O          19.7775  -25.6260  -42.2973 O.2       2 UNK        -0.4875 
     22 CA         17.9832  -27.2252  -42.3112 C.3       2 UNK         0.0481 
     23 CB         17.5544  -26.9425  -40.8620 C.3       2 UNK        -0.1831 
     24 N          17.0089  -26.6276  -43.2281 N.am      2 UNK        -0.4498 
     25 C          17.1035  -26.5035  -44.5631 C.2       1 UNK         0.5027 
     26 O          18.1091  -26.7650  -45.2218 O.2       1 UNK        -0.4969 
     27 C          22.5105  -27.5320  -41.9043 C.2       3 UNK         0.5005 
     28 O          23.3993  -28.3568  -41.6799 O.2       3 UNK        -0.5279 
     29 N          22.1927  -26.5538  -41.0450 N.am      4 UNK        -0.4463 
     30 CA         22.7921  -26.3424  -39.7222 C.3       4 UNK         0.0283 
     31 CB         22.0367  -25.2158  -39.0001 C.3       4 UNK        -0.1875 
     32 C          24.3027  -26.0467  -39.7511 C.2       4 UNK         0.4949 
     33 O          24.9900  -26.3432  -38.7747 O.2       4 UNK        -0.5039 
     34 N          24.7965  -25.4987  -40.8711 N.am      5 UNK        -0.4663 
     35 CA         26.2222  -25.2789  -41.1308 C.3       5 UNK         0.0242 
     36 CB         26.3807  -24.3587  -42.3519 C.3       5 UNK        -0.1982 
     37 C          27.0034  -26.5899  -41.3369 C.2       5 UNK         0.5017 
     38 O          28.1745  -26.6557  -40.9620 O.2       5 UNK        -0.5012 
     39 N          26.3440  -27.6041  -41.9153 N.am      6 UNK        -0.4439 
     40 CA         26.8775  -28.9599  -42.0671 C.3       6 UNK         0.0297 
     41 CB         26.2605  -29.6165  -43.3136 C.3       6 UNK        -0.2006 
     42 C          26.6000  -29.8216  -40.8242 C.2       6 UNK         0.4892 
     43 O          27.3850  -30.7260  -40.5382 O.2       6 UNK        -0.5089 
     44 N          25.4882  -29.5282  -40.1305 N.am      7 UNK        -0.4243 
     45 CA         24.9142  -30.2581  -38.9958 C.3       7 UNK         0.0196 
     46 CB         25.8552  -30.2326  -37.7726 C.3       7 UNK        -0.2007 
     47 C          24.4762  -31.6737  -39.4122 C.2       7 UNK         0.5020 
     48 O          24.7909  -32.6519  -38.7318 O.2       7 UNK        -0.5147 
     49 N          23.7709  -31.7493  -40.5461 N.am      8 UNK        -0.4734 
     50 CA         23.2836  -32.9790  -41.1641 C.3       8 UNK         0.0238 
     51 CB         24.2372  -33.3693  -42.3075 C.3       8 UNK        -0.1912 
     52 C          21.8615  -32.7550  -41.6910 C.2       8 UNK         0.5038 
     53 O          21.4534  -31.6066  -41.8770 O.2       8 UNK        -0.5046 
     54 N          21.1468  -33.8577  -41.9344 N.am      9 UNK        -0.4200 
     55 CA         19.7820  -33.9031  -42.4801 C.3       9 UNK         0.0839 
     56 C          19.5015  -35.2611  -43.1903 C.2       9 UNK         0.5513 
     57 N          20.5043  -35.8970  -43.7868 N.am      9 UNK        -0.7519 
     58 O          18.3803  -35.7614  -43.1998 O.2       9 UNK        -0.4960 
     59 C59        18.7194  -33.4847  -41.4215 C.3       10 UNK        -0.0876 
     60 S60        17.1511  -32.8772  -42.1388 S.3       10 UNK        -0.2414 
     61 C61        17.4401  -31.0862  -42.2881 C.3       10 UNK         0.0169 
     62 H62        14.1288  -22.1331  -43.7765 H         1 UNK         0.0903 
     63 H63        13.5708  -23.6096  -42.9882 H         1 UNK         0.0903 
     64 H64        14.9654  -22.7403  -42.3453 H         1 UNK         0.0903 
     65 H65        14.1616  -25.4476  -44.1212 H         1 UNK         0.3096 
     66 H66        16.1792  -25.4307  -46.1598 H         1 UNK         0.1121 
     67 H67        13.9698  -26.8286  -46.0501 H         1 UNK         0.0849 
     68 H68        14.8307  -27.9356  -45.0228 H         1 UNK         0.0849 
     69 H69        14.7952  -30.0327  -46.4330 H         1 UNK         0.0865 
     70 H70        15.8791  -30.2959  -47.7699 H         1 UNK         0.0865 
     71 H71        15.6407  -30.4271  -44.2217 H         1 UNK         0.1346 
     72 H72        19.8497  -30.8594  -43.5507 H         1 UNK         0.1412 
     73 H73        18.4141  -29.6578  -47.4023 H         1 UNK         0.1426 
     74 H74        21.3245  -30.9775  -45.5631 H         1 UNK         0.0716 
     75 H75        20.7201  -30.4656  -47.1120 H         1 UNK         0.0716 
     76 H76        23.3130  -28.5739  -44.3292 H         1 UNK         0.0695 
     77 H77        22.0813  -29.6711  -43.7650 H         1 UNK         0.0695 
     78 H78        21.8601  -26.6179  -43.7133 H         1 UNK         0.0983 
     79 H79        19.8964  -28.6507  -43.1759 H         1 UNK         0.3095 
     80 H80        17.9265  -28.3014  -42.4601 H         1 UNK         0.0454 
     81 H81        17.5109  -25.8721  -40.6564 H         1 UNK         0.0851 
     82 H82        16.5742  -27.3672  -40.6453 H         1 UNK         0.0851 
     83 H83        18.2581  -27.3811  -40.1529 H         1 UNK         0.0851 
     84 H84        16.1407  -26.3291  -42.8095 H         1 UNK         0.2976 
     85 H85        21.4289  -25.9373  -41.3099 H         1 UNK         0.3116 
     86 H86        22.6557  -27.2640  -39.1524 H         1 UNK         0.0646 
     87 H87        20.9791  -25.4550  -38.8869 H         1 UNK         0.0847 
     88 H88        22.4393  -25.0543  -37.9990 H         1 UNK         0.0847 
     89 H89        22.1117  -24.2699  -39.5381 H         1 UNK         0.0847 
     90 H90        24.1513  -25.2601  -41.6102 H         1 UNK         0.3040 
     91 H91        26.6524  -24.7746  -40.2623 H         1 UNK         0.1015 
     92 H92        25.9548  -24.8024  -43.2527 H         1 UNK         0.0786 
     93 H93        27.4340  -24.1586  -42.5542 H         1 UNK         0.0786 
     94 H94        25.8960  -23.3958  -42.1890 H         1 UNK         0.0786 
     95 H95        25.3684  -27.4746  -42.1496 H         1 UNK         0.3172 
     96 H96        27.9590  -28.9106  -42.2113 H         1 UNK         0.0595 
     97 H97        25.1823  -29.7458  -43.2141 H         1 UNK         0.0839 
     98 H98        26.6886  -30.6056  -43.4819 H         1 UNK         0.0839 
     99 H99        26.4481  -29.0255  -44.2101 H         1 UNK         0.0839 
    100 H100       24.8746  -28.8271  -40.5342 H         1 UNK         0.2998 
    101 H101       24.0036  -29.7239  -38.7198 H         1 UNK         0.0822 
    102 H102       25.3687  -30.6690  -36.8995 H         1 UNK         0.0787 
    103 H103       26.7708  -30.7978  -37.9488 H         1 UNK         0.0787 
    104 H104       26.1350  -29.2116  -37.5122 H         1 UNK         0.0787 
    105 H105       23.4818  -30.8954  -41.0099 H         1 UNK         0.3055 
    106 H106       23.2490  -33.7825  -40.4246 H         1 UNK         0.1106 
    107 H107       25.2524  -33.5210  -41.9399 H         1 UNK         0.0828 
    108 H108       23.9255  -34.2987  -42.7853 H         1 UNK         0.0828 
    109 H109       24.2753  -32.5998  -43.0799 H         1 UNK         0.0828 
    110 H110       21.5578  -34.7630  -41.7527 H         1 UNK         0.2931 
    111 H111       19.7492  -33.1725  -43.2880 H         1 UNK         0.0412 
    112 H112       20.3205  -36.7789  -44.2402 H         1 UNK         0.3472 
    113 H113       21.4227  -35.4870  -43.8462 H         1 UNK         0.3472 
    114 H114       18.4960  -34.3240  -40.7607 H         1 UNK         0.0970 
    115 H115       19.1128  -32.7068  -40.7666 H         1 UNK         0.0970 
    116 H116       16.5550  -30.5608  -41.9262 H         1 UNK         0.0612 
    117 H117       18.2606  -30.7711  -41.6420 H         1 UNK         0.0612 
@<TRIPOS>BOND
     1    1    2 1    
     2    1   62 1    
     3    1   63 1    
     4    1   64 1    
     5    2    3 2    
     6    2    4 am   BACKBONE|DICT|INTERRES
     7    4    5 1    
     8    4   65 1    
     9    5    6 1    
    10    5   25 1    
    11    5   66 1    
    12    6    7 1    
    13    6   67 1    
    14    6   68 1    
    15    7    8 1    
    16    8    9 1    
    17    8   69 1    
    18    8   70 1    
    19    9   10 ar   
    20    9   14 ar   
    21   10   11 ar   
    22   10   71 1    
    23   11   12 ar   
    24   11   61 1    
    25   12   13 ar   
    26   12   72 1    
    27   13   14 ar   
    28   13   15 1    
    29   14   73 1    
    30   15   16 1    
    31   15   74 1    
    32   15   75 1    
    33   16   17 1    
    34   17   18 1    
    35   17   76 1    
    36   17   77 1    
    37   18   19 1    
    38   18   27 1    
    39   18   78 1    
    40   19   20 am   BACKBONE|DICT|INTERRES
    41   19   79 1    
    42   20   21 2    
    43   20   22 1    
    44   22   23 1    
    45   22   24 1    
    46   22   80 1    
    47   23   81 1    
    48   23   82 1    
    49   23   83 1    
    50   24   25 am   BACKBONE|DICT|INTERRES
    51   24   84 1    
    52   25   26 2    
    53   27   28 2    
    54   27   29 am   BACKBONE|DICT|INTERRES
    55   29   30 1    
    56   29   85 1    
    57   30   31 1    
    58   30   32 1    
    59   30   86 1    
    60   31   87 1    
    61   31   88 1    
    62   31   89 1    
    63   32   33 2    
    64   32   34 am   BACKBONE|DICT|INTERRES
    65   34   35 1    
    66   34   90 1    
    67   35   36 1    
    68   35   37 1    
    69   35   91 1    
    70   36   92 1    
    71   36   93 1    
    72   36   94 1    
    73   37   38 2    
    74   37   39 am   BACKBONE|DICT|INTERRES
    75   39   40 1    
    76   39   95 1    
    77   40   41 1    
    78   40   42 1    
    79   40   96 1    
    80   41   97 1    
    81   41   98 1    
    82   41   99 1    
    83   42   43 2    
    84   42   44 am   BACKBONE|DICT|INTERRES
    85   44   45 1    
    86   44  100 1    
    87   45   46 1    
    88   45   47 1    
    89   45  101 1    
    90   46  102 1    
    91   46  103 1    
    92   46  104 1    
    93   47   48 2    
    94   47   49 am   BACKBONE|DICT|INTERRES
    95   49   50 1    
    96   49  105 1    
    97   50   51 1    
    98   50   52 1    
    99   50  106 1    
   100   51  107 1    
   101   51  108 1    
   102   51  109 1    
   103   52   53 2    
   104   52   54 am   BACKBONE|DICT|INTERRES
   105   54   55 1    
   106   54  110 1    
   107   55   56 1    
   108   55   59 1    
   109   55  111 1    
   110   56   57 am   BACKBONE|DICT|INTERRES
   111   56   58 2    
   112   57  112 1    
   113   57  113 1    
   114   59   60 1    
   115   59  114 1    
   116   59  115 1    
   117   60   61 1    
   118   61  116 1    
   119   61  117 1    
@<TRIPOS>SUBSTRUCTURE
     1 UNK         1 GROUP             0       ****    0 ROOT    
