@<TRIPOS>MOLECULE
3R8
117   119    1
SMALL
USER_CHARGES


@<TRIPOS>ATOM
      1 CA         15.5653  -22.3696  -43.4717 C.3       0 UNK        -0.2013 
      2 C          16.6461  -23.0640  -44.2869 C.2       0 UNK         0.4866 
      3 O          17.4253  -22.3950  -44.9667 O.2       0 UNK        -0.5176 
      4 N          16.6932  -24.4006  -44.2325 N.am      1 UNK        -0.4884 
      5 CA         17.6939  -25.2309  -44.9097 C.3       1 UNK         0.0853 
      6 C6         17.3015  -26.7245  -44.8912 C.3       10 UNK        -0.0849 
      7 S7         15.8284  -27.0921  -45.9044 S.3       10 UNK        -0.2776 
      8 C8         15.1923  -28.6248  -45.1283 C.3       10 UNK         0.0316 
      9 C9         16.2857  -29.6174  -44.7376 C.ar      10 UNK        -0.0863 
     10 C10        16.2829  -30.1947  -43.4642 C.ar      10 UNK        -0.1009 
     11 C11        17.3128  -31.0514  -43.0604 C.ar      10 UNK        -0.0712 
     12 C12        18.3704  -31.3037  -43.9443 C.ar      10 UNK        -0.0894 
     13 C13        18.3795  -30.7458  -45.2248 C.ar      10 UNK        -0.0745 
     14 C14        17.3163  -29.9347  -45.6266 C.ar      10 UNK        -0.0972 
     15 C15        19.5321  -31.0072  -46.1823 C.3       10 UNK         0.0209 
     16 S16        20.4376  -29.4703  -46.5646 S.3       10 UNK        -0.2568 
     17 C17        22.0133  -29.6523  -45.6548 C.3       10 UNK        -0.0983 
     18 CA         22.2197  -28.6530  -44.4851 C.3       3 UNK         0.0876 
     19 N          21.7787  -27.2882  -44.8119 N.am      3 UNK        -0.4424 
     20 C          22.0517  -26.1840  -44.1013 C.2       2 UNK         0.4918 
     21 O          22.6648  -26.1922  -43.0346 O.2       2 UNK        -0.4875 
     22 CA         21.5213  -24.8530  -44.6551 C.3       2 UNK         0.0481 
     23 CB         22.4058  -24.3571  -45.8097 C.3       2 UNK        -0.1831 
     24 N          20.1272  -24.9470  -45.0964 N.am      2 UNK        -0.4498 
     25 C          19.0831  -25.0620  -44.2632 C.2       1 UNK         0.5027 
     26 O          19.1868  -25.0904  -43.0347 O.2       1 UNK        -0.4969 
     27 C          21.6772  -29.1936  -43.1464 C.2       3 UNK         0.5005 
     28 O          22.3205  -30.0571  -42.5458 O.2       3 UNK        -0.5279 
     29 N          20.5630  -28.6319  -42.6570 N.am      4 UNK        -0.4463 
     30 CA         20.0202  -28.8887  -41.3212 C.3       4 UNK         0.0283 
     31 CB         18.6760  -28.1603  -41.1695 C.3       4 UNK        -0.1875 
     32 C          20.9741  -28.4783  -40.1840 C.2       4 UNK         0.4949 
     33 O          20.9388  -29.0990  -39.1223 O.2       4 UNK        -0.5039 
     34 N          21.8098  -27.4603  -40.4304 N.am      5 UNK        -0.4663 
     35 CA         22.8352  -26.9797  -39.5073 C.3       5 UNK         0.0242 
     36 CB         22.7416  -25.4485  -39.3955 C.3       5 UNK        -0.1982 
     37 C          24.2330  -27.4063  -39.9739 C.2       5 UNK         0.5017 
     38 O          24.9778  -27.9871  -39.1857 O.2       5 UNK        -0.5012 
     39 N          24.5627  -27.1232  -41.2430 N.am      6 UNK        -0.4439 
     40 CA         25.8953  -27.2964  -41.8312 C.3       6 UNK         0.0297 
     41 CB         25.9380  -26.6209  -43.2116 C.3       6 UNK        -0.2006 
     42 C          26.3598  -28.7576  -41.9353 C.2       6 UNK         0.4892 
     43 O          27.5545  -29.0154  -41.7855 O.2       6 UNK        -0.5089 
     44 N          25.4175  -29.6778  -42.1750 N.am      7 UNK        -0.4243 
     45 CA         25.6521  -31.1238  -42.2012 C.3       7 UNK         0.0196 
     46 CB         25.1908  -31.6811  -43.5608 C.3       7 UNK        -0.2007 
     47 C          24.9334  -31.8280  -41.0375 C.2       7 UNK         0.5020 
     48 O          24.9054  -33.0583  -41.0113 O.2       7 UNK        -0.5147 
     49 N          24.3354  -31.0520  -40.1176 N.am      8 UNK        -0.4734 
     50 CA         23.5220  -31.4834  -38.9716 C.3       8 UNK         0.0238 
     51 CB         24.4216  -32.1248  -37.8942 C.3       8 UNK        -0.1912 
     52 C          22.3283  -32.3846  -39.3581 C.2       8 UNK         0.5038 
     53 O          21.9279  -33.2368  -38.5627 O.2       8 UNK        -0.5046 
     54 N          21.8005  -32.2009  -40.5776 N.am      9 UNK        -0.4200 
     55 CA         20.7946  -33.0614  -41.2174 C.3       9 UNK         0.0839 
     56 C          21.3106  -34.4870  -41.5981 C.2       9 UNK         0.5513 
     57 N          22.6132  -34.7446  -41.6187 N.am      9 UNK        -0.7519 
     58 O          20.5251  -35.3774  -41.9106 O.2       9 UNK        -0.4960 
     59 C59        19.4409  -33.0648  -40.4456 C.3       10 UNK        -0.0876 
     60 S60        17.9798  -33.3214  -41.5165 S.3       10 UNK        -0.2414 
     61 C61        17.2667  -31.6456  -41.6523 C.3       10 UNK         0.0169 
     62 H62        14.9209  -21.7826  -44.1256 H         1 UNK         0.0903 
     63 H63        14.9414  -23.0810  -42.9309 H         1 UNK         0.0903 
     64 H64        16.0187  -21.6957  -42.7452 H         1 UNK         0.0903 
     65 H65        16.0337  -24.8994  -43.6529 H         1 UNK         0.3096 
     66 H66        17.7548  -24.8999  -45.9492 H         1 UNK         0.1121 
     67 H67        17.1292  -27.0595  -43.8663 H         1 UNK         0.0849 
     68 H68        18.1196  -27.3347  -45.2793 H         1 UNK         0.0849 
     69 H69        14.6059  -28.3419  -44.2527 H         1 UNK         0.0865 
     70 H70        14.5003  -29.1110  -45.8169 H         1 UNK         0.0865 
     71 H71        15.4819  -29.9637  -42.7749 H         1 UNK         0.1346 
     72 H72        19.1879  -31.9389  -43.6454 H         1 UNK         0.1412 
     73 H73        17.3240  -29.4999  -46.6170 H         1 UNK         0.1426 
     74 H74        19.1295  -31.4126  -47.1116 H         1 UNK         0.0716 
     75 H75        20.2074  -31.7681  -45.7894 H         1 UNK         0.0716 
     76 H76        22.8041  -29.4887  -46.3885 H         1 UNK         0.0695 
     77 H77        22.1511  -30.6841  -45.3263 H         1 UNK         0.0695 
     78 H78        23.2985  -28.5852  -44.3309 H         1 UNK         0.0983 
     79 H79        21.2492  -27.2010  -45.6676 H         1 UNK         0.3095 
     80 H80        21.5759  -24.1145  -43.8522 H         1 UNK         0.0454 
     81 H81        22.3812  -25.0331  -46.6651 H         1 UNK         0.0851 
     82 H82        23.4464  -24.2708  -45.4932 H         1 UNK         0.0851 
     83 H83        22.0925  -23.3710  -46.1528 H         1 UNK         0.0851 
     84 H84        19.9626  -24.9252  -46.0931 H         1 UNK         0.2976 
     85 H85        20.1025  -27.9245  -43.2098 H         1 UNK         0.3116 
     86 H86        19.8504  -29.9631  -41.2385 H         1 UNK         0.0646 
     87 H87        17.9751  -28.4452  -41.9523 H         1 UNK         0.0847 
     88 H88        18.7968  -27.0771  -41.2077 H         1 UNK         0.0847 
     89 H89        18.2092  -28.4010  -40.2135 H         1 UNK         0.0847 
     90 H90        21.7827  -27.0222  -41.3440 H         1 UNK         0.3040 
     91 H91        22.6784  -27.3980  -38.5102 H         1 UNK         0.1015 
     92 H92        23.5110  -25.0573  -38.7283 H         1 UNK         0.0786 
     93 H93        21.7768  -25.1430  -38.9902 H         1 UNK         0.0786 
     94 H94        22.8655  -24.9582  -40.3621 H         1 UNK         0.0786 
     95 H95        23.8691  -26.6702  -41.8369 H         1 UNK         0.3172 
     96 H96        26.6038  -26.7771  -41.1823 H         1 UNK         0.0595 
     97 H97        25.2471  -27.0873  -43.9141 H         1 UNK         0.0839 
     98 H98        26.9364  -26.6854  -43.6467 H         1 UNK         0.0839 
     99 H99        25.6832  -25.5630  -43.1448 H         1 UNK         0.0839 
    100 H100       24.4532  -29.3866  -42.2743 H         1 UNK         0.2998 
    101 H101       26.7154  -31.3451  -42.0889 H         1 UNK         0.0822 
    102 H102       24.1151  -31.5761  -43.7013 H         1 UNK         0.0787 
    103 H103       25.4254  -32.7428  -43.6480 H         1 UNK         0.0787 
    104 H104       25.6883  -31.1728  -44.3868 H         1 UNK         0.0787 
    105 H105       24.4567  -30.0521  -40.2053 H         1 UNK         0.3055 
    106 H106       23.0887  -30.5788  -38.5425 H         1 UNK         0.1106 
    107 H107       24.8465  -33.0699  -38.2339 H         1 UNK         0.0828 
    108 H108       23.8588  -32.3297  -36.9826 H         1 UNK         0.0828 
    109 H109       25.2450  -31.4648  -37.6214 H         1 UNK         0.0828 
    110 H110       22.1868  -31.4727  -41.1716 H         1 UNK         0.2931 
    111 H111       20.6312  -32.5693  -42.1733 H         1 UNK         0.0412 
    112 H112       23.3008  -34.0414  -41.3640 H         1 UNK         0.3472 
    113 H113       22.9224  -35.6680  -41.8767 H         1 UNK         0.3472 
    114 H114       19.4453  -33.8401  -39.6774 H         1 UNK         0.0970 
    115 H115       19.3162  -32.1299  -39.8984 H         1 UNK         0.0970 
    116 H116       17.7498  -30.9580  -40.9604 H         1 UNK         0.0612 
    117 H117       16.2289  -31.7157  -41.3231 H         1 UNK         0.0612 
@<TRIPOS>BOND
     1    1    2 1    
     2    1   62 1    
     3    1   63 1    
     4    1   64 1    
     5    2    3 2    
     6    2    4 am   BACKBONE|DICT|INTERRES
     7    4    5 1    
     8    4   65 1    
     9    5    6 1    
    10    5   25 1    
    11    5   66 1    
    12    6    7 1    
    13    6   67 1    
    14    6   68 1    
    15    7    8 1    
    16    8    9 1    
    17    8   69 1    
    18    8   70 1    
    19    9   10 ar   
    20    9   14 ar   
    21   10   11 ar   
    22   10   71 1    
    23   11   12 ar   
    24   11   61 1    
    25   12   13 ar   
    26   12   72 1    
    27   13   14 ar   
    28   13   15 1    
    29   14   73 1    
    30   15   16 1    
    31   15   74 1    
    32   15   75 1    
    33   16   17 1    
    34   17   18 1    
    35   17   76 1    
    36   17   77 1    
    37   18   19 1    
    38   18   27 1    
    39   18   78 1    
    40   19   20 am   BACKBONE|DICT|INTERRES
    41   19   79 1    
    42   20   21 2    
    43   20   22 1    
    44   22   23 1    
    45   22   24 1    
    46   22   80 1    
    47   23   81 1    
    48   23   82 1    
    49   23   83 1    
    50   24   25 am   BACKBONE|DICT|INTERRES
    51   24   84 1    
    52   25   26 2    
    53   27   28 2    
    54   27   29 am   BACKBONE|DICT|INTERRES
    55   29   30 1    
    56   29   85 1    
    57   30   31 1    
    58   30   32 1    
    59   30   86 1    
    60   31   87 1    
    61   31   88 1    
    62   31   89 1    
    63   32   33 2    
    64   32   34 am   BACKBONE|DICT|INTERRES
    65   34   35 1    
    66   34   90 1    
    67   35   36 1    
    68   35   37 1    
    69   35   91 1    
    70   36   92 1    
    71   36   93 1    
    72   36   94 1    
    73   37   38 2    
    74   37   39 am   BACKBONE|DICT|INTERRES
    75   39   40 1    
    76   39   95 1    
    77   40   41 1    
    78   40   42 1    
    79   40   96 1    
    80   41   97 1    
    81   41   98 1    
    82   41   99 1    
    83   42   43 2    
    84   42   44 am   BACKBONE|DICT|INTERRES
    85   44   45 1    
    86   44  100 1    
    87   45   46 1    
    88   45   47 1    
    89   45  101 1    
    90   46  102 1    
    91   46  103 1    
    92   46  104 1    
    93   47   48 2    
    94   47   49 am   BACKBONE|DICT|INTERRES
    95   49   50 1    
    96   49  105 1    
    97   50   51 1    
    98   50   52 1    
    99   50  106 1    
   100   51  107 1    
   101   51  108 1    
   102   51  109 1    
   103   52   53 2    
   104   52   54 am   BACKBONE|DICT|INTERRES
   105   54   55 1    
   106   54  110 1    
   107   55   56 1    
   108   55   59 1    
   109   55  111 1    
   110   56   57 am   BACKBONE|DICT|INTERRES
   111   56   58 2    
   112   57  112 1    
   113   57  113 1    
   114   59   60 1    
   115   59  114 1    
   116   59  115 1    
   117   60   61 1    
   118   61  116 1    
   119   61  117 1    
@<TRIPOS>SUBSTRUCTURE
     1 UNK         1 GROUP             0       ****    0 ROOT    
