@<TRIPOS>MOLECULE
3R8
117   119    1
SMALL
USER_CHARGES


@<TRIPOS>ATOM
      1 CA         14.5313  -22.7136  -44.4717 C.3       0 UNK        -0.2013 
      2 C          15.2272  -23.7671  -43.6220 C.2       0 UNK         0.4866 
      3 O          15.5045  -23.5127  -42.4497 O.2       0 UNK        -0.5176 
      4 N          15.4973  -24.9421  -44.2099 N.am      1 UNK        -0.4884 
      5 CA         16.2074  -26.0898  -43.6243 C.3       1 UNK         0.0853 
      6 C6         15.5382  -26.6034  -42.3138 C.3       10 UNK        -0.0849 
      7 S7         15.9652  -28.2970  -41.7672 S.3       10 UNK        -0.2776 
      8 C8         15.4112  -29.3602  -43.1407 C.3       10 UNK         0.0316 
      9 C9         16.5608  -29.7017  -44.0806 C.ar      10 UNK        -0.0863 
     10 C10        17.6235  -30.4895  -43.6266 C.ar      10 UNK        -0.1009 
     11 C11        18.6902  -30.8050  -44.4733 C.ar      10 UNK        -0.0712 
     12 C12        18.6786  -30.3427  -45.7921 C.ar      10 UNK        -0.0894 
     13 C13        17.6153  -29.5661  -46.2634 C.ar      10 UNK        -0.0745 
     14 C14        16.5569  -29.2561  -45.4055 C.ar      10 UNK        -0.0972 
     15 C15        17.5862  -29.0813  -47.7053 C.3       10 UNK         0.0209 
     16 S16        18.3602  -27.4429  -47.8859 S.3       10 UNK        -0.2568 
     17 C17        20.1328  -27.8763  -47.8769 C.3       10 UNK        -0.0983 
     18 CA         20.9354  -27.1855  -46.7468 C.3       3 UNK         0.0876 
     19 N          20.3355  -27.3660  -45.4177 N.am      3 UNK        -0.4424 
     20 C          20.6605  -26.6353  -44.3415 C.2       2 UNK         0.4918 
     21 O          21.4728  -25.7095  -44.3612 O.2       2 UNK        -0.4875 
     22 CA         19.9264  -26.9950  -43.0372 C.3       2 UNK         0.0481 
     23 CB         20.4186  -26.1893  -41.8172 C.3       2 UNK        -0.1831 
     24 N          18.4688  -26.9134  -43.1694 N.am      2 UNK        -0.4498 
     25 C          17.7326  -25.8456  -43.5104 C.2       1 UNK         0.5027 
     26 O          18.2119  -24.7370  -43.7628 O.2       1 UNK        -0.4969 
     27 C          22.4076  -27.6493  -46.7921 C.2       3 UNK         0.5005 
     28 O          23.1949  -27.0842  -47.5538 O.2       3 UNK        -0.5279 
     29 N          22.7443  -28.6671  -45.9865 N.am      4 UNK        -0.4463 
     30 CA         24.1019  -29.1708  -45.7788 C.3       4 UNK         0.0283 
     31 CB         24.0753  -30.7135  -45.8005 C.3       4 UNK        -0.1875 
     32 C          24.6647  -28.5817  -44.4709 C.2       4 UNK         0.4949 
     33 O          24.3524  -27.4387  -44.1316 O.2       4 UNK        -0.5039 
     34 N          25.4923  -29.3511  -43.7527 N.am      5 UNK        -0.4663 
     35 CA         25.9979  -28.9860  -42.4292 C.3       5 UNK         0.0242 
     36 CB         27.1397  -29.9394  -42.0392 C.3       5 UNK        -0.1982 
     37 C          24.8711  -29.0499  -41.3878 C.2       5 UNK         0.5017 
     38 O          24.1725  -30.0633  -41.3211 O.2       5 UNK        -0.5012 
     39 N          24.7434  -28.0056  -40.5584 N.am      6 UNK        -0.4439 
     40 CA         23.7443  -27.9194  -39.4852 C.3       6 UNK         0.0297 
     41 CB         23.7945  -26.5246  -38.8430 C.3       6 UNK        -0.2006 
     42 C          23.8934  -29.0164  -38.4148 C.2       6 UNK         0.4892 
     43 O          22.8903  -29.4442  -37.8464 O.2       6 UNK        -0.5089 
     44 N          25.1305  -29.4848  -38.1964 N.am      7 UNK        -0.4243 
     45 CA         25.4525  -30.6206  -37.3297 C.3       7 UNK         0.0196 
     46 CB         26.9741  -30.6740  -37.1160 C.3       7 UNK        -0.2007 
     47 C          24.9390  -31.9697  -37.8689 C.2       7 UNK         0.5020 
     48 O          24.7041  -32.8780  -37.0717 O.2       7 UNK        -0.5147 
     49 N          24.7775  -32.0844  -39.1949 N.am      8 UNK        -0.4734 
     50 CA         24.2151  -33.2620  -39.8562 C.3       8 UNK         0.0238 
     51 CB         24.8693  -33.4474  -41.2365 C.3       8 UNK        -0.1912 
     52 C          22.6903  -33.1423  -39.9847 C.2       8 UNK         0.5038 
     53 O          21.9852  -34.1070  -39.6858 O.2       8 UNK        -0.5046 
     54 N          22.2139  -31.9709  -40.4279 N.am      9 UNK        -0.4200 
     55 CA         20.7866  -31.6758  -40.6202 C.3       9 UNK         0.0839 
     56 C          19.9695  -31.5343  -39.3063 C.2       9 UNK         0.5513 
     57 N          20.5610  -31.1233  -38.1925 N.am      9 UNK        -0.7519 
     58 O          18.7732  -31.8115  -39.2995 O.2       9 UNK        -0.4960 
     59 C59        20.5675  -30.4488  -41.5410 C.3       10 UNK        -0.0876 
     60 S60        21.1864  -30.7169  -43.2379 S.3       10 UNK        -0.2414 
     61 C61        19.8336  -31.6825  -43.9841 C.3       10 UNK         0.0169 
     62 H62        13.5833  -22.4297  -44.0154 H         1 UNK         0.0903 
     63 H63        14.3276  -23.0700  -45.4813 H         1 UNK         0.0903 
     64 H64        15.1537  -21.8223  -44.5465 H         1 UNK         0.0903 
     65 H65        15.2586  -25.0514  -45.1862 H         1 UNK         0.3096 
     66 H66        16.0965  -26.8623  -44.3790 H         1 UNK         0.1121 
     67 H67        15.7645  -25.9284  -41.4869 H         1 UNK         0.0849 
     68 H68        14.4530  -26.5728  -42.4238 H         1 UNK         0.0849 
     69 H69        15.0121  -30.2869  -42.7257 H         1 UNK         0.0865 
     70 H70        14.5844  -28.8869  -43.6728 H         1 UNK         0.0865 
     71 H71        17.6120  -30.8619  -42.6114 H         1 UNK         0.1346 
     72 H72        19.4905  -30.6079  -46.4547 H         1 UNK         0.1412 
     73 H73        15.7265  -28.6716  -45.7779 H         1 UNK         0.1426 
     74 H74        18.0745  -29.8012  -48.3641 H         1 UNK         0.0716 
     75 H75        16.5530  -29.0161  -48.0500 H         1 UNK         0.0716 
     76 H76        20.5393  -27.5864  -48.8478 H         1 UNK         0.0695 
     77 H77        20.2484  -28.9591  -47.8264 H         1 UNK         0.0695 
     78 H78        20.9365  -26.1130  -46.9552 H         1 UNK         0.0983 
     79 H79        19.6153  -28.0705  -45.3391 H         1 UNK         0.3095 
     80 H80        20.1505  -28.0408  -42.8439 H         1 UNK         0.0454 
     81 H81        19.9276  -26.5175  -40.9012 H         1 UNK         0.0851 
     82 H82        20.2334  -25.1212  -41.9339 H         1 UNK         0.0851 
     83 H83        21.4922  -26.3193  -41.6737 H         1 UNK         0.0851 
     84 H84        17.9669  -27.7719  -42.9767 H         1 UNK         0.2976 
     85 H85        22.0400  -29.0258  -45.3573 H         1 UNK         0.3116 
     86 H86        24.7537  -28.8361  -46.5882 H         1 UNK         0.0646 
     87 H87        23.5666  -31.0854  -46.6901 H         1 UNK         0.0847 
     88 H88        23.5643  -31.1279  -44.9311 H         1 UNK         0.0847 
     89 H89        25.0836  -31.1281  -45.8210 H         1 UNK         0.0847 
     90 H90        25.6822  -30.2904  -44.0693 H         1 UNK         0.3040 
     91 H91        26.3929  -27.9685  -42.4756 H         1 UNK         0.1015 
     92 H92        26.8035  -30.9759  -41.9862 H         1 UNK         0.0786 
     93 H93        27.5502  -29.6801  -41.0624 H         1 UNK         0.0786 
     94 H94        27.9594  -29.8900  -42.7563 H         1 UNK         0.0786 
     95 H95        25.3537  -27.2090  -40.6764 H         1 UNK         0.3172 
     96 H96        22.7608  -28.0458  -39.9428 H         1 UNK         0.0595 
     97 H97        24.7658  -26.3206  -38.3907 H         1 UNK         0.0839 
     98 H98        23.0435  -26.4309  -38.0571 H         1 UNK         0.0839 
     99 H99        23.5917  -25.7423  -39.5749 H         1 UNK         0.0839 
    100 H100       25.8963  -29.0636  -38.7012 H         1 UNK         0.2998 
    101 H101       24.9748  -30.4521  -36.3620 H         1 UNK         0.0822 
    102 H102       27.3444  -29.7546  -36.6619 H         1 UNK         0.0787 
    103 H103       27.2455  -31.4941  -36.4496 H         1 UNK         0.0787 
    104 H104       27.5091  -30.8264  -38.0544 H         1 UNK         0.0787 
    105 H105       24.9304  -31.2721  -39.7798 H         1 UNK         0.3055 
    106 H106       24.4312  -34.1537  -39.2626 H         1 UNK         0.1106 
    107 H107       25.9502  -33.5586  -41.1505 H         1 UNK         0.0828 
    108 H108       24.4898  -34.3447  -41.7271 H         1 UNK         0.0828 
    109 H109       24.6710  -32.6073  -41.9028 H         1 UNK         0.0828 
    110 H110       22.8680  -31.2414  -40.6986 H         1 UNK         0.2931 
    111 H111       20.3601  -32.5410  -41.1308 H         1 UNK         0.0412 
    112 H112       20.0137  -31.0460  -37.3504 H         1 UNK         0.3472 
    113 H113       21.5202  -30.7921  -38.1936 H         1 UNK         0.3472 
    114 H114       19.5145  -30.1728  -41.5882 H         1 UNK         0.0970 
    115 H115       21.0810  -29.5799  -41.1259 H         1 UNK         0.0970 
    116 H116       20.2421  -32.2513  -44.8206 H         1 UNK         0.0612 
    117 H117       19.4636  -32.4231  -43.2745 H         1 UNK         0.0612 
@<TRIPOS>BOND
     1    1    2 1    
     2    1   62 1    
     3    1   63 1    
     4    1   64 1    
     5    2    3 2    
     6    2    4 am   BACKBONE|DICT|INTERRES
     7    4    5 1    
     8    4   65 1    
     9    5    6 1    
    10    5   25 1    
    11    5   66 1    
    12    6    7 1    
    13    6   67 1    
    14    6   68 1    
    15    7    8 1    
    16    8    9 1    
    17    8   69 1    
    18    8   70 1    
    19    9   10 ar   
    20    9   14 ar   
    21   10   11 ar   
    22   10   71 1    
    23   11   12 ar   
    24   11   61 1    
    25   12   13 ar   
    26   12   72 1    
    27   13   14 ar   
    28   13   15 1    
    29   14   73 1    
    30   15   16 1    
    31   15   74 1    
    32   15   75 1    
    33   16   17 1    
    34   17   18 1    
    35   17   76 1    
    36   17   77 1    
    37   18   19 1    
    38   18   27 1    
    39   18   78 1    
    40   19   20 am   BACKBONE|DICT|INTERRES
    41   19   79 1    
    42   20   21 2    
    43   20   22 1    
    44   22   23 1    
    45   22   24 1    
    46   22   80 1    
    47   23   81 1    
    48   23   82 1    
    49   23   83 1    
    50   24   25 am   BACKBONE|DICT|INTERRES
    51   24   84 1    
    52   25   26 2    
    53   27   28 2    
    54   27   29 am   BACKBONE|DICT|INTERRES
    55   29   30 1    
    56   29   85 1    
    57   30   31 1    
    58   30   32 1    
    59   30   86 1    
    60   31   87 1    
    61   31   88 1    
    62   31   89 1    
    63   32   33 2    
    64   32   34 am   BACKBONE|DICT|INTERRES
    65   34   35 1    
    66   34   90 1    
    67   35   36 1    
    68   35   37 1    
    69   35   91 1    
    70   36   92 1    
    71   36   93 1    
    72   36   94 1    
    73   37   38 2    
    74   37   39 am   BACKBONE|DICT|INTERRES
    75   39   40 1    
    76   39   95 1    
    77   40   41 1    
    78   40   42 1    
    79   40   96 1    
    80   41   97 1    
    81   41   98 1    
    82   41   99 1    
    83   42   43 2    
    84   42   44 am   BACKBONE|DICT|INTERRES
    85   44   45 1    
    86   44  100 1    
    87   45   46 1    
    88   45   47 1    
    89   45  101 1    
    90   46  102 1    
    91   46  103 1    
    92   46  104 1    
    93   47   48 2    
    94   47   49 am   BACKBONE|DICT|INTERRES
    95   49   50 1    
    96   49  105 1    
    97   50   51 1    
    98   50   52 1    
    99   50  106 1    
   100   51  107 1    
   101   51  108 1    
   102   51  109 1    
   103   52   53 2    
   104   52   54 am   BACKBONE|DICT|INTERRES
   105   54   55 1    
   106   54  110 1    
   107   55   56 1    
   108   55   59 1    
   109   55  111 1    
   110   56   57 am   BACKBONE|DICT|INTERRES
   111   56   58 2    
   112   57  112 1    
   113   57  113 1    
   114   59   60 1    
   115   59  114 1    
   116   59  115 1    
   117   60   61 1    
   118   61  116 1    
   119   61  117 1    
@<TRIPOS>SUBSTRUCTURE
     1 UNK         1 GROUP             0       ****    0 ROOT    
