@<TRIPOS>MOLECULE
3R8
117   119    1
SMALL
USER_CHARGES


@<TRIPOS>ATOM
      1 CA         13.3467  -26.3670  -40.5618 C.3       0 UNK        -0.2013 
      2 C          14.4625  -26.2464  -41.5891 C.2       0 UNK         0.4866 
      3 O          15.3572  -25.4160  -41.4267 O.2       0 UNK        -0.5176 
      4 N          14.4130  -27.0618  -42.6498 N.am      1 UNK        -0.4884 
      5 CA         15.4454  -27.1383  -43.6871 C.3       1 UNK         0.0853 
      6 C6         14.9059  -27.8419  -44.9548 C.3       10 UNK        -0.0849 
      7 S7         15.9700  -27.5828  -46.4171 S.3       10 UNK        -0.2776 
      8 C8         16.2085  -29.2852  -47.0205 C.3       10 UNK         0.0316 
      9 C9         17.5129  -29.9150  -46.5446 C.ar      10 UNK        -0.0863 
     10 C10        17.5274  -30.8293  -45.4845 C.ar      10 UNK        -0.1009 
     11 C11        18.7018  -31.5200  -45.1591 C.ar      10 UNK        -0.0712 
     12 C12        19.8753  -31.2581  -45.8754 C.ar      10 UNK        -0.0894 
     13 C13        19.8772  -30.3373  -46.9275 C.ar      10 UNK        -0.0745 
     14 C14        18.6937  -29.6663  -47.2508 C.ar      10 UNK        -0.0972 
     15 C15        21.1174  -30.1593  -47.7963 C.3       10 UNK         0.0209 
     16 S16        21.6983  -28.4344  -47.8799 S.3       10 UNK        -0.2568 
     17 C17        22.8542  -28.3343  -46.4744 C.3       10 UNK        -0.0983 
     18 CA         22.3322  -27.3878  -45.3677 C.3       3 UNK         0.0876 
     19 N          21.1558  -27.9345  -44.6860 N.am      3 UNK        -0.4424 
     20 C          20.1966  -27.1928  -44.1262 C.2       2 UNK         0.4918 
     21 O          20.1391  -25.9636  -44.2152 O.2       2 UNK        -0.4875 
     22 CA         19.1829  -27.9266  -43.2508 C.3       2 UNK         0.0481 
     23 CB         19.5782  -27.7898  -41.7667 C.3       2 UNK        -0.1831 
     24 N          17.8748  -27.3370  -43.4989 N.am      2 UNK        -0.4498 
     25 C          16.6955  -27.8580  -43.1479 C.2       1 UNK         0.5027 
     26 O          16.5579  -28.8791  -42.4712 O.2       1 UNK        -0.4969 
     27 C          23.4058  -27.0320  -44.3162 C.2       3 UNK         0.5005 
     28 O          24.4731  -27.6494  -44.2767 O.2       3 UNK        -0.5279 
     29 N          23.0688  -26.0553  -43.4594 N.am      4 UNK        -0.4463 
     30 CA         23.8499  -25.5289  -42.3353 C.3       4 UNK         0.0283 
     31 CB         25.1197  -24.8194  -42.8596 C.3       4 UNK        -0.1875 
     32 C          24.1616  -26.5886  -41.2575 C.2       4 UNK         0.4949 
     33 O          23.5845  -27.6799  -41.2567 O.2       4 UNK        -0.5039 
     34 N          25.0888  -26.2484  -40.3522 N.am      5 UNK        -0.4663 
     35 CA         25.5996  -27.1235  -39.2902 C.3       5 UNK         0.0242 
     36 CB         26.4033  -26.2771  -38.2893 C.3       5 UNK        -0.1982 
     37 C          26.4471  -28.3025  -39.8072 C.2       5 UNK         0.5017 
     38 O          26.7153  -29.2272  -39.0408 O.2       5 UNK        -0.5012 
     39 N          26.8444  -28.2596  -41.0875 N.am      6 UNK        -0.4439 
     40 CA         27.4793  -29.3658  -41.8039 C.3       6 UNK         0.0297 
     41 CB         27.9945  -28.8694  -43.1646 C.3       6 UNK        -0.2006 
     42 C          26.5243  -30.5587  -41.9845 C.2       6 UNK         0.4892 
     43 O          26.9527  -31.7013  -41.8185 O.2       6 UNK        -0.5089 
     44 N          25.2533  -30.2698  -42.2990 N.am      7 UNK        -0.4243 
     45 CA         24.1831  -31.2629  -42.3780 C.3       7 UNK         0.0196 
     46 CB         23.1644  -30.8307  -43.4401 C.3       7 UNK        -0.2007 
     47 C          23.5083  -31.4625  -41.0133 C.2       7 UNK         0.5020 
     48 O          23.2959  -32.6066  -40.6125 O.2       7 UNK        -0.5147 
     49 N          23.2001  -30.3499  -40.3253 N.am      8 UNK        -0.4734 
     50 CA         22.5853  -30.2715  -38.9914 C.3       8 UNK         0.0238 
     51 CB         23.5645  -30.7773  -37.9105 C.3       8 UNK        -0.1912 
     52 C          21.1996  -30.9457  -38.8991 C.2       8 UNK         0.5038 
     53 O          20.8735  -31.5419  -37.8707 O.2       8 UNK        -0.5046 
     54 N          20.4085  -30.8351  -39.9744 N.am      9 UNK        -0.4200 
     55 CA         19.0595  -31.4167  -40.0977 C.3       9 UNK         0.0839 
     56 C          17.9716  -30.7709  -39.1882 C.2       9 UNK         0.5513 
     57 N          18.2163  -29.6282  -38.5573 N.am      9 UNK        -0.7519 
     58 O          16.8860  -31.3274  -39.0450 O.2       9 UNK        -0.4960 
     59 C59        18.5791  -31.4575  -41.5719 C.3       10 UNK        -0.0876 
     60 S60        19.7373  -32.3161  -42.6829 S.3       10 UNK        -0.2414 
     61 C61        18.6802  -32.6433  -44.1278 C.3       10 UNK         0.0169 
     62 H62        12.6163  -27.1268  -40.8392 H         1 UNK         0.0903 
     63 H63        13.7602  -26.6336  -39.5895 H         1 UNK         0.0903 
     64 H64        12.8247  -25.4158  -40.4611 H         1 UNK         0.0903 
     65 H65        13.6754  -27.7493  -42.7123 H         1 UNK         0.3096 
     66 H66        15.7174  -26.1136  -43.9524 H         1 UNK         0.1121 
     67 H67        13.9224  -27.4422  -45.2079 H         1 UNK         0.0849 
     68 H68        14.7538  -28.9071  -44.7695 H         1 UNK         0.0849 
     69 H69        15.3568  -29.9111  -46.7502 H         1 UNK         0.0865 
     70 H70        16.2075  -29.2588  -48.1114 H         1 UNK         0.0865 
     71 H71        16.6110  -31.0479  -44.9533 H         1 UNK         0.1346 
     72 H72        20.7725  -31.8170  -45.6464 H         1 UNK         0.1412 
     73 H73        18.6821  -28.9817  -48.0883 H         1 UNK         0.1426 
     74 H74        20.8689  -30.4813  -48.8085 H         1 UNK         0.0716 
     75 H75        21.9294  -30.8105  -47.4695 H         1 UNK         0.0716 
     76 H76        23.8030  -27.9687  -46.8718 H         1 UNK         0.0695 
     77 H77        23.0565  -29.3286  -46.0795 H         1 UNK         0.0695 
     78 H78        22.0601  -26.4480  -45.8546 H         1 UNK         0.0983 
     79 H79        21.1273  -28.9375  -44.5825 H         1 UNK         0.3095 
     80 H80        19.1583  -28.9778  -43.5425 H         1 UNK         0.0454 
     81 H81        20.5637  -28.2192  -41.5823 H         1 UNK         0.0851 
     82 H82        18.8709  -28.2922  -41.1087 H         1 UNK         0.0851 
     83 H83        19.6205  -26.7437  -41.4604 H         1 UNK         0.0851 
     84 H84        17.9022  -26.4987  -44.0662 H         1 UNK         0.2976 
     85 H85        22.1359  -25.6695  -43.5585 H         1 UNK         0.3116 
     86 H86        23.2184  -24.7801  -41.8551 H         1 UNK         0.0646 
     87 H87        25.6078  -24.2329  -42.0810 H         1 UNK         0.0847 
     88 H88        25.8524  -25.5287  -43.2465 H         1 UNK         0.0847 
     89 H89        24.8777  -24.1256  -43.6648 H         1 UNK         0.0847 
     90 H90        25.5013  -25.3280  -40.4093 H         1 UNK         0.3040 
     91 H91        24.7432  -27.5546  -38.7666 H         1 UNK         0.1015 
     92 H92        26.7679  -26.8895  -37.4632 H         1 UNK         0.0786 
     93 H93        25.7909  -25.4861  -37.8557 H         1 UNK         0.0786 
     94 H94        27.2718  -25.8129  -38.7583 H         1 UNK         0.0786 
     95 H95        26.5879  -27.4494  -41.6316 H         1 UNK         0.3172 
     96 H96        28.3350  -29.7041  -41.2157 H         1 UNK         0.0595 
     97 H97        27.1851  -28.4958  -43.7939 H         1 UNK         0.0839 
     98 H98        28.4858  -29.6753  -43.7116 H         1 UNK         0.0839 
     99 H99        28.7247  -28.0687  -43.0454 H         1 UNK         0.0839 
    100 H100       24.9882  -29.3012  -42.4283 H         1 UNK         0.2998 
    101 H101       24.6002  -32.2229  -42.6908 H         1 UNK         0.0822 
    102 H102       22.3867  -31.5836  -43.5607 H         1 UNK         0.0787 
    103 H103       22.6829  -29.8879  -43.1807 H         1 UNK         0.0787 
    104 H104       23.6492  -30.7134  -44.4078 H         1 UNK         0.0787 
    105 H105       23.3995  -29.4481  -40.7566 H         1 UNK         0.3055 
    106 H106       22.4109  -29.2110  -38.8019 H         1 UNK         0.1106 
    107 H107       24.5209  -30.2599  -37.9663 H         1 UNK         0.0828 
    108 H108       23.1674  -30.6075  -36.9090 H         1 UNK         0.0828 
    109 H109       23.7564  -31.8463  -38.0072 H         1 UNK         0.0828 
    110 H110       20.7697  -30.3687  -40.7912 H         1 UNK         0.2931 
    111 H111       19.1411  -32.4527  -39.7626 H         1 UNK         0.0412 
    112 H112       17.5024  -29.2290  -37.9685 H         1 UNK         0.3472 
    113 H113       19.1083  -29.1715  -38.6487 H         1 UNK         0.3472 
    114 H114       17.6074  -31.9509  -41.6357 H         1 UNK         0.0970 
    115 H115       18.4306  -30.4517  -41.9528 H         1 UNK         0.0970 
    116 H116       19.0380  -33.5550  -44.6081 H         1 UNK         0.0612 
    117 H117       17.6614  -32.8598  -43.8032 H         1 UNK         0.0612 
@<TRIPOS>BOND
     1    1    2 1    
     2    1   62 1    
     3    1   63 1    
     4    1   64 1    
     5    2    3 2    
     6    2    4 am   BACKBONE|DICT|INTERRES
     7    4    5 1    
     8    4   65 1    
     9    5    6 1    
    10    5   25 1    
    11    5   66 1    
    12    6    7 1    
    13    6   67 1    
    14    6   68 1    
    15    7    8 1    
    16    8    9 1    
    17    8   69 1    
    18    8   70 1    
    19    9   10 ar   
    20    9   14 ar   
    21   10   11 ar   
    22   10   71 1    
    23   11   12 ar   
    24   11   61 1    
    25   12   13 ar   
    26   12   72 1    
    27   13   14 ar   
    28   13   15 1    
    29   14   73 1    
    30   15   16 1    
    31   15   74 1    
    32   15   75 1    
    33   16   17 1    
    34   17   18 1    
    35   17   76 1    
    36   17   77 1    
    37   18   19 1    
    38   18   27 1    
    39   18   78 1    
    40   19   20 am   BACKBONE|DICT|INTERRES
    41   19   79 1    
    42   20   21 2    
    43   20   22 1    
    44   22   23 1    
    45   22   24 1    
    46   22   80 1    
    47   23   81 1    
    48   23   82 1    
    49   23   83 1    
    50   24   25 am   BACKBONE|DICT|INTERRES
    51   24   84 1    
    52   25   26 2    
    53   27   28 2    
    54   27   29 am   BACKBONE|DICT|INTERRES
    55   29   30 1    
    56   29   85 1    
    57   30   31 1    
    58   30   32 1    
    59   30   86 1    
    60   31   87 1    
    61   31   88 1    
    62   31   89 1    
    63   32   33 2    
    64   32   34 am   BACKBONE|DICT|INTERRES
    65   34   35 1    
    66   34   90 1    
    67   35   36 1    
    68   35   37 1    
    69   35   91 1    
    70   36   92 1    
    71   36   93 1    
    72   36   94 1    
    73   37   38 2    
    74   37   39 am   BACKBONE|DICT|INTERRES
    75   39   40 1    
    76   39   95 1    
    77   40   41 1    
    78   40   42 1    
    79   40   96 1    
    80   41   97 1    
    81   41   98 1    
    82   41   99 1    
    83   42   43 2    
    84   42   44 am   BACKBONE|DICT|INTERRES
    85   44   45 1    
    86   44  100 1    
    87   45   46 1    
    88   45   47 1    
    89   45  101 1    
    90   46  102 1    
    91   46  103 1    
    92   46  104 1    
    93   47   48 2    
    94   47   49 am   BACKBONE|DICT|INTERRES
    95   49   50 1    
    96   49  105 1    
    97   50   51 1    
    98   50   52 1    
    99   50  106 1    
   100   51  107 1    
   101   51  108 1    
   102   51  109 1    
   103   52   53 2    
   104   52   54 am   BACKBONE|DICT|INTERRES
   105   54   55 1    
   106   54  110 1    
   107   55   56 1    
   108   55   59 1    
   109   55  111 1    
   110   56   57 am   BACKBONE|DICT|INTERRES
   111   56   58 2    
   112   57  112 1    
   113   57  113 1    
   114   59   60 1    
   115   59  114 1    
   116   59  115 1    
   117   60   61 1    
   118   61  116 1    
   119   61  117 1    
@<TRIPOS>SUBSTRUCTURE
     1 UNK         1 GROUP             0       ****    0 ROOT    
