@<TRIPOS>MOLECULE
3R8
117   119    1
SMALL
USER_CHARGES


@<TRIPOS>ATOM
      1 CA         24.3677  -31.0709  -44.8984 C.3       0 UNK        -0.2013 
      2 C          22.9695  -30.6942  -44.4352 C.2       0 UNK         0.4866 
      3 O          22.4176  -31.3472  -43.5544 O.2       0 UNK        -0.5176 
      4 N          22.3834  -29.6448  -45.0186 N.am      1 UNK        -0.4884 
      5 CA         21.0479  -29.1501  -44.6786 C.3       1 UNK         0.0853 
      6 C6         20.5300  -28.1561  -45.7475 C.3       10 UNK        -0.0849 
      7 S7         20.2499  -28.9992  -47.3432 S.3       10 UNK        -0.2776 
      8 C8         18.4383  -28.8950  -47.5471 C.3       10 UNK         0.0316 
      9 C9         17.6606  -29.3177  -46.3051 C.ar      10 UNK        -0.0863 
     10 C10        17.8809  -30.5636  -45.7102 C.ar      10 UNK        -0.1009 
     11 C11        17.1874  -30.9326  -44.5541 C.ar      10 UNK        -0.0712 
     12 C12        16.2417  -30.0558  -44.0094 C.ar      10 UNK        -0.0894 
     13 C13        15.9936  -28.8163  -44.6107 C.ar      10 UNK        -0.0745 
     14 C14        16.7111  -28.4531  -45.7536 C.ar      10 UNK        -0.0972 
     15 C15        14.9150  -27.8889  -44.0638 C.3       10 UNK         0.0209 
     16 S16        15.4428  -26.9644  -42.5863 S.3       10 UNK        -0.2568 
     17 C17        16.6458  -25.7608  -43.2572 C.3       10 UNK        -0.0983 
     18 CA         17.8582  -25.5822  -42.3104 C.3       3 UNK         0.0876 
     19 N          18.5134  -26.8635  -42.0409 N.am      3 UNK        -0.4424 
     20 C          19.3858  -27.1025  -41.0552 C.2       2 UNK         0.4918 
     21 O          19.7660  -26.2555  -40.2488 O.2       2 UNK        -0.4875 
     22 CA         19.9801  -28.5173  -41.0184 C.3       2 UNK         0.0481 
     23 CB         19.0376  -29.4449  -40.2348 C.3       2 UNK        -0.1831 
     24 N          20.2167  -29.0605  -42.3635 N.am      2 UNK        -0.4498 
     25 C          21.0361  -28.5129  -43.2756 C.2       1 UNK         0.5027 
     26 O          21.7259  -27.5125  -43.0585 O.2       1 UNK        -0.4969 
     27 C          18.8369  -24.5015  -42.8287 C.2       3 UNK         0.5005 
     28 O          18.5058  -23.3169  -42.7641 O.2       3 UNK        -0.5279 
     29 N          20.0252  -24.9130  -43.2998 N.am      4 UNK        -0.4463 
     30 CA         21.1384  -24.0384  -43.6807 C.3       4 UNK         0.0283 
     31 CB         21.7439  -24.5510  -44.9990 C.3       4 UNK        -0.1875 
     32 C          22.2221  -23.9670  -42.5853 C.2       4 UNK         0.4949 
     33 O          23.2466  -23.3219  -42.8089 O.2       4 UNK        -0.5039 
     34 N          21.9964  -24.6326  -41.4401 N.am      5 UNK        -0.4663 
     35 CA         22.8987  -24.7703  -40.2896 C.3       5 UNK         0.0242 
     36 CB         23.1285  -23.4069  -39.6019 C.3       5 UNK        -0.1982 
     37 C          24.2111  -25.5140  -40.6151 C.2       5 UNK         0.5017 
     38 O          25.2481  -25.2068  -40.0228 O.2       5 UNK        -0.5012 
     39 N          24.1447  -26.4833  -41.5391 N.am      6 UNK        -0.4439 
     40 CA         25.2516  -27.3728  -41.8995 C.3       6 UNK         0.0297 
     41 CB         25.1756  -27.6611  -43.4100 C.3       6 UNK        -0.2006 
     42 C          25.2353  -28.6483  -41.0291 C.2       6 UNK         0.4892 
     43 O          24.6733  -28.6366  -39.9304 O.2       6 UNK        -0.5089 
     44 N          25.8639  -29.7292  -41.5162 N.am      7 UNK        -0.4243 
     45 CA         25.9631  -31.0446  -40.8661 C.3       7 UNK         0.0196 
     46 CB         27.0987  -31.8431  -41.5341 C.3       7 UNK        -0.2007 
     47 C          24.6203  -31.8092  -40.8666 C.2       7 UNK         0.5020 
     48 O          24.4956  -32.8315  -41.5389 O.2       7 UNK        -0.5147 
     49 N          23.6632  -31.2509  -40.1171 N.am      8 UNK        -0.4734 
     50 CA         22.2281  -31.5204  -39.9862 C.3       8 UNK         0.0238 
     51 CB         21.8034  -31.1196  -38.5595 C.3       8 UNK        -0.1912 
     52 C          21.6870  -32.9134  -40.3721 C.2       8 UNK         0.5038 
     53 O          21.3923  -33.7242  -39.4906 O.2       8 UNK        -0.5046 
     54 N          21.4706  -33.1011  -41.6787 N.am      9 UNK        -0.4200 
     55 CA         20.6140  -34.1147  -42.3120 C.3       9 UNK         0.0839 
     56 C          21.0262  -35.5851  -41.9950 C.2       9 UNK         0.5513 
     57 N          20.0985  -36.5347  -41.9989 N.am      9 UNK        -0.7519 
     58 O          22.2015  -35.8926  -41.8078 O.2       9 UNK        -0.4960 
     59 C59        19.0993  -33.7969  -42.1039 C.3       10 UNK        -0.0876 
     60 S60        18.6766  -32.0729  -42.5524 S.3       10 UNK        -0.2414 
     61 C61        17.4720  -32.2749  -43.8954 C.3       10 UNK         0.0169 
     62 H62        25.0345  -31.1549  -44.0419 H         1 UNK         0.0903 
     63 H63        24.7840  -30.3334  -45.5843 H         1 UNK         0.0903 
     64 H64        24.3450  -32.0354  -45.4046 H         1 UNK         0.0903 
     65 H65        22.8658  -29.1371  -45.7460 H         1 UNK         0.3096 
     66 H66        20.3764  -30.0107  -44.6582 H         1 UNK         0.1121 
     67 H67        21.2520  -27.3555  -45.9100 H         1 UNK         0.0849 
     68 H68        19.6106  -27.6659  -45.4229 H         1 UNK         0.0849 
     69 H69        18.1846  -27.8727  -47.8324 H         1 UNK         0.0865 
     70 H70        18.1399  -29.5276  -48.3841 H         1 UNK         0.0865 
     71 H71        18.6119  -31.2374  -46.1367 H         1 UNK         0.1346 
     72 H72        15.6947  -30.3402  -43.1206 H         1 UNK         0.1412 
     73 H73        16.5197  -27.4970  -46.2220 H         1 UNK         0.1426 
     74 H74        14.5861  -27.1833  -44.8285 H         1 UNK         0.0716 
     75 H75        14.0357  -28.4807  -43.8052 H         1 UNK         0.0716 
     76 H76        16.1259  -24.8113  -43.3983 H         1 UNK         0.0695 
     77 H77        16.9791  -26.0772  -44.2460 H         1 UNK         0.0695 
     78 H78        17.4791  -25.2099  -41.3557 H         1 UNK         0.0983 
     79 H79        18.2357  -27.6314  -42.6345 H         1 UNK         0.3095 
     80 H80        20.9399  -28.4698  -40.4997 H         1 UNK         0.0454 
     81 H81        19.4231  -30.4603  -40.1743 H         1 UNK         0.0851 
     82 H82        18.0481  -29.4975  -40.6915 H         1 UNK         0.0851 
     83 H83        18.9043  -29.0902  -39.2119 H         1 UNK         0.0851 
     84 H84        19.7007  -29.8972  -42.6076 H         1 UNK         0.2976 
     85 H85        20.2360  -25.9027  -43.2862 H         1 UNK         0.3116 
     86 H86        20.7765  -23.0219  -43.8473 H         1 UNK         0.0646 
     87 H87        20.9826  -24.6767  -45.7689 H         1 UNK         0.0847 
     88 H88        22.4814  -23.8473  -45.3871 H         1 UNK         0.0847 
     89 H89        22.2534  -25.5052  -44.8629 H         1 UNK         0.0847 
     90 H90        21.1141  -25.1208  -41.3387 H         1 UNK         0.3040 
     91 H91        22.3751  -25.4078  -39.5750 H         1 UNK         0.1015 
     92 H92        23.7131  -22.7305  -40.2260 H         1 UNK         0.0786 
     93 H93        23.6686  -23.5286  -38.6622 H         1 UNK         0.0786 
     94 H94        22.1834  -22.9166  -39.3681 H         1 UNK         0.0786 
     95 H95        23.2460  -26.6933  -41.9626 H         1 UNK         0.3172 
     96 H96        26.2013  -26.8696  -41.7080 H         1 UNK         0.0595 
     97 H97        26.0426  -28.2186  -43.7649 H         1 UNK         0.0839 
     98 H98        25.1423  -26.7344  -43.9836 H         1 UNK         0.0839 
     99 H99        24.2837  -28.2305  -43.6592 H         1 UNK         0.0839 
    100 H100       26.3000  -29.6525  -42.4229 H         1 UNK         0.2998 
    101 H101       26.2443  -30.8882  -39.8222 H         1 UNK         0.0822 
    102 H102       28.0528  -31.3222  -41.4511 H         1 UNK         0.0787 
    103 H103       27.2220  -32.8170  -41.0581 H         1 UNK         0.0787 
    104 H104       26.9037  -32.0211  -42.5922 H         1 UNK         0.0787 
    105 H105       23.9477  -30.3708  -39.6937 H         1 UNK         0.3055 
    106 H106       21.7484  -30.8209  -40.6712 H         1 UNK         0.1106 
    107 H107       21.9713  -30.0578  -38.3776 H         1 UNK         0.0828 
    108 H108       20.7437  -31.3113  -38.3869 H         1 UNK         0.0828 
    109 H109       22.3581  -31.6810  -37.8068 H         1 UNK         0.0828 
    110 H110       21.8483  -32.4106  -42.3289 H         1 UNK         0.2931 
    111 H111       20.8122  -34.0064  -43.3789 H         1 UNK         0.0412 
    112 H112       19.1291  -36.3237  -42.1733 H         1 UNK         0.3472 
    113 H113       20.3768  -37.4868  -41.8174 H         1 UNK         0.3472 
    114 H114       18.4783  -34.4716  -42.6943 H         1 UNK         0.0970 
    115 H115       18.8202  -33.9559  -41.0608 H         1 UNK         0.0970 
    116 H116       17.8599  -32.9828  -44.6298 H         1 UNK         0.0612 
    117 H117       16.5512  -32.7047  -43.4984 H         1 UNK         0.0612 
@<TRIPOS>BOND
     1    1    2 1    
     2    1   62 1    
     3    1   63 1    
     4    1   64 1    
     5    2    3 2    
     6    2    4 am   BACKBONE|DICT|INTERRES
     7    4    5 1    
     8    4   65 1    
     9    5    6 1    
    10    5   25 1    
    11    5   66 1    
    12    6    7 1    
    13    6   67 1    
    14    6   68 1    
    15    7    8 1    
    16    8    9 1    
    17    8   69 1    
    18    8   70 1    
    19    9   10 ar   
    20    9   14 ar   
    21   10   11 ar   
    22   10   71 1    
    23   11   12 ar   
    24   11   61 1    
    25   12   13 ar   
    26   12   72 1    
    27   13   14 ar   
    28   13   15 1    
    29   14   73 1    
    30   15   16 1    
    31   15   74 1    
    32   15   75 1    
    33   16   17 1    
    34   17   18 1    
    35   17   76 1    
    36   17   77 1    
    37   18   19 1    
    38   18   27 1    
    39   18   78 1    
    40   19   20 am   BACKBONE|DICT|INTERRES
    41   19   79 1    
    42   20   21 2    
    43   20   22 1    
    44   22   23 1    
    45   22   24 1    
    46   22   80 1    
    47   23   81 1    
    48   23   82 1    
    49   23   83 1    
    50   24   25 am   BACKBONE|DICT|INTERRES
    51   24   84 1    
    52   25   26 2    
    53   27   28 2    
    54   27   29 am   BACKBONE|DICT|INTERRES
    55   29   30 1    
    56   29   85 1    
    57   30   31 1    
    58   30   32 1    
    59   30   86 1    
    60   31   87 1    
    61   31   88 1    
    62   31   89 1    
    63   32   33 2    
    64   32   34 am   BACKBONE|DICT|INTERRES
    65   34   35 1    
    66   34   90 1    
    67   35   36 1    
    68   35   37 1    
    69   35   91 1    
    70   36   92 1    
    71   36   93 1    
    72   36   94 1    
    73   37   38 2    
    74   37   39 am   BACKBONE|DICT|INTERRES
    75   39   40 1    
    76   39   95 1    
    77   40   41 1    
    78   40   42 1    
    79   40   96 1    
    80   41   97 1    
    81   41   98 1    
    82   41   99 1    
    83   42   43 2    
    84   42   44 am   BACKBONE|DICT|INTERRES
    85   44   45 1    
    86   44  100 1    
    87   45   46 1    
    88   45   47 1    
    89   45  101 1    
    90   46  102 1    
    91   46  103 1    
    92   46  104 1    
    93   47   48 2    
    94   47   49 am   BACKBONE|DICT|INTERRES
    95   49   50 1    
    96   49  105 1    
    97   50   51 1    
    98   50   52 1    
    99   50  106 1    
   100   51  107 1    
   101   51  108 1    
   102   51  109 1    
   103   52   53 2    
   104   52   54 am   BACKBONE|DICT|INTERRES
   105   54   55 1    
   106   54  110 1    
   107   55   56 1    
   108   55   59 1    
   109   55  111 1    
   110   56   57 am   BACKBONE|DICT|INTERRES
   111   56   58 2    
   112   57  112 1    
   113   57  113 1    
   114   59   60 1    
   115   59  114 1    
   116   59  115 1    
   117   60   61 1    
   118   61  116 1    
   119   61  117 1    
@<TRIPOS>SUBSTRUCTURE
     1 UNK         1 GROUP             0       ****    0 ROOT    
