@<TRIPOS>MOLECULE
3R8
117   119    1
SMALL
USER_CHARGES


@<TRIPOS>ATOM
      1 CA         17.9187  -22.6111  -47.4766 C.3       0 UNK        -0.2013 
      2 C          16.6362  -22.9309  -46.7138 C.2       0 UNK         0.4866 
      3 O          15.5891  -22.3686  -47.0289 O.2       0 UNK        -0.5176 
      4 N          16.6603  -23.8143  -45.7095 N.am      1 UNK        -0.4884 
      5 CA         17.8192  -24.5325  -45.1828 C.3       1 UNK         0.0853 
      6 C6         18.0483  -25.8673  -45.9344 C.3       10 UNK        -0.0849 
      7 S7         19.6871  -26.6030  -45.6097 S.3       10 UNK        -0.2776 
      8 C8         19.5962  -28.0983  -46.6555 C.3       10 UNK         0.0316 
      9 C9         19.3077  -29.3690  -45.8614 C.ar      10 UNK        -0.0863 
     10 C10        20.1111  -30.4997  -46.0437 C.ar      10 UNK        -0.1009 
     11 C11        19.8684  -31.6709  -45.3199 C.ar      10 UNK        -0.0712 
     12 C12        18.8218  -31.7039  -44.3953 C.ar      10 UNK        -0.0894 
     13 C13        18.0082  -30.5851  -44.2023 C.ar      10 UNK        -0.0745 
     14 C14        18.2406  -29.4320  -44.9585 C.ar      10 UNK        -0.0972 
     15 C15        16.8774  -30.6319  -43.1812 C.3       10 UNK         0.0209 
     16 S16        16.8948  -29.2167  -42.0303 S.3       10 UNK        -0.2568 
     17 C17        18.4889  -29.4271  -41.1619 C.3       10 UNK        -0.0983 
     18 CA         19.6231  -28.5301  -41.7319 C.3       3 UNK         0.0876 
     19 N          19.2697  -27.1100  -41.9011 N.am      3 UNK        -0.4424 
     20 C          18.8387  -26.2439  -40.9713 C.2       2 UNK         0.4918 
     21 O          18.6900  -26.5359  -39.7841 O.2       2 UNK        -0.4875 
     22 CA         18.5802  -24.7919  -41.4138 C.3       2 UNK         0.0481 
     23 CB         19.6062  -23.8474  -40.7651 C.3       2 UNK        -0.1831 
     24 N          18.6237  -24.6120  -42.8688 N.am      2 UNK        -0.4498 
     25 C          17.5682  -24.7526  -43.6814 C.2       1 UNK         0.5027 
     26 O          16.4333  -25.0456  -43.2955 O.2       1 UNK        -0.4969 
     27 C          20.9385  -28.7168  -40.9483 C.2       3 UNK         0.5005 
     28 O          21.8514  -29.3822  -41.4383 O.2       3 UNK        -0.5279 
     29 N          21.0553  -28.0770  -39.7765 N.am      4 UNK        -0.4463 
     30 CA         22.2711  -28.0100  -38.9572 C.3       4 UNK         0.0283 
     31 CB         21.9622  -27.2822  -37.6405 C.3       4 UNK        -0.1875 
     32 C          23.4485  -27.3362  -39.6846 C.2       4 UNK         0.4949 
     33 O          24.5931  -27.7455  -39.4965 O.2       4 UNK        -0.5039 
     34 N          23.1394  -26.3664  -40.5582 N.am      5 UNK        -0.4663 
     35 CA         24.0897  -25.7079  -41.4620 C.3       5 UNK         0.0242 
     36 CB         23.4028  -24.5017  -42.1226 C.3       5 UNK        -0.1982 
     37 C          24.6752  -26.6456  -42.5363 C.2       5 UNK         0.5017 
     38 O          25.7531  -26.3594  -43.0568 O.2       5 UNK        -0.5012 
     39 N          23.9751  -27.7509  -42.8272 N.am      6 UNK        -0.4439 
     40 CA         24.4117  -28.8304  -43.7135 C.3       6 UNK         0.0297 
     41 CB         23.2256  -29.2460  -44.6028 C.3       6 UNK        -0.2006 
     42 C          24.9881  -30.0215  -42.9171 C.2       6 UNK         0.4892 
     43 O          25.1141  -31.1116  -43.4733 O.2       6 UNK        -0.5089 
     44 N          25.3379  -29.7934  -41.6405 N.am      7 UNK        -0.4243 
     45 CA         25.8928  -30.7442  -40.6704 C.3       7 UNK         0.0196 
     46 CB         27.2091  -31.3792  -41.1710 C.3       7 UNK        -0.2007 
     47 C          24.8715  -31.7776  -40.1576 C.2       7 UNK         0.5020 
     48 O          25.2698  -32.8718  -39.7557 O.2       7 UNK        -0.5147 
     49 N          23.5840  -31.3974  -40.1299 N.am      8 UNK        -0.4734 
     50 CA         22.4550  -32.1391  -39.5506 C.3       8 UNK         0.0238 
     51 CB         22.6058  -32.2647  -38.0189 C.3       8 UNK        -0.1912 
     52 C          22.1866  -33.4870  -40.2459 C.2       8 UNK         0.5038 
     53 O          21.9135  -34.4873  -39.5798 O.2       8 UNK        -0.5046 
     54 N          22.2500  -33.4756  -41.5817 N.am      9 UNK        -0.4200 
     55 CA         21.9241  -34.6019  -42.4719 C.3       9 UNK         0.0839 
     56 C          20.4191  -35.0046  -42.5244 C.2       9 UNK         0.5513 
     57 N          19.5038  -34.2799  -41.8922 N.am      9 UNK        -0.7519 
     58 O          20.0770  -36.0082  -43.1445 O.2       9 UNK        -0.4960 
     59 C59        22.5300  -34.4036  -43.8906 C.3       10 UNK        -0.0876 
     60 S60        22.2828  -32.7289  -44.5756 S.3       10 UNK        -0.2414 
     61 C61        20.7447  -32.8963  -45.5236 C.3       10 UNK         0.0169 
     62 H62        18.5784  -21.9912  -46.8702 H         1 UNK         0.0903 
     63 H63        18.4535  -23.5148  -47.7647 H         1 UNK         0.0903 
     64 H64        17.6912  -22.0612  -48.3897 H         1 UNK         0.0903 
     65 H65        15.8129  -23.9901  -45.1827 H         1 UNK         0.3096 
     66 H66        18.7045  -23.9015  -45.2844 H         1 UNK         0.1121 
     67 H67        17.9804  -25.7019  -47.0103 H         1 UNK         0.0849 
     68 H68        17.2576  -26.5819  -45.7028 H         1 UNK         0.0849 
     69 H69        18.8367  -27.9794  -47.4293 H         1 UNK         0.0865 
     70 H70        20.5479  -28.1915  -47.1809 H         1 UNK         0.0865 
     71 H71        20.9344  -30.4719  -46.7446 H         1 UNK         0.1346 
     72 H72        18.6407  -32.6046  -43.8267 H         1 UNK         0.1412 
     73 H73        17.6038  -28.5731  -44.8109 H         1 UNK         0.1426 
     74 H74        16.9123  -31.5553  -42.6008 H         1 UNK         0.0716 
     75 H75        15.9259  -30.6382  -43.7141 H         1 UNK         0.0716 
     76 H76        18.7797  -30.4785  -41.2050 H         1 UNK         0.0695 
     77 H77        18.3172  -29.2071  -40.1069 H         1 UNK         0.0695 
     78 H78        19.8373  -28.8880  -42.7397 H         1 UNK         0.0983 
     79 H79        19.3626  -26.7634  -42.8452 H         1 UNK         0.3095 
     80 H80        17.5914  -24.5133  -41.0433 H         1 UNK         0.0454 
     81 H81        20.6238  -24.0733  -41.0813 H         1 UNK         0.0851 
     82 H82        19.5787  -23.9244  -39.6771 H         1 UNK         0.0851 
     83 H83        19.4005  -22.8067  -41.0163 H         1 UNK         0.0851 
     84 H84        19.5191  -24.3661  -43.2677 H         1 UNK         0.2976 
     85 H85        20.2503  -27.5374  -39.4653 H         1 UNK         0.3116 
     86 H86        22.5706  -29.0323  -38.7203 H         1 UNK         0.0646 
     87 H87        21.1874  -27.7991  -37.0742 H         1 UNK         0.0847 
     88 H88        22.8475  -27.2331  -37.0047 H         1 UNK         0.0847 
     89 H89        21.6260  -26.2587  -37.8120 H         1 UNK         0.0847 
     90 H90        22.1715  -26.0943  -40.6382 H         1 UNK         0.3040 
     91 H91        24.9268  -25.3431  -40.8623 H         1 UNK         0.1015 
     92 H92        22.5376  -24.8022  -42.7149 H         1 UNK         0.0786 
     93 H93        24.0890  -23.9807  -42.7921 H         1 UNK         0.0786 
     94 H94        23.0722  -23.7768  -41.3785 H         1 UNK         0.0786 
     95 H95        23.1226  -27.9377  -42.3123 H         1 UNK         0.3172 
     96 H96        25.2083  -28.4734  -44.3691 H         1 UNK         0.0595 
     97 H97        22.4152  -29.6852  -44.0203 H         1 UNK         0.0839 
     98 H98        23.5312  -29.9876  -45.3416 H         1 UNK         0.0839 
     99 H99        22.8186  -28.3958  -45.1504 H         1 UNK         0.0839 
    100 H100       25.1750  -28.8654  -41.2680 H         1 UNK         0.2998 
    101 H101       26.1472  -30.1415  -39.7972 H         1 UNK         0.0822 
    102 H102       27.7075  -31.9256  -40.3694 H         1 UNK         0.0787 
    103 H103       27.0372  -32.0867  -41.9825 H         1 UNK         0.0787 
    104 H104       27.9069  -30.6210  -41.5262 H         1 UNK         0.0787 
    105 H105       23.3356  -30.5119  -40.5600 H         1 UNK         0.3055 
    106 H106       21.5667  -31.5334  -39.7349 H         1 UNK         0.1106 
    107 H107       23.4432  -32.9070  -37.7446 H         1 UNK         0.0828 
    108 H108       22.7623  -31.2922  -37.5527 H         1 UNK         0.0828 
    109 H109       21.7088  -32.6951  -37.5721 H         1 UNK         0.0828 
    110 H110       22.4892  -32.6126  -42.0502 H         1 UNK         0.2931 
    111 H111       22.4221  -35.4755  -42.0467 H         1 UNK         0.0412 
    112 H112       18.5400  -34.5729  -41.9205 H         1 UNK         0.3472 
    113 H113       19.7713  -33.4676  -41.3627 H         1 UNK         0.3472 
    114 H114       22.1744  -35.1558  -44.5975 H         1 UNK         0.0970 
    115 H115       23.6084  -34.5584  -43.8321 H         1 UNK         0.0970 
    116 H116       20.9854  -33.0169  -46.5808 H         1 UNK         0.0612 
    117 H117       20.2071  -33.7970  -45.2254 H         1 UNK         0.0612 
@<TRIPOS>BOND
     1    1    2 1    
     2    1   62 1    
     3    1   63 1    
     4    1   64 1    
     5    2    3 2    
     6    2    4 am   BACKBONE|DICT|INTERRES
     7    4    5 1    
     8    4   65 1    
     9    5    6 1    
    10    5   25 1    
    11    5   66 1    
    12    6    7 1    
    13    6   67 1    
    14    6   68 1    
    15    7    8 1    
    16    8    9 1    
    17    8   69 1    
    18    8   70 1    
    19    9   10 ar   
    20    9   14 ar   
    21   10   11 ar   
    22   10   71 1    
    23   11   12 ar   
    24   11   61 1    
    25   12   13 ar   
    26   12   72 1    
    27   13   14 ar   
    28   13   15 1    
    29   14   73 1    
    30   15   16 1    
    31   15   74 1    
    32   15   75 1    
    33   16   17 1    
    34   17   18 1    
    35   17   76 1    
    36   17   77 1    
    37   18   19 1    
    38   18   27 1    
    39   18   78 1    
    40   19   20 am   BACKBONE|DICT|INTERRES
    41   19   79 1    
    42   20   21 2    
    43   20   22 1    
    44   22   23 1    
    45   22   24 1    
    46   22   80 1    
    47   23   81 1    
    48   23   82 1    
    49   23   83 1    
    50   24   25 am   BACKBONE|DICT|INTERRES
    51   24   84 1    
    52   25   26 2    
    53   27   28 2    
    54   27   29 am   BACKBONE|DICT|INTERRES
    55   29   30 1    
    56   29   85 1    
    57   30   31 1    
    58   30   32 1    
    59   30   86 1    
    60   31   87 1    
    61   31   88 1    
    62   31   89 1    
    63   32   33 2    
    64   32   34 am   BACKBONE|DICT|INTERRES
    65   34   35 1    
    66   34   90 1    
    67   35   36 1    
    68   35   37 1    
    69   35   91 1    
    70   36   92 1    
    71   36   93 1    
    72   36   94 1    
    73   37   38 2    
    74   37   39 am   BACKBONE|DICT|INTERRES
    75   39   40 1    
    76   39   95 1    
    77   40   41 1    
    78   40   42 1    
    79   40   96 1    
    80   41   97 1    
    81   41   98 1    
    82   41   99 1    
    83   42   43 2    
    84   42   44 am   BACKBONE|DICT|INTERRES
    85   44   45 1    
    86   44  100 1    
    87   45   46 1    
    88   45   47 1    
    89   45  101 1    
    90   46  102 1    
    91   46  103 1    
    92   46  104 1    
    93   47   48 2    
    94   47   49 am   BACKBONE|DICT|INTERRES
    95   49   50 1    
    96   49  105 1    
    97   50   51 1    
    98   50   52 1    
    99   50  106 1    
   100   51  107 1    
   101   51  108 1    
   102   51  109 1    
   103   52   53 2    
   104   52   54 am   BACKBONE|DICT|INTERRES
   105   54   55 1    
   106   54  110 1    
   107   55   56 1    
   108   55   59 1    
   109   55  111 1    
   110   56   57 am   BACKBONE|DICT|INTERRES
   111   56   58 2    
   112   57  112 1    
   113   57  113 1    
   114   59   60 1    
   115   59  114 1    
   116   59  115 1    
   117   60   61 1    
   118   61  116 1    
   119   61  117 1    
@<TRIPOS>SUBSTRUCTURE
     1 UNK         1 GROUP             0       ****    0 ROOT    
