@<TRIPOS>MOLECULE
3R8
117   119    1
SMALL
USER_CHARGES


@<TRIPOS>ATOM
      1 CA         14.0000  -21.7574  -43.1882 C.3       0 UNK        -0.2013 
      2 C          15.0979  -22.5671  -43.8619 C.2       0 UNK         0.4866 
      3 O          15.9463  -21.9962  -44.5483 O.2       0 UNK        -0.5176 
      4 N          15.0852  -23.8936  -43.6790 N.am      1 UNK        -0.4884 
      5 CA         16.1026  -24.8158  -44.1930 C.3       1 UNK         0.0853 
      6 C6         15.5818  -26.2734  -44.1830 C.3       10 UNK        -0.0849 
      7 S7         16.4784  -27.3562  -45.3471 S.3       10 UNK        -0.2776 
      8 C8         15.7241  -28.9757  -44.9767 C.3       10 UNK         0.0316 
      9 C9         16.6011  -29.7965  -44.0422 C.ar      10 UNK        -0.0863 
     10 C10        17.3521  -30.8692  -44.5372 C.ar      10 UNK        -0.1009 
     11 C11        18.1890  -31.5985  -43.6865 C.ar      10 UNK        -0.0712 
     12 C12        18.2722  -31.2507  -42.3379 C.ar      10 UNK        -0.0894 
     13 C13        17.5548  -30.1618  -41.8410 C.ar      10 UNK        -0.0745 
     14 C14        16.6915  -29.4630  -42.6875 C.ar      10 UNK        -0.0972 
     15 C15        17.7856  -29.6772  -40.4197 C.3       10 UNK         0.0209 
     16 S16        18.7194  -28.1090  -40.4115 S.3       10 UNK        -0.2568 
     17 C17        20.2892  -28.5563  -41.2409 C.3       10 UNK        -0.0983 
     18 CA         20.2899  -28.3092  -42.7799 C.3       3 UNK         0.0876 
     19 N          19.8441  -26.9592  -43.1658 N.am      3 UNK        -0.4424 
     20 C          20.4987  -25.8096  -42.9427 C.2       2 UNK         0.4918 
     21 O          21.5855  -25.7458  -42.3672 O.2       2 UNK        -0.4875 
     22 CA         19.8914  -24.5159  -43.5166 C.3       2 UNK         0.0481 
     23 CB         20.8201  -23.9301  -44.5947 C.3       2 UNK        -0.1831 
     24 N          18.5534  -24.6893  -44.0928 N.am      2 UNK        -0.4498 
     25 C          17.4133  -24.6692  -43.3899 C.2       1 UNK         0.5027 
     26 O          17.3662  -24.5524  -42.1627 O.2       1 UNK        -0.4969 
     27 C          21.6388  -28.6853  -43.4412 C.2       3 UNK         0.5005 
     28 O          22.4746  -29.3496  -42.8239 O.2       3 UNK        -0.5279 
     29 N          21.8462  -28.1834  -44.6719 N.am      4 UNK        -0.4463 
     30 CA         23.0770  -28.2320  -45.4748 C.3       4 UNK         0.0283 
     31 CB         23.3790  -29.6770  -45.9210 C.3       4 UNK        -0.1875 
     32 C          24.2979  -27.5664  -44.8015 C.2       4 UNK         0.4949 
     33 O          25.4294  -27.8557  -45.1923 O.2       4 UNK        -0.5039 
     34 N          24.0535  -26.7032  -43.8001 N.am      5 UNK        -0.4663 
     35 CA         25.0336  -26.0878  -42.8956 C.3       5 UNK         0.0242 
     36 CB         25.9282  -25.0823  -43.6517 C.3       5 UNK        -0.1982 
     37 C          25.8383  -27.1295  -42.0883 C.2       5 UNK         0.5017 
     38 O          27.0055  -26.8914  -41.7714 O.2       5 UNK        -0.5012 
     39 N          25.2029  -28.2672  -41.7813 N.am      6 UNK        -0.4439 
     40 CA         25.7782  -29.4089  -41.0790 C.3       6 UNK         0.0297 
     41 CB         26.0276  -30.5298  -42.1050 C.3       6 UNK        -0.2006 
     42 C          24.8197  -29.8727  -39.9748 C.2       6 UNK         0.4892 
     43 O          23.7003  -29.3655  -39.8629 O.2       6 UNK        -0.5089 
     44 N          25.2741  -30.8480  -39.1787 N.am      7 UNK        -0.4243 
     45 CA         24.4861  -31.5212  -38.1469 C.3       7 UNK         0.0196 
     46 CB         25.4373  -32.2803  -37.2037 C.3       7 UNK        -0.2007 
     47 C          23.4434  -32.4509  -38.7916 C.2       7 UNK         0.5020 
     48 O          23.7192  -33.6343  -38.9925 O.2       7 UNK        -0.5147 
     49 N          22.2881  -31.8761  -39.1524 N.am      8 UNK        -0.4734 
     50 CA         21.1369  -32.5192  -39.7996 C.3       8 UNK         0.0238 
     51 CB         20.4286  -33.4752  -38.8165 C.3       8 UNK        -0.1912 
     52 C          21.5005  -33.1950  -41.1386 C.2       8 UNK         0.5038 
     53 O          21.1279  -34.3468  -41.3671 O.2       8 UNK        -0.5046 
     54 N          22.2507  -32.4695  -41.9789 N.am      9 UNK        -0.4200 
     55 CA         22.8555  -32.9422  -43.2378 C.3       9 UNK         0.0839 
     56 C          24.0078  -33.9792  -43.0630 C.2       9 UNK         0.5513 
     57 N          24.4748  -34.2808  -41.8568 N.am      9 UNK        -0.7519 
     58 O          24.5221  -34.4977  -44.0505 O.2       9 UNK        -0.4960 
     59 C59        21.8223  -33.3854  -44.3178 C.3       10 UNK        -0.0876 
     60 S60        20.6598  -32.0541  -44.7710 S.3       10 UNK        -0.2414 
     61 C61        19.0596  -32.7215  -44.2210 C.3       10 UNK         0.0169 
     62 H62        14.4364  -21.0355  -42.4984 H         1 UNK         0.0903 
     63 H63        13.4248  -21.2107  -43.9349 H         1 UNK         0.0903 
     64 H64        13.3122  -22.3896  -42.6269 H         1 UNK         0.0903 
     65 H65        14.3857  -24.3025  -43.0754 H         1 UNK         0.3096 
     66 H66        16.2967  -24.5282  -45.2294 H         1 UNK         0.1121 
     67 H67        14.5336  -26.2914  -44.4872 H         1 UNK         0.0849 
     68 H68        15.6052  -26.6876  -43.1751 H         1 UNK         0.0849 
     69 H69        14.7325  -28.8465  -44.5402 H         1 UNK         0.0865 
     70 H70        15.5708  -29.5095  -45.9159 H         1 UNK         0.0865 
     71 H71        17.3059  -31.1237  -45.5875 H         1 UNK         0.1346 
     72 H72        18.9391  -31.7988  -41.6923 H         1 UNK         0.1412 
     73 H73        16.1360  -28.6247  -42.2949 H         1 UNK         0.1426 
     74 H74        18.3193  -30.4224  -39.8283 H         1 UNK         0.0716 
     75 H75        16.8244  -29.5228  -39.9274 H         1 UNK         0.0716 
     76 H76        20.5135  -29.6006  -41.0247 H         1 UNK         0.0695 
     77 H77        21.0863  -27.9792  -40.7686 H         1 UNK         0.0695 
     78 H78        19.5700  -28.9893  -43.2312 H         1 UNK         0.0983 
     79 H79        18.9543  -26.9116  -43.6412 H         1 UNK         0.3095 
     80 H80        19.8338  -23.7961  -42.6973 H         1 UNK         0.0454 
     81 H81        20.4407  -22.9799  -44.9710 H         1 UNK         0.0851 
     82 H82        20.9355  -24.6056  -45.4431 H         1 UNK         0.0851 
     83 H83        21.8169  -23.7388  -44.1942 H         1 UNK         0.0851 
     84 H84        18.5050  -24.8012  -45.0962 H         1 UNK         0.2976 
     85 H85        21.0910  -27.6512  -45.0809 H         1 UNK         0.3116 
     86 H86        22.8744  -27.6460  -46.3723 H         1 UNK         0.0646 
     87 H87        23.6831  -30.2990  -45.0803 H         1 UNK         0.0847 
     88 H88        22.5102  -30.1408  -46.3874 H         1 UNK         0.0847 
     89 H89        24.1886  -29.7025  -46.6512 H         1 UNK         0.0847 
     90 H90        23.0868  -26.5391  -43.5396 H         1 UNK         0.3040 
     91 H91        24.4553  -25.5253  -42.1605 H         1 UNK         0.1015 
     92 H92        26.5561  -24.5203  -42.9592 H         1 UNK         0.0786 
     93 H93        25.3304  -24.3581  -44.2049 H         1 UNK         0.0786 
     94 H94        26.5918  -25.5809  -44.3587 H         1 UNK         0.0786 
     95 H95        24.2249  -28.3774  -42.0345 H         1 UNK         0.3172 
     96 H96        26.7223  -29.1334  -40.6048 H         1 UNK         0.0595 
     97 H97        25.1005  -30.8406  -42.5863 H         1 UNK         0.0839 
     98 H98        26.4703  -31.4128  -41.6430 H         1 UNK         0.0839 
     99 H99        26.7105  -30.2004  -42.8885 H         1 UNK         0.0839 
    100 H100       26.1983  -31.2188  -39.3473 H         1 UNK         0.2998 
    101 H101       23.9587  -30.7691  -37.5556 H         1 UNK         0.0822 
    102 H102       24.8780  -32.8066  -36.4291 H         1 UNK         0.0787 
    103 H103       26.0332  -33.0229  -37.7363 H         1 UNK         0.0787 
    104 H104       26.1235  -31.5988  -36.7005 H         1 UNK         0.0787 
    105 H105       22.2271  -30.8702  -39.0399 H         1 UNK         0.3055 
    106 H106       20.4373  -31.7189  -40.0328 H         1 UNK         0.1106 
    107 H107       20.1515  -32.9636  -37.8949 H         1 UNK         0.0828 
    108 H108       19.5118  -33.8752  -39.2517 H         1 UNK         0.0828 
    109 H109       21.0599  -34.3243  -38.5520 H         1 UNK         0.0828 
    110 H110       22.4939  -31.5218  -41.7212 H         1 UNK         0.2931 
    111 H111       23.3580  -32.0621  -43.6355 H         1 UNK         0.0412 
    112 H112       25.2289  -34.9446  -41.7812 H         1 UNK         0.3472 
    113 H113       24.0546  -33.9081  -41.0139 H         1 UNK         0.3472 
    114 H114       22.3367  -33.6702  -45.2372 H         1 UNK         0.0970 
    115 H115       21.2830  -34.2778  -43.9987 H         1 UNK         0.0970 
    116 H116       19.2048  -33.4724  -43.4430 H         1 UNK         0.0612 
    117 H117       18.5699  -33.2265  -45.0548 H         1 UNK         0.0612 
@<TRIPOS>BOND
     1    1    2 1    
     2    1   62 1    
     3    1   63 1    
     4    1   64 1    
     5    2    3 2    
     6    2    4 am   BACKBONE|DICT|INTERRES
     7    4    5 1    
     8    4   65 1    
     9    5    6 1    
    10    5   25 1    
    11    5   66 1    
    12    6    7 1    
    13    6   67 1    
    14    6   68 1    
    15    7    8 1    
    16    8    9 1    
    17    8   69 1    
    18    8   70 1    
    19    9   10 ar   
    20    9   14 ar   
    21   10   11 ar   
    22   10   71 1    
    23   11   12 ar   
    24   11   61 1    
    25   12   13 ar   
    26   12   72 1    
    27   13   14 ar   
    28   13   15 1    
    29   14   73 1    
    30   15   16 1    
    31   15   74 1    
    32   15   75 1    
    33   16   17 1    
    34   17   18 1    
    35   17   76 1    
    36   17   77 1    
    37   18   19 1    
    38   18   27 1    
    39   18   78 1    
    40   19   20 am   BACKBONE|DICT|INTERRES
    41   19   79 1    
    42   20   21 2    
    43   20   22 1    
    44   22   23 1    
    45   22   24 1    
    46   22   80 1    
    47   23   81 1    
    48   23   82 1    
    49   23   83 1    
    50   24   25 am   BACKBONE|DICT|INTERRES
    51   24   84 1    
    52   25   26 2    
    53   27   28 2    
    54   27   29 am   BACKBONE|DICT|INTERRES
    55   29   30 1    
    56   29   85 1    
    57   30   31 1    
    58   30   32 1    
    59   30   86 1    
    60   31   87 1    
    61   31   88 1    
    62   31   89 1    
    63   32   33 2    
    64   32   34 am   BACKBONE|DICT|INTERRES
    65   34   35 1    
    66   34   90 1    
    67   35   36 1    
    68   35   37 1    
    69   35   91 1    
    70   36   92 1    
    71   36   93 1    
    72   36   94 1    
    73   37   38 2    
    74   37   39 am   BACKBONE|DICT|INTERRES
    75   39   40 1    
    76   39   95 1    
    77   40   41 1    
    78   40   42 1    
    79   40   96 1    
    80   41   97 1    
    81   41   98 1    
    82   41   99 1    
    83   42   43 2    
    84   42   44 am   BACKBONE|DICT|INTERRES
    85   44   45 1    
    86   44  100 1    
    87   45   46 1    
    88   45   47 1    
    89   45  101 1    
    90   46  102 1    
    91   46  103 1    
    92   46  104 1    
    93   47   48 2    
    94   47   49 am   BACKBONE|DICT|INTERRES
    95   49   50 1    
    96   49  105 1    
    97   50   51 1    
    98   50   52 1    
    99   50  106 1    
   100   51  107 1    
   101   51  108 1    
   102   51  109 1    
   103   52   53 2    
   104   52   54 am   BACKBONE|DICT|INTERRES
   105   54   55 1    
   106   54  110 1    
   107   55   56 1    
   108   55   59 1    
   109   55  111 1    
   110   56   57 am   BACKBONE|DICT|INTERRES
   111   56   58 2    
   112   57  112 1    
   113   57  113 1    
   114   59   60 1    
   115   59  114 1    
   116   59  115 1    
   117   60   61 1    
   118   61  116 1    
   119   61  117 1    
@<TRIPOS>SUBSTRUCTURE
     1 UNK         1 GROUP             0       ****    0 ROOT    
