@<TRIPOS>MOLECULE
3R8
117   119    1
SMALL
USER_CHARGES


@<TRIPOS>ATOM
      1 CA         18.3478  -22.9707  -49.1825 C.3       0 UNK        -0.2013 
      2 C          18.6319  -24.3770  -48.6757 C.2       0 UNK         0.4866 
      3 O          19.2582  -25.1677  -49.3825 O.2       0 UNK        -0.5176 
      4 N          18.1685  -24.6983  -47.4617 N.am      1 UNK        -0.4884 
      5 CA         18.3925  -25.9859  -46.7980 C.3       1 UNK         0.0853 
      6 C6         17.4913  -26.1534  -45.5516 C.3       10 UNK        -0.0849 
      7 S7         15.7528  -26.5100  -45.9679 S.3       10 UNK        -0.2776 
      8 C8         15.6518  -28.3144  -45.6537 C.3       10 UNK         0.0316 
      9 C9         16.0677  -28.7750  -44.2515 C.ar      10 UNK        -0.0863 
     10 C10        16.5278  -30.0853  -44.0765 C.ar      10 UNK        -0.1009 
     11 C11        16.9313  -30.5486  -42.8185 C.ar      10 UNK        -0.0712 
     12 C12        16.8524  -29.6861  -41.7195 C.ar      10 UNK        -0.0894 
     13 C13        16.4494  -28.3583  -41.8865 C.ar      10 UNK        -0.0745 
     14 C14        16.0224  -27.9221  -43.1419 C.ar      10 UNK        -0.0972 
     15 C15        16.5188  -27.3744  -40.7272 C.3       10 UNK         0.0209 
     16 S16        18.2094  -27.2020  -40.0571 S.3       10 UNK        -0.2568 
     17 C17        19.2399  -26.8025  -41.5225 C.3       10 UNK        -0.0983 
     18 CA         20.0001  -28.0105  -42.1472 C.3       3 UNK         0.0876 
     19 N          20.5937  -27.6435  -43.4389 N.am      3 UNK        -0.4424 
     20 C          21.0956  -28.5031  -44.3385 C.2       2 UNK         0.4918 
     21 O          21.1556  -29.7208  -44.1686 O.2       2 UNK        -0.4875 
     22 CA         21.5139  -27.8945  -45.6900 C.3       2 UNK         0.0481 
     23 CB         22.2116  -28.9052  -46.6208 C.3       2 UNK        -0.1831 
     24 N          20.3006  -27.4244  -46.3524 N.am      2 UNK        -0.4498 
     25 C          19.8600  -26.1619  -46.3642 C.2       1 UNK         0.5027 
     26 O          20.5093  -25.1969  -45.9531 O.2       1 UNK        -0.4969 
     27 C          21.0309  -28.6454  -41.1853 C.2       3 UNK         0.5005 
     28 O          22.2416  -28.4828  -41.3637 O.2       3 UNK        -0.5279 
     29 N          20.5221  -29.3451  -40.1625 N.am      4 UNK        -0.4463 
     30 CA         21.2662  -30.0981  -39.1517 C.3       4 UNK         0.0283 
     31 CB         20.2842  -30.7147  -38.1440 C.3       4 UNK        -0.1875 
     32 C          22.3536  -29.2960  -38.4207 C.2       4 UNK         0.4949 
     33 O          23.4170  -29.8438  -38.1339 O.2       4 UNK        -0.5039 
     34 N          22.0848  -28.0083  -38.1735 N.am      5 UNK        -0.4663 
     35 CA         23.0259  -27.0686  -37.5609 C.3       5 UNK         0.0242 
     36 CB         22.2508  -25.8223  -37.1024 C.3       5 UNK        -0.1982 
     37 C          24.1935  -26.6642  -38.4820 C.2       5 UNK         0.5017 
     38 O          25.2059  -26.1813  -37.9731 O.2       5 UNK        -0.5012 
     39 N          24.0327  -26.8392  -39.8011 N.am      6 UNK        -0.4439 
     40 CA         25.0037  -26.4447  -40.8203 C.3       6 UNK         0.0297 
     41 CB         24.2796  -25.6680  -41.9344 C.3       6 UNK        -0.2006 
     42 C          25.7449  -27.6519  -41.4115 C.2       6 UNK         0.4892 
     43 O          26.9633  -27.5768  -41.5759 O.2       6 UNK        -0.5089 
     44 N          25.0087  -28.7188  -41.7530 N.am      7 UNK        -0.4243 
     45 CA         25.5118  -29.8321  -42.5649 C.3       7 UNK         0.0196 
     46 CB         25.1559  -29.5588  -44.0368 C.3       7 UNK        -0.2007 
     47 C          24.9978  -31.2083  -42.1122 C.2       7 UNK         0.5020 
     48 O          25.1000  -32.1643  -42.8834 O.2       7 UNK        -0.5147 
     49 N          24.4393  -31.3055  -40.8952 N.am      8 UNK        -0.4734 
     50 CA         23.9345  -32.5378  -40.2594 C.3       8 UNK         0.0238 
     51 CB         25.1031  -33.5026  -39.9615 C.3       8 UNK        -0.1912 
     52 C          22.7885  -33.2444  -41.0226 C.2       8 UNK         0.5038 
     53 O          22.5194  -34.4141  -40.7442 O.2       8 UNK        -0.5046 
     54 N          22.1482  -32.5412  -41.9706 N.am      9 UNK        -0.4200 
     55 CA         21.1832  -33.0793  -42.9473 C.3       9 UNK         0.0839 
     56 C          21.7941  -34.1418  -43.9133 C.2       9 UNK         0.5513 
     57 N          23.1051  -34.1526  -44.1332 N.am      9 UNK        -0.7519 
     58 O          21.0752  -34.9490  -44.4972 O.2       9 UNK        -0.4960 
     59 C59        19.8334  -33.5136  -42.3022 C.3       10 UNK        -0.0876 
     60 S60        18.9421  -32.0825  -41.6010 S.3       10 UNK        -0.2414 
     61 C61        17.4642  -31.9732  -42.6718 C.3       10 UNK         0.0169 
     62 H62        19.2830  -22.4472  -49.3792 H         1 UNK         0.0903 
     63 H63        17.7794  -23.0141  -50.1112 H         1 UNK         0.0903 
     64 H64        17.7764  -22.3850  -48.4626 H         1 UNK         0.0903 
     65 H65        17.6679  -24.0078  -46.9207 H         1 UNK         0.3096 
     66 H66        18.1569  -26.7759  -47.5153 H         1 UNK         0.1121 
     67 H67        17.8643  -26.9528  -44.9100 H         1 UNK         0.0849 
     68 H68        17.5211  -25.2550  -44.9319 H         1 UNK         0.0849 
     69 H69        14.6255  -28.6382  -45.8315 H         1 UNK         0.0865 
     70 H70        16.2652  -28.8194  -46.4017 H         1 UNK         0.0865 
     71 H71        16.5797  -30.7485  -44.9295 H         1 UNK         0.1346 
     72 H72        17.1620  -30.0280  -40.7418 H         1 UNK         0.1412 
     73 H73        15.6866  -26.9012  -43.2565 H         1 UNK         0.1426 
     74 H74        15.8543  -27.7127  -39.9312 H         1 UNK         0.0716 
     75 H75        16.1619  -26.3883  -41.0286 H         1 UNK         0.0716 
     76 H76        18.5920  -26.3454  -42.2723 H         1 UNK         0.0695 
     77 H77        19.9489  -26.0248  -41.2328 H         1 UNK         0.0695 
     78 H78        19.2749  -28.7913  -42.3753 H         1 UNK         0.0983 
     79 H79        20.6088  -26.6589  -43.6608 H         1 UNK         0.3095 
     80 H80        22.2033  -27.0697  -45.4982 H         1 UNK         0.0454 
     81 H81        21.5876  -29.7780  -46.8176 H         1 UNK         0.0851 
     82 H82        22.4576  -28.4505  -47.5804 H         1 UNK         0.0851 
     83 H83        23.1449  -29.2641  -46.1916 H         1 UNK         0.0851 
     84 H84        19.6801  -28.1524  -46.6788 H         1 UNK         0.2976 
     85 H85        19.5153  -29.3751  -40.0803 H         1 UNK         0.3116 
     86 H86        21.7535  -30.9104  -39.6817 H         1 UNK         0.0646 
     87 H87        20.8134  -31.2989  -37.3898 H         1 UNK         0.0847 
     88 H88        19.5805  -31.3879  -38.6338 H         1 UNK         0.0847 
     89 H89        19.7091  -29.9502  -37.6200 H         1 UNK         0.0847 
     90 H90        21.1841  -27.6438  -38.4501 H         1 UNK         0.3040 
     91 H91        23.4612  -27.5462  -36.6800 H         1 UNK         0.1015 
     92 H92        21.4697  -26.0808  -36.3871 H         1 UNK         0.0786 
     93 H93        21.7818  -25.3068  -37.9417 H         1 UNK         0.0786 
     94 H94        22.9134  -25.1084  -36.6108 H         1 UNK         0.0786 
     95 H95        23.1952  -27.3058  -40.1352 H         1 UNK         0.3172 
     96 H96        25.7526  -25.7768  -40.3894 H         1 UNK         0.0595 
     97 H97        23.8043  -24.7683  -41.5435 H         1 UNK         0.0839 
     98 H98        23.5088  -26.2691  -42.4186 H         1 UNK         0.0839 
     99 H99        24.9804  -25.3528  -42.7087 H         1 UNK         0.0839 
    100 H100       23.9997  -28.6853  -41.6056 H         1 UNK         0.2998 
    101 H101       26.5990  -29.8902  -42.4820 H         1 UNK         0.0822 
    102 H102       25.5530  -28.6016  -44.3749 H         1 UNK         0.0787 
    103 H103       25.5596  -30.3270  -44.6976 H         1 UNK         0.0787 
    104 H104       24.0750  -29.5425  -44.1691 H         1 UNK         0.0787 
    105 H105       24.3991  -30.4721  -40.3222 H         1 UNK         0.3055 
    106 H106       23.5206  -32.2488  -39.2936 H         1 UNK         0.1106 
    107 H107       25.5321  -33.9159  -40.8748 H         1 UNK         0.0828 
    108 H108       25.9006  -33.0025  -39.4120 H         1 UNK         0.0828 
    109 H109       24.7730  -34.3438  -39.3508 H         1 UNK         0.0828 
    110 H110       22.4417  -31.5898  -42.1364 H         1 UNK         0.2931 
    111 H111       20.9545  -32.2460  -43.6102 H         1 UNK         0.0412 
    112 H112       23.4931  -34.8340  -44.7659 H         1 UNK         0.3472 
    113 H113       23.7154  -33.4844  -43.6748 H         1 UNK         0.3472 
    114 H114       19.9969  -34.2498  -41.5146 H         1 UNK         0.0970 
    115 H115       19.1894  -34.0056  -43.0321 H         1 UNK         0.0970 
    116 H116       17.7120  -32.3698  -43.6573 H         1 UNK         0.0612 
    117 H117       16.6797  -32.6118  -42.2644 H         1 UNK         0.0612 
@<TRIPOS>BOND
     1    1    2 1    
     2    1   62 1    
     3    1   63 1    
     4    1   64 1    
     5    2    3 2    
     6    2    4 am   BACKBONE|DICT|INTERRES
     7    4    5 1    
     8    4   65 1    
     9    5    6 1    
    10    5   25 1    
    11    5   66 1    
    12    6    7 1    
    13    6   67 1    
    14    6   68 1    
    15    7    8 1    
    16    8    9 1    
    17    8   69 1    
    18    8   70 1    
    19    9   10 ar   
    20    9   14 ar   
    21   10   11 ar   
    22   10   71 1    
    23   11   12 ar   
    24   11   61 1    
    25   12   13 ar   
    26   12   72 1    
    27   13   14 ar   
    28   13   15 1    
    29   14   73 1    
    30   15   16 1    
    31   15   74 1    
    32   15   75 1    
    33   16   17 1    
    34   17   18 1    
    35   17   76 1    
    36   17   77 1    
    37   18   19 1    
    38   18   27 1    
    39   18   78 1    
    40   19   20 am   BACKBONE|DICT|INTERRES
    41   19   79 1    
    42   20   21 2    
    43   20   22 1    
    44   22   23 1    
    45   22   24 1    
    46   22   80 1    
    47   23   81 1    
    48   23   82 1    
    49   23   83 1    
    50   24   25 am   BACKBONE|DICT|INTERRES
    51   24   84 1    
    52   25   26 2    
    53   27   28 2    
    54   27   29 am   BACKBONE|DICT|INTERRES
    55   29   30 1    
    56   29   85 1    
    57   30   31 1    
    58   30   32 1    
    59   30   86 1    
    60   31   87 1    
    61   31   88 1    
    62   31   89 1    
    63   32   33 2    
    64   32   34 am   BACKBONE|DICT|INTERRES
    65   34   35 1    
    66   34   90 1    
    67   35   36 1    
    68   35   37 1    
    69   35   91 1    
    70   36   92 1    
    71   36   93 1    
    72   36   94 1    
    73   37   38 2    
    74   37   39 am   BACKBONE|DICT|INTERRES
    75   39   40 1    
    76   39   95 1    
    77   40   41 1    
    78   40   42 1    
    79   40   96 1    
    80   41   97 1    
    81   41   98 1    
    82   41   99 1    
    83   42   43 2    
    84   42   44 am   BACKBONE|DICT|INTERRES
    85   44   45 1    
    86   44  100 1    
    87   45   46 1    
    88   45   47 1    
    89   45  101 1    
    90   46  102 1    
    91   46  103 1    
    92   46  104 1    
    93   47   48 2    
    94   47   49 am   BACKBONE|DICT|INTERRES
    95   49   50 1    
    96   49  105 1    
    97   50   51 1    
    98   50   52 1    
    99   50  106 1    
   100   51  107 1    
   101   51  108 1    
   102   51  109 1    
   103   52   53 2    
   104   52   54 am   BACKBONE|DICT|INTERRES
   105   54   55 1    
   106   54  110 1    
   107   55   56 1    
   108   55   59 1    
   109   55  111 1    
   110   56   57 am   BACKBONE|DICT|INTERRES
   111   56   58 2    
   112   57  112 1    
   113   57  113 1    
   114   59   60 1    
   115   59  114 1    
   116   59  115 1    
   117   60   61 1    
   118   61  116 1    
   119   61  117 1    
@<TRIPOS>SUBSTRUCTURE
     1 UNK         1 GROUP             0       ****    0 ROOT    
