@<TRIPOS>MOLECULE
3R8
117   119    1
SMALL
USER_CHARGES


@<TRIPOS>ATOM
      1 CA         17.5486  -22.3737  -42.7750 C.3       0 UNK        -0.2013 
      2 C          16.9936  -23.6501  -42.1463 C.2       0 UNK         0.4866 
      3 O          16.4411  -23.5856  -41.0498 O.2       0 UNK        -0.5176 
      4 N          17.0899  -24.8227  -42.7902 N.am      1 UNK        -0.4884 
      5 CA         17.7555  -25.1113  -44.0697 C.3       1 UNK         0.0853 
      6 C6         17.5114  -26.5812  -44.5291 C.3       10 UNK        -0.0849 
      7 S7         15.7977  -27.1755  -44.3032 S.3       10 UNK        -0.2776 
      8 C8         15.7730  -28.7339  -45.2575 C.3       10 UNK         0.0316 
      9 C9         16.8945  -29.7033  -44.8907 C.ar      10 UNK        -0.0863 
     10 C10        17.0266  -30.1972  -43.5868 C.ar      10 UNK        -0.1009 
     11 C11        18.0727  -31.0691  -43.2601 C.ar      10 UNK        -0.0712 
     12 C12        18.9685  -31.4694  -44.2540 C.ar      10 UNK        -0.0894 
     13 C13        18.8369  -31.0017  -45.5617 C.ar      10 UNK        -0.0745 
     14 C14        17.7974  -30.1201  -45.8740 C.ar      10 UNK        -0.0972 
     15 C15        19.8275  -31.4389  -46.6329 C.3       10 UNK         0.0209 
     16 S16        21.4962  -30.7539  -46.3629 S.3       10 UNK        -0.2568 
     17 C17        21.1679  -28.9629  -46.3588 C.3       10 UNK        -0.0983 
     18 CA         21.8858  -28.1360  -45.2629 C.3       3 UNK         0.0876 
     19 N          21.4979  -26.7365  -45.4297 N.am      3 UNK        -0.4424 
     20 C          22.1231  -25.6724  -44.9180 C.2       2 UNK         0.4918 
     21 O          23.1682  -25.7345  -44.2735 O.2       2 UNK        -0.4875 
     22 CA         21.4018  -24.3229  -45.1139 C.3       2 UNK         0.0481 
     23 CB         21.8187  -23.6749  -46.4430 C.3       2 UNK        -0.1831 
     24 N          19.9340  -24.4515  -45.0585 N.am      2 UNK        -0.4498 
     25 C          19.2761  -24.8587  -43.9630 C.2       1 UNK         0.5027 
     26 O          19.8499  -25.1073  -42.9015 O.2       1 UNK        -0.4969 
     27 C          21.6635  -28.6305  -43.8058 C.2       3 UNK         0.5005 
     28 O          22.4417  -29.4518  -43.3158 O.2       3 UNK        -0.5279 
     29 N          20.6658  -28.0711  -43.1000 N.am      4 UNK        -0.4463 
     30 CA         20.4349  -28.3093  -41.6702 C.3       4 UNK         0.0283 
     31 CB         18.9987  -27.9352  -41.2691 C.3       4 UNK        -0.1875 
     32 C          21.4460  -27.5586  -40.7942 C.2       4 UNK         0.4949 
     33 O          21.9115  -28.1209  -39.8055 O.2       4 UNK        -0.5039 
     34 N          21.8149  -26.3314  -41.1898 N.am      5 UNK        -0.4663 
     35 CA         22.8858  -25.5446  -40.5649 C.3       5 UNK         0.0242 
     36 CB         22.8843  -24.1195  -41.1397 C.3       5 UNK        -0.1982 
     37 C          24.2722  -26.2022  -40.7103 C.2       5 UNK         0.5017 
     38 O          25.1019  -26.0708  -39.8107 O.2       5 UNK        -0.5012 
     39 N          24.4714  -26.9464  -41.8080 N.am      6 UNK        -0.4439 
     40 CA         25.6165  -27.8314  -42.0443 C.3       6 UNK         0.0297 
     41 CB         25.7377  -28.1010  -43.5539 C.3       6 UNK        -0.2006 
     42 C          25.5560  -29.1574  -41.2515 C.2       6 UNK         0.4892 
     43 O          26.5099  -29.9326  -41.3274 O.2       6 UNK        -0.5089 
     44 N          24.4626  -29.3932  -40.5082 N.am      7 UNK        -0.4243 
     45 CA         24.1970  -30.5312  -39.6211 C.3       7 UNK         0.0196 
     46 CB         25.2164  -30.5809  -38.4623 C.3       7 UNK        -0.2007 
     47 C          24.0491  -31.8779  -40.3511 C.2       7 UNK         0.5020 
     48 O          24.3670  -32.9183  -39.7723 O.2       7 UNK        -0.5147 
     49 N          23.5345  -31.8621  -41.5902 N.am      8 UNK        -0.4734 
     50 CA         23.3469  -33.0674  -42.4096 C.3       8 UNK         0.0238 
     51 CB         22.9844  -32.6576  -43.8405 C.3       8 UNK        -0.1912 
     52 C          22.3092  -34.0623  -41.8540 C.2       8 UNK         0.5038 
     53 O          22.4317  -35.2589  -42.1191 O.2       8 UNK        -0.5046 
     54 N          21.3331  -33.5636  -41.0826 N.am      9 UNK        -0.4200 
     55 CA         20.3730  -34.3818  -40.3201 C.3       9 UNK         0.0839 
     56 C          20.9388  -34.9218  -38.9716 C.2       9 UNK         0.5513 
     57 N          22.1669  -34.6074  -38.5736 N.am      9 UNK        -0.7519 
     58 O          20.2480  -35.6567  -38.2705 O.2       9 UNK        -0.4960 
     59 C59        19.0122  -33.6586  -40.1170 C.3       10 UNK        -0.0876 
     60 S60        18.1399  -33.3558  -41.6921 S.3       10 UNK        -0.2414 
     61 C61        18.2815  -31.5484  -41.8311 C.3       10 UNK         0.0169 
     62 H62        18.6212  -22.2972  -42.5979 H         1 UNK         0.0903 
     63 H63        17.3631  -22.3306  -43.8471 H         1 UNK         0.0903 
     64 H64        17.0759  -21.4983  -42.3301 H         1 UNK         0.0903 
     65 H65        16.6827  -25.6352  -42.3500 H         1 UNK         0.3096 
     66 H66        17.3357  -24.4433  -44.8240 H         1 UNK         0.1121 
     67 H67        18.1474  -27.2744  -43.9794 H         1 UNK         0.0849 
     68 H68        17.7806  -26.6952  -45.5809 H         1 UNK         0.0849 
     69 H69        15.8072  -28.4871  -46.3199 H         1 UNK         0.0865 
     70 H70        14.8147  -29.2286  -45.0945 H         1 UNK         0.0865 
     71 H71        16.3299  -29.8791  -42.8232 H         1 UNK         0.1346 
     72 H72        19.7754  -32.1434  -44.0051 H         1 UNK         0.1412 
     73 H73        17.6977  -29.7516  -46.8860 H         1 UNK         0.1426 
     74 H74        19.4809  -31.1453  -47.6249 H         1 UNK         0.0716 
     75 H75        19.8905  -32.5279  -46.6406 H         1 UNK         0.0716 
     76 H76        20.0958  -28.7827  -46.3033 H         1 UNK         0.0695 
     77 H77        21.4676  -28.5921  -47.3405 H         1 UNK         0.0695 
     78 H78        22.9597  -28.2048  -45.4494 H         1 UNK         0.0983 
     79 H79        20.6643  -26.5709  -45.9728 H         1 UNK         0.3095 
     80 H80        21.7129  -23.6612  -44.3027 H         1 UNK         0.0454 
     81 H81        21.5172  -24.2752  -47.3022 H         1 UNK         0.0851 
     82 H82        22.9019  -23.5549  -46.4941 H         1 UNK         0.0851 
     83 H83        21.3806  -22.6830  -46.5554 H         1 UNK         0.0851 
     84 H84        19.4229  -24.2500  -45.9071 H         1 UNK         0.2976 
     85 H85        20.1197  -27.3414  -43.5291 H         1 UNK         0.3116 
     86 H86        20.5695  -29.3750  -41.4807 H         1 UNK         0.0646 
     87 H87        18.2618  -28.4495  -41.8810 H         1 UNK         0.0847 
     88 H88        18.8117  -26.8650  -41.3474 H         1 UNK         0.0847 
     89 H89        18.8052  -28.2163  -40.2332 H         1 UNK         0.0847 
     90 H90        21.3111  -25.8990  -41.9594 H         1 UNK         0.3040 
     91 H91        22.6670  -25.4807  -39.4966 H         1 UNK         0.1015 
     92 H92        23.6195  -23.4951  -40.6303 H         1 UNK         0.0786 
     93 H93        21.9116  -23.6425  -41.0165 H         1 UNK         0.0786 
     94 H94        23.1302  -24.1083  -42.2010 H         1 UNK         0.0786 
     95 H95        23.7575  -26.9240  -42.5263 H         1 UNK         0.3172 
     96 H96        26.5195  -27.3079  -41.7240 H         1 UNK         0.0595 
     97 H97        24.8992  -28.6870  -43.9287 H         1 UNK         0.0839 
     98 H98        26.6468  -28.6605  -43.7779 H         1 UNK         0.0839 
     99 H99        25.7813  -27.1724  -44.1236 H         1 UNK         0.0839 
    100 H100       23.7232  -28.6996  -40.5213 H         1 UNK         0.2998 
    101 H101       23.2204  -30.3386  -39.1757 H         1 UNK         0.0822 
    102 H102       25.2846  -29.6194  -37.9533 H         1 UNK         0.0787 
    103 H103       24.9250  -31.3205  -37.7155 H         1 UNK         0.0787 
    104 H104       26.2142  -30.8488  -38.8109 H         1 UNK         0.0787 
    105 H105       23.2871  -30.9744  -42.0176 H         1 UNK         0.3055 
    106 H106       24.3035  -33.5940  -42.4425 H         1 UNK         0.1106 
    107 H107       22.8613  -33.5287  -44.4853 H         1 UNK         0.0828 
    108 H108       23.7565  -32.0290  -44.2845 H         1 UNK         0.0828 
    109 H109       22.0501  -32.0996  -43.8597 H         1 UNK         0.0828 
    110 H110       21.3217  -32.5709  -40.9079 H         1 UNK         0.2931 
    111 H111       20.1622  -35.2762  -40.9099 H         1 UNK         0.0412 
    112 H112       22.5032  -34.9781  -37.6989 H         1 UNK         0.3472 
    113 H113       22.7804  -34.0307  -39.1375 H         1 UNK         0.3472 
    114 H114       18.3438  -34.2667  -39.5043 H         1 UNK         0.0970 
    115 H115       19.1479  -32.7249  -39.5686 H         1 UNK         0.0970 
    116 H116       19.2765  -31.2452  -41.5078 H         1 UNK         0.0612 
    117 H117       17.5715  -31.0781  -41.1492 H         1 UNK         0.0612 
@<TRIPOS>BOND
     1    1    2 1    
     2    1   62 1    
     3    1   63 1    
     4    1   64 1    
     5    2    3 2    
     6    2    4 am   BACKBONE|DICT|INTERRES
     7    4    5 1    
     8    4   65 1    
     9    5    6 1    
    10    5   25 1    
    11    5   66 1    
    12    6    7 1    
    13    6   67 1    
    14    6   68 1    
    15    7    8 1    
    16    8    9 1    
    17    8   69 1    
    18    8   70 1    
    19    9   10 ar   
    20    9   14 ar   
    21   10   11 ar   
    22   10   71 1    
    23   11   12 ar   
    24   11   61 1    
    25   12   13 ar   
    26   12   72 1    
    27   13   14 ar   
    28   13   15 1    
    29   14   73 1    
    30   15   16 1    
    31   15   74 1    
    32   15   75 1    
    33   16   17 1    
    34   17   18 1    
    35   17   76 1    
    36   17   77 1    
    37   18   19 1    
    38   18   27 1    
    39   18   78 1    
    40   19   20 am   BACKBONE|DICT|INTERRES
    41   19   79 1    
    42   20   21 2    
    43   20   22 1    
    44   22   23 1    
    45   22   24 1    
    46   22   80 1    
    47   23   81 1    
    48   23   82 1    
    49   23   83 1    
    50   24   25 am   BACKBONE|DICT|INTERRES
    51   24   84 1    
    52   25   26 2    
    53   27   28 2    
    54   27   29 am   BACKBONE|DICT|INTERRES
    55   29   30 1    
    56   29   85 1    
    57   30   31 1    
    58   30   32 1    
    59   30   86 1    
    60   31   87 1    
    61   31   88 1    
    62   31   89 1    
    63   32   33 2    
    64   32   34 am   BACKBONE|DICT|INTERRES
    65   34   35 1    
    66   34   90 1    
    67   35   36 1    
    68   35   37 1    
    69   35   91 1    
    70   36   92 1    
    71   36   93 1    
    72   36   94 1    
    73   37   38 2    
    74   37   39 am   BACKBONE|DICT|INTERRES
    75   39   40 1    
    76   39   95 1    
    77   40   41 1    
    78   40   42 1    
    79   40   96 1    
    80   41   97 1    
    81   41   98 1    
    82   41   99 1    
    83   42   43 2    
    84   42   44 am   BACKBONE|DICT|INTERRES
    85   44   45 1    
    86   44  100 1    
    87   45   46 1    
    88   45   47 1    
    89   45  101 1    
    90   46  102 1    
    91   46  103 1    
    92   46  104 1    
    93   47   48 2    
    94   47   49 am   BACKBONE|DICT|INTERRES
    95   49   50 1    
    96   49  105 1    
    97   50   51 1    
    98   50   52 1    
    99   50  106 1    
   100   51  107 1    
   101   51  108 1    
   102   51  109 1    
   103   52   53 2    
   104   52   54 am   BACKBONE|DICT|INTERRES
   105   54   55 1    
   106   54  110 1    
   107   55   56 1    
   108   55   59 1    
   109   55  111 1    
   110   56   57 am   BACKBONE|DICT|INTERRES
   111   56   58 2    
   112   57  112 1    
   113   57  113 1    
   114   59   60 1    
   115   59  114 1    
   116   59  115 1    
   117   60   61 1    
   118   61  116 1    
   119   61  117 1    
@<TRIPOS>SUBSTRUCTURE
     1 UNK         1 GROUP             0       ****    0 ROOT    
