@<TRIPOS>MOLECULE
3R8
117   119    1
SMALL
USER_CHARGES


@<TRIPOS>ATOM
      1 CA         16.6806  -24.8458  -42.5794 C.3       0 UNK        -0.2013 
      2 C          17.6205  -25.6751  -43.4399 C.2       0 UNK         0.4866 
      3 O          18.6159  -26.1841  -42.9214 O.2       0 UNK        -0.5176 
      4 N          17.3090  -25.7988  -44.7418 N.am      1 UNK        -0.4884 
      5 CA         18.0087  -26.5848  -45.7756 C.3       1 UNK         0.0853 
      6 C6         17.5992  -28.0841  -45.7604 C.3       10 UNK        -0.0849 
      7 S7         15.8065  -28.3609  -45.9364 S.3       10 UNK        -0.2776 
      8 C8         15.7302  -30.1878  -45.8224 C.3       10 UNK         0.0316 
      9 C9         16.2100  -30.7785  -44.4936 C.ar      10 UNK        -0.0863 
     10 C10        16.7778  -32.0595  -44.4750 C.ar      10 UNK        -0.1009 
     11 C11        17.2245  -32.6276  -43.2758 C.ar      10 UNK        -0.0712 
     12 C12        17.1009  -31.9057  -42.0878 C.ar      10 UNK        -0.0894 
     13 C13        16.5583  -30.6194  -42.0934 C.ar      10 UNK        -0.0745 
     14 C14        16.0898  -30.0732  -43.2896 C.ar      10 UNK        -0.0972 
     15 C15        16.5289  -29.7963  -40.8166 C.3       10 UNK         0.0209 
     16 S16        17.8133  -28.5044  -40.8355 S.3       10 UNK        -0.2568 
     17 C17        19.3454  -29.4945  -40.9257 C.3       10 UNK        -0.0983 
     18 CA         20.6166  -28.7328  -41.3688 C.3       3 UNK         0.0876 
     19 N          20.5997  -28.2597  -42.7615 N.am      3 UNK        -0.4424 
     20 C          21.7271  -28.0699  -43.4705 C.2       2 UNK         0.4918 
     21 O          22.8271  -28.4344  -43.0599 O.2       2 UNK        -0.4875 
     22 CA         21.6442  -27.3328  -44.8216 C.3       2 UNK         0.0481 
     23 CB         22.6681  -27.8545  -45.8456 C.3       2 UNK        -0.1831 
     24 N          20.2949  -27.4142  -45.3727 N.am      2 UNK        -0.4498 
     25 C          19.5383  -26.3595  -45.7029 C.2       1 UNK         0.5027 
     26 O          19.9833  -25.2213  -45.8690 O.2       1 UNK        -0.4969 
     27 C          21.0187  -27.6024  -40.4034 C.2       3 UNK         0.5005 
     28 O          21.6944  -27.8713  -39.4085 O.2       3 UNK        -0.5279 
     29 N          20.6842  -26.3528  -40.7630 N.am      4 UNK        -0.4463 
     30 CA         21.2015  -25.1355  -40.1318 C.3       4 UNK         0.0283 
     31 CB         20.5023  -23.9126  -40.7452 C.3       4 UNK        -0.1875 
     32 C          22.7331  -25.0038  -40.2538 C.2       4 UNK         0.4949 
     33 O          23.3706  -24.4623  -39.3513 O.2       4 UNK        -0.5039 
     34 N          23.3045  -25.5519  -41.3355 N.am      5 UNK        -0.4663 
     35 CA         24.7432  -25.6641  -41.5797 C.3       5 UNK         0.0242 
     36 CB         24.9993  -25.6057  -43.0974 C.3       5 UNK        -0.1982 
     37 C          25.3220  -26.9350  -40.9240 C.2       5 UNK         0.5017 
     38 O          25.9512  -27.7489  -41.6012 O.2       5 UNK        -0.5012 
     39 N          25.1009  -27.0671  -39.6084 N.am      6 UNK        -0.4439 
     40 CA         25.6157  -28.1108  -38.7142 C.3       6 UNK         0.0297 
     41 CB         27.1465  -27.9792  -38.5576 C.3       6 UNK        -0.2006 
     42 C          25.1717  -29.5397  -39.0905 C.2       6 UNK         0.4892 
     43 O          26.0081  -30.4418  -39.1684 O.2       6 UNK        -0.5089 
     44 N          23.8549  -29.7220  -39.2743 N.am      7 UNK        -0.4243 
     45 CA         23.1588  -31.0048  -39.4566 C.3       7 UNK         0.0196 
     46 CB         23.2653  -31.8649  -38.1781 C.3       7 UNK        -0.2007 
     47 C          23.5591  -31.7823  -40.7284 C.2       7 UNK         0.5020 
     48 O          23.4966  -33.0125  -40.7307 O.2       7 UNK        -0.5147 
     49 N          23.9464  -31.0711  -41.7970 N.am      8 UNK        -0.4734 
     50 CA         24.3644  -31.6761  -43.0681 C.3       8 UNK         0.0238 
     51 CB         25.2748  -30.6915  -43.8215 C.3       8 UNK        -0.1912 
     52 C          23.1914  -32.1235  -43.9617 C.2       8 UNK         0.5038 
     53 O          23.4244  -32.8781  -44.9076 O.2       8 UNK        -0.5046 
     54 N          21.9741  -31.6429  -43.6675 N.am      9 UNK        -0.4200 
     55 CA         20.7182  -31.8171  -44.4222 C.3       9 UNK         0.0839 
     56 C          20.7380  -31.1286  -45.8102 C.2       9 UNK         0.5513 
     57 N          21.6520  -31.4868  -46.7001 N.am      9 UNK        -0.7519 
     58 O          19.9232  -30.2512  -46.0709 O.2       9 UNK        -0.4960 
     59 C59        20.2390  -33.2900  -44.5424 C.3       10 UNK        -0.0876 
     60 S60        19.6464  -33.9582  -42.9548 S.3       10 UNK        -0.2414 
     61 C61        17.8459  -34.0177  -43.2462 C.3       10 UNK         0.0169 
     62 H62        17.2044  -23.9756  -42.1851 H         1 UNK         0.0903 
     63 H63        15.8120  -24.4982  -43.1382 H         1 UNK         0.0903 
     64 H64        16.3271  -25.4411  -41.7378 H         1 UNK         0.0903 
     65 H65        16.4845  -25.3219  -45.0785 H         1 UNK         0.3096 
     66 H66        17.6988  -26.1709  -46.7367 H         1 UNK         0.1121 
     67 H67        18.0782  -28.6075  -46.5887 H         1 UNK         0.0849 
     68 H68        17.9294  -28.5646  -44.8378 H         1 UNK         0.0849 
     69 H69        16.3126  -30.6044  -46.6460 H         1 UNK         0.0865 
     70 H70        14.6987  -30.5023  -45.9853 H         1 UNK         0.0865 
     71 H71        16.8742  -32.6161  -45.3972 H         1 UNK         0.1346 
     72 H72        17.4652  -32.3337  -41.1637 H         1 UNK         0.1412 
     73 H73        15.6654  -29.0789  -43.2787 H         1 UNK         0.1426 
     74 H74        16.6670  -30.4297  -39.9389 H         1 UNK         0.0716 
     75 H75        15.5510  -29.3252  -40.7076 H         1 UNK         0.0716 
     76 H76        19.2000  -30.3251  -41.6138 H         1 UNK         0.0695 
     77 H77        19.5055  -29.9496  -39.9466 H         1 UNK         0.0695 
     78 H78        21.4197  -29.4653  -41.3002 H         1 UNK         0.0983 
     79 H79        19.7347  -27.8287  -43.0759 H         1 UNK         0.3095 
     80 H80        21.8949  -26.2932  -44.6021 H         1 UNK         0.0454 
     81 H81        22.5841  -27.3239  -46.7938 H         1 UNK         0.0851 
     82 H82        22.5415  -28.9166  -46.0444 H         1 UNK         0.0851 
     83 H83        23.6888  -27.7150  -45.4891 H         1 UNK         0.0851 
     84 H84        19.8782  -28.3403  -45.3647 H         1 UNK         0.2976 
     85 H85        20.0597  -26.2336  -41.5573 H         1 UNK         0.3116 
     86 H86        20.9552  -25.1790  -39.0689 H         1 UNK         0.0646 
     87 H87        20.8556  -22.9886  -40.2852 H         1 UNK         0.0847 
     88 H88        19.4234  -23.9569  -40.5947 H         1 UNK         0.0847 
     89 H89        20.6871  -23.8363  -41.8176 H         1 UNK         0.0847 
     90 H90        22.7072  -26.0312  -41.9918 H         1 UNK         0.3040 
     91 H91        25.2529  -24.8101  -41.1275 H         1 UNK         0.1015 
     92 H92        24.5858  -24.6980  -43.5370 H         1 UNK         0.0786 
     93 H93        24.5626  -26.4595  -43.6142 H         1 UNK         0.0786 
     94 H94        26.0687  -25.6105  -43.3117 H         1 UNK         0.0786 
     95 H95        24.5416  -26.3455  -39.1675 H         1 UNK         0.3172 
     96 H96        25.1741  -27.9108  -37.7368 H         1 UNK         0.0595 
     97 H97        27.6692  -28.1951  -39.4902 H         1 UNK         0.0839 
     98 H98        27.5239  -28.6743  -37.8065 H         1 UNK         0.0839 
     99 H99        27.4293  -26.9761  -38.2387 H         1 UNK         0.0839 
    100 H100       23.2436  -28.9090  -39.2174 H         1 UNK         0.2998 
    101 H101       22.1033  -30.7626  -39.5738 H         1 UNK         0.0822 
    102 H102       24.2832  -32.2188  -38.0114 H         1 UNK         0.0787 
    103 H103       22.9557  -31.3046  -37.2958 H         1 UNK         0.0787 
    104 H104       22.6228  -32.7441  -38.2409 H         1 UNK         0.0787 
    105 H105       23.9812  -30.0600  -41.7426 H         1 UNK         0.3055 
    106 H106       24.9534  -32.5698  -42.8484 H         1 UNK         0.1106 
    107 H107       25.6767  -31.1474  -44.7272 H         1 UNK         0.0828 
    108 H108       24.7418  -29.7905  -44.1237 H         1 UNK         0.0828 
    109 H109       26.1232  -30.3861  -43.2085 H         1 UNK         0.0828 
    110 H110       21.9224  -31.0098  -42.8857 H         1 UNK         0.2931 
    111 H111       19.9664  -31.2806  -43.8404 H         1 UNK         0.0412 
    112 H112       22.3578  -32.1651  -46.4363 H         1 UNK         0.3472 
    113 H113       21.6718  -31.0490  -47.6071 H         1 UNK         0.3472 
    114 H114       19.4331  -33.3748  -45.2738 H         1 UNK         0.0970 
    115 H115       21.0348  -33.9345  -44.9170 H         1 UNK         0.0970 
    116 H116       17.6403  -34.5590  -44.1710 H         1 UNK         0.0612 
    117 H117       17.3829  -34.5978  -42.4466 H         1 UNK         0.0612 
@<TRIPOS>BOND
     1    1    2 1    
     2    1   62 1    
     3    1   63 1    
     4    1   64 1    
     5    2    3 2    
     6    2    4 am   BACKBONE|DICT|INTERRES
     7    4    5 1    
     8    4   65 1    
     9    5    6 1    
    10    5   25 1    
    11    5   66 1    
    12    6    7 1    
    13    6   67 1    
    14    6   68 1    
    15    7    8 1    
    16    8    9 1    
    17    8   69 1    
    18    8   70 1    
    19    9   10 ar   
    20    9   14 ar   
    21   10   11 ar   
    22   10   71 1    
    23   11   12 ar   
    24   11   61 1    
    25   12   13 ar   
    26   12   72 1    
    27   13   14 ar   
    28   13   15 1    
    29   14   73 1    
    30   15   16 1    
    31   15   74 1    
    32   15   75 1    
    33   16   17 1    
    34   17   18 1    
    35   17   76 1    
    36   17   77 1    
    37   18   19 1    
    38   18   27 1    
    39   18   78 1    
    40   19   20 am   BACKBONE|DICT|INTERRES
    41   19   79 1    
    42   20   21 2    
    43   20   22 1    
    44   22   23 1    
    45   22   24 1    
    46   22   80 1    
    47   23   81 1    
    48   23   82 1    
    49   23   83 1    
    50   24   25 am   BACKBONE|DICT|INTERRES
    51   24   84 1    
    52   25   26 2    
    53   27   28 2    
    54   27   29 am   BACKBONE|DICT|INTERRES
    55   29   30 1    
    56   29   85 1    
    57   30   31 1    
    58   30   32 1    
    59   30   86 1    
    60   31   87 1    
    61   31   88 1    
    62   31   89 1    
    63   32   33 2    
    64   32   34 am   BACKBONE|DICT|INTERRES
    65   34   35 1    
    66   34   90 1    
    67   35   36 1    
    68   35   37 1    
    69   35   91 1    
    70   36   92 1    
    71   36   93 1    
    72   36   94 1    
    73   37   38 2    
    74   37   39 am   BACKBONE|DICT|INTERRES
    75   39   40 1    
    76   39   95 1    
    77   40   41 1    
    78   40   42 1    
    79   40   96 1    
    80   41   97 1    
    81   41   98 1    
    82   41   99 1    
    83   42   43 2    
    84   42   44 am   BACKBONE|DICT|INTERRES
    85   44   45 1    
    86   44  100 1    
    87   45   46 1    
    88   45   47 1    
    89   45  101 1    
    90   46  102 1    
    91   46  103 1    
    92   46  104 1    
    93   47   48 2    
    94   47   49 am   BACKBONE|DICT|INTERRES
    95   49   50 1    
    96   49  105 1    
    97   50   51 1    
    98   50   52 1    
    99   50  106 1    
   100   51  107 1    
   101   51  108 1    
   102   51  109 1    
   103   52   53 2    
   104   52   54 am   BACKBONE|DICT|INTERRES
   105   54   55 1    
   106   54  110 1    
   107   55   56 1    
   108   55   59 1    
   109   55  111 1    
   110   56   57 am   BACKBONE|DICT|INTERRES
   111   56   58 2    
   112   57  112 1    
   113   57  113 1    
   114   59   60 1    
   115   59  114 1    
   116   59  115 1    
   117   60   61 1    
   118   61  116 1    
   119   61  117 1    
@<TRIPOS>SUBSTRUCTURE
     1 UNK         1 GROUP             0       ****    0 ROOT    
