@<TRIPOS>MOLECULE
3R8
117   119    1
SMALL
USER_CHARGES


@<TRIPOS>ATOM
      1 CA         13.7652  -26.0366  -40.5134 C.3       0 UNK        -0.2013 
      2 C          14.7849  -25.5698  -41.5414 C.2       0 UNK         0.4866 
      3 O          15.4477  -24.5549  -41.3272 O.2       0 UNK        -0.5176 
      4 N          14.9066  -26.2994  -42.6577 N.am      1 UNK        -0.4884 
      5 CA         15.8679  -26.0572  -43.7403 C.3       1 UNK         0.0853 
      6 C6         15.5233  -26.8477  -45.0330 C.3       10 UNK        -0.0849 
      7 S7         14.9349  -28.5572  -44.7441 S.3       10 UNK        -0.2776 
      8 C8         15.3723  -29.3779  -46.3081 C.3       10 UNK         0.0316 
      9 C9         16.8306  -29.8031  -46.3114 C.ar      10 UNK        -0.0863 
     10 C10        17.2238  -30.9408  -45.6030 C.ar      10 UNK        -0.1009 
     11 C11        18.5677  -31.3215  -45.5588 C.ar      10 UNK        -0.0712 
     12 C12        19.5209  -30.5655  -46.2473 C.ar      10 UNK        -0.0894 
     13 C13        19.1337  -29.4395  -46.9795 C.ar      10 UNK        -0.0745 
     14 C14        17.7876  -29.0628  -47.0092 C.ar      10 UNK        -0.0972 
     15 C15        20.1614  -28.6273  -47.7486 C.3       10 UNK         0.0209 
     16 S16        20.4866  -27.0342  -46.9397 S.3       10 UNK        -0.2568 
     17 C17        21.6838  -27.5066  -45.6486 C.3       10 UNK        -0.0983 
     18 CA         21.5660  -26.5587  -44.4238 C.3       3 UNK         0.0876 
     19 N          20.3863  -26.8288  -43.5932 N.am      3 UNK        -0.4424 
     20 C          20.1649  -27.8623  -42.7725 C.2       2 UNK         0.4918 
     21 O          20.9758  -28.7653  -42.5675 O.2       2 UNK        -0.4875 
     22 CA         18.8265  -27.8857  -42.0019 C.3       2 UNK         0.0481 
     23 CB         18.9643  -27.1071  -40.6786 C.3       2 UNK        -0.1831 
     24 N          17.6150  -27.4543  -42.7235 N.am      2 UNK        -0.4498 
     25 C          17.3227  -26.2634  -43.2705 C.2       1 UNK         0.5027 
     26 O          18.1222  -25.3307  -43.3669 O.2       1 UNK        -0.4969 
     27 C          22.8732  -26.4037  -43.6134 C.2       3 UNK         0.5005 
     28 O          23.9278  -26.8642  -44.0545 O.2       3 UNK        -0.5279 
     29 N          22.7797  -25.7002  -42.4714 N.am      4 UNK        -0.4463 
     30 CA         23.8633  -25.1399  -41.6474 C.3       4 UNK         0.0283 
     31 CB         24.3398  -23.8055  -42.2612 C.3       4 UNK        -0.1875 
     32 C          25.0257  -26.1117  -41.3653 C.2       4 UNK         0.4949 
     33 O          24.9460  -26.8892  -40.4148 O.2       4 UNK        -0.5039 
     34 N          26.0672  -26.0683  -42.2103 N.am      5 UNK        -0.4663 
     35 CA         27.2533  -26.9320  -42.1839 C.3       5 UNK         0.0242 
     36 CB         28.2322  -26.4673  -43.2742 C.3       5 UNK        -0.1982 
     37 C          26.9574  -28.4373  -42.3320 C.2       5 UNK         0.5017 
     38 O          27.7935  -29.2485  -41.9332 O.2       5 UNK        -0.5012 
     39 N          25.7711  -28.7902  -42.8513 N.am      6 UNK        -0.4439 
     40 CA         25.2237  -30.1514  -42.8427 C.3       6 UNK         0.0297 
     41 CB         24.0282  -30.2244  -43.8063 C.3       6 UNK        -0.2006 
     42 C          24.8296  -30.6584  -41.4370 C.2       6 UNK         0.4892 
     43 O          24.5157  -31.8416  -41.3057 O.2       6 UNK        -0.5089 
     44 N          24.8516  -29.7779  -40.4215 N.am      7 UNK        -0.4243 
     45 CA         24.6399  -30.0477  -38.9944 C.3       7 UNK         0.0196 
     46 CB         25.7762  -30.9303  -38.4344 C.3       7 UNK        -0.2007 
     47 C          23.2381  -30.6031  -38.6924 C.2       7 UNK         0.5020 
     48 O          23.1027  -31.5388  -37.9026 O.2       7 UNK        -0.5147 
     49 N          22.2259  -30.0114  -39.3447 N.am      8 UNK        -0.4734 
     50 CA         20.8156  -30.4166  -39.3299 C.3       8 UNK         0.0238 
     51 CB         20.1844  -30.2068  -37.9366 C.3       8 UNK        -0.1912 
     52 C          20.6225  -31.8387  -39.8863 C.2       8 UNK         0.5038 
     53 O          19.9774  -32.6741  -39.2490 O.2       8 UNK        -0.5046 
     54 N          21.1860  -32.0633  -41.0805 N.am      9 UNK        -0.4200 
     55 CA         21.0900  -33.3048  -41.8648 C.3       9 UNK         0.0839 
     56 C          21.8710  -34.4933  -41.2325 C.2       9 UNK         0.5513 
     57 N          23.0644  -34.2622  -40.7016 N.am      9 UNK        -0.7519 
     58 O          21.4095  -35.6324  -41.2309 O.2       9 UNK        -0.4960 
     59 C59        19.6281  -33.6692  -42.2623 C.3       10 UNK        -0.0876 
     60 S60        18.7203  -32.2596  -42.9815 S.3       10 UNK        -0.2414 
     61 C61        18.9854  -32.5414  -44.7552 C.3       10 UNK         0.0169 
     62 H62        13.2452  -26.9390  -40.8346 H         1 UNK         0.0903 
     63 H63        14.2591  -26.2493  -39.5656 H         1 UNK         0.0903 
     64 H64        13.0209  -25.2591  -40.3431 H         1 UNK         0.0903 
     65 H65        14.3326  -27.1229  -42.7818 H         1 UNK         0.3096 
     66 H66        15.7913  -24.9967  -43.9931 H         1 UNK         0.1121 
     67 H67        16.3703  -26.8536  -45.7217 H         1 UNK         0.0849 
     68 H68        14.7255  -26.3255  -45.5637 H         1 UNK         0.0849 
     69 H69        14.7395  -30.2577  -46.4345 H         1 UNK         0.0865 
     70 H70        15.1498  -28.7205  -47.1503 H         1 UNK         0.0865 
     71 H71        16.4866  -31.5167  -45.0598 H         1 UNK         0.1346 
     72 H72        20.5629  -30.8529  -46.2139 H         1 UNK         0.1412 
     73 H73        17.4916  -28.1848  -47.5672 H         1 UNK         0.1426 
     74 H74        21.0954  -29.1790  -47.8675 H         1 UNK         0.0716 
     75 H75        19.7873  -28.4397  -48.7561 H         1 UNK         0.0716 
     76 H76        22.6680  -27.4538  -46.1166 H         1 UNK         0.0695 
     77 H77        21.5415  -28.5463  -45.3506 H         1 UNK         0.0695 
     78 H78        21.4068  -25.5527  -44.8161 H         1 UNK         0.0983 
     79 H79        19.6390  -26.1380  -43.6513 H         1 UNK         0.3095 
     80 H80        18.6464  -28.9317  -41.7481 H         1 UNK         0.0454 
     81 H81        18.0980  -27.2649  -40.0363 H         1 UNK         0.0851 
     82 H82        19.0619  -26.0342  -40.8464 H         1 UNK         0.0851 
     83 H83        19.8442  -27.4236  -40.1177 H         1 UNK         0.0851 
     84 H84        16.8804  -28.1483  -42.7615 H         1 UNK         0.2976 
     85 H85        21.8490  -25.4280  -42.1873 H         1 UNK         0.3116 
     86 H86        23.4223  -24.9105  -40.6759 H         1 UNK         0.0646 
     87 H87        23.5378  -23.0672  -42.2592 H         1 UNK         0.0847 
     88 H88        25.1650  -23.3786  -41.6891 H         1 UNK         0.0847 
     89 H89        24.6743  -23.9194  -43.2928 H         1 UNK         0.0847 
     90 H90        26.0028  -25.4292  -42.9894 H         1 UNK         0.3040 
     91 H91        27.7315  -26.7983  -41.2111 H         1 UNK         0.1015 
     92 H92        27.7955  -26.5532  -44.2701 H         1 UNK         0.0786 
     93 H93        29.1430  -27.0680  -43.2646 H         1 UNK         0.0786 
     94 H94        28.5307  -25.4294  -43.1250 H         1 UNK         0.0786 
     95 H95        25.1585  -28.0530  -43.1970 H         1 UNK         0.3172 
     96 H96        25.9969  -30.8255  -43.2167 H         1 UNK         0.0595 
     97 H97        23.2242  -29.5595  -43.4958 H         1 UNK         0.0839 
     98 H98        23.6179  -31.2341  -43.8521 H         1 UNK         0.0839 
     99 H99        24.3167  -29.9453  -44.8198 H         1 UNK         0.0839 
    100 H100       25.0551  -28.8057  -40.6378 H         1 UNK         0.2998 
    101 H101       24.6973  -29.0813  -38.4910 H         1 UNK         0.0822 
    102 H102       25.6976  -31.0285  -37.3510 H         1 UNK         0.0787 
    103 H103       25.7519  -31.9364  -38.8546 H         1 UNK         0.0787 
    104 H104       26.7544  -30.5003  -38.6504 H         1 UNK         0.0787 
    105 H105       22.4599  -29.2616  -39.9817 H         1 UNK         0.3055 
    106 H106       20.2947  -29.7584  -40.0246 H         1 UNK         0.1106 
    107 H107       19.1123  -30.4053  -37.9627 H         1 UNK         0.0828 
    108 H108       20.6171  -30.8706  -37.1877 H         1 UNK         0.0828 
    109 H109       20.3150  -29.1810  -37.5922 H         1 UNK         0.0828 
    110 H110       21.7164  -31.3182  -41.5073 H         1 UNK         0.2931 
    111 H111       21.6182  -33.0925  -42.7951 H         1 UNK         0.0412 
    112 H112       23.5787  -35.0237  -40.2892 H         1 UNK         0.3472 
    113 H113       23.4904  -33.3408  -40.7681 H         1 UNK         0.3472 
    114 H114       19.0721  -34.0168  -41.3901 H         1 UNK         0.0970 
    115 H115       19.6198  -34.5009  -42.9691 H         1 UNK         0.0970 
    116 H116       18.4094  -33.4101  -45.0769 H         1 UNK         0.0612 
    117 H117       20.0367  -32.7758  -44.9300 H         1 UNK         0.0612 
@<TRIPOS>BOND
     1    1    2 1    
     2    1   62 1    
     3    1   63 1    
     4    1   64 1    
     5    2    3 2    
     6    2    4 am   BACKBONE|DICT|INTERRES
     7    4    5 1    
     8    4   65 1    
     9    5    6 1    
    10    5   25 1    
    11    5   66 1    
    12    6    7 1    
    13    6   67 1    
    14    6   68 1    
    15    7    8 1    
    16    8    9 1    
    17    8   69 1    
    18    8   70 1    
    19    9   10 ar   
    20    9   14 ar   
    21   10   11 ar   
    22   10   71 1    
    23   11   12 ar   
    24   11   61 1    
    25   12   13 ar   
    26   12   72 1    
    27   13   14 ar   
    28   13   15 1    
    29   14   73 1    
    30   15   16 1    
    31   15   74 1    
    32   15   75 1    
    33   16   17 1    
    34   17   18 1    
    35   17   76 1    
    36   17   77 1    
    37   18   19 1    
    38   18   27 1    
    39   18   78 1    
    40   19   20 am   BACKBONE|DICT|INTERRES
    41   19   79 1    
    42   20   21 2    
    43   20   22 1    
    44   22   23 1    
    45   22   24 1    
    46   22   80 1    
    47   23   81 1    
    48   23   82 1    
    49   23   83 1    
    50   24   25 am   BACKBONE|DICT|INTERRES
    51   24   84 1    
    52   25   26 2    
    53   27   28 2    
    54   27   29 am   BACKBONE|DICT|INTERRES
    55   29   30 1    
    56   29   85 1    
    57   30   31 1    
    58   30   32 1    
    59   30   86 1    
    60   31   87 1    
    61   31   88 1    
    62   31   89 1    
    63   32   33 2    
    64   32   34 am   BACKBONE|DICT|INTERRES
    65   34   35 1    
    66   34   90 1    
    67   35   36 1    
    68   35   37 1    
    69   35   91 1    
    70   36   92 1    
    71   36   93 1    
    72   36   94 1    
    73   37   38 2    
    74   37   39 am   BACKBONE|DICT|INTERRES
    75   39   40 1    
    76   39   95 1    
    77   40   41 1    
    78   40   42 1    
    79   40   96 1    
    80   41   97 1    
    81   41   98 1    
    82   41   99 1    
    83   42   43 2    
    84   42   44 am   BACKBONE|DICT|INTERRES
    85   44   45 1    
    86   44  100 1    
    87   45   46 1    
    88   45   47 1    
    89   45  101 1    
    90   46  102 1    
    91   46  103 1    
    92   46  104 1    
    93   47   48 2    
    94   47   49 am   BACKBONE|DICT|INTERRES
    95   49   50 1    
    96   49  105 1    
    97   50   51 1    
    98   50   52 1    
    99   50  106 1    
   100   51  107 1    
   101   51  108 1    
   102   51  109 1    
   103   52   53 2    
   104   52   54 am   BACKBONE|DICT|INTERRES
   105   54   55 1    
   106   54  110 1    
   107   55   56 1    
   108   55   59 1    
   109   55  111 1    
   110   56   57 am   BACKBONE|DICT|INTERRES
   111   56   58 2    
   112   57  112 1    
   113   57  113 1    
   114   59   60 1    
   115   59  114 1    
   116   59  115 1    
   117   60   61 1    
   118   61  116 1    
   119   61  117 1    
@<TRIPOS>SUBSTRUCTURE
     1 UNK         1 GROUP             0       ****    0 ROOT    
