@<TRIPOS>MOLECULE
3R8
117   119    1
SMALL
USER_CHARGES


@<TRIPOS>ATOM
      1 CA         15.8284  -23.9981  -44.2262 C.3       0 UNK        -0.2013 
      2 C          16.9461  -24.0898  -45.2543 C.2       0 UNK         0.4866 
      3 O          17.8736  -23.2818  -45.2238 O.2       0 UNK        -0.5176 
      4 N          16.8641  -25.0725  -46.1605 N.am      1 UNK        -0.4884 
      5 CA         17.8448  -25.3639  -47.2167 C.3       1 UNK         0.0853 
      6 C6         17.3276  -26.4179  -48.2404 C.3       10 UNK        -0.0849 
      7 S7         16.1930  -27.6867  -47.5613 S.3       10 UNK        -0.2776 
      8 C8         17.3205  -29.0110  -46.9987 C.3       10 UNK         0.0316 
      9 C9         17.1139  -29.4845  -45.5537 C.ar      10 UNK        -0.0863 
     10 C10        17.9470  -30.5007  -45.0736 C.ar      10 UNK        -0.1009 
     11 C11        17.7851  -31.0155  -43.7841 C.ar      10 UNK        -0.0712 
     12 C12        16.7745  -30.5123  -42.9644 C.ar      10 UNK        -0.0894 
     13 C13        15.9642  -29.4631  -43.4024 C.ar      10 UNK        -0.0745 
     14 C14        16.1297  -28.9615  -44.6985 C.ar      10 UNK        -0.0972 
     15 C15        14.9228  -28.8632  -42.4641 C.3       10 UNK         0.0209 
     16 S16        15.6720  -28.1511  -40.9565 S.3       10 UNK        -0.2568 
     17 C17        16.8091  -26.9118  -41.6593 C.3       10 UNK        -0.0983 
     18 CA         18.2670  -27.4463  -41.7471 C.3       3 UNK         0.0876 
     19 N          18.9210  -26.9974  -42.9756 N.am      3 UNK        -0.4424 
     20 C          20.0818  -27.4546  -43.4679 C.2       2 UNK         0.4918 
     21 O          20.8372  -28.2116  -42.8571 O.2       2 UNK        -0.4875 
     22 CA         20.4495  -27.0042  -44.8915 C.3       2 UNK         0.0481 
     23 CB         21.1987  -28.1038  -45.6702 C.3       2 UNK        -0.1831 
     24 N          19.2543  -26.5821  -45.6263 N.am      2 UNK        -0.4498 
     25 C          19.2352  -25.7358  -46.6614 C.2       1 UNK         0.5027 
     26 O          20.2446  -25.2392  -47.1634 O.2       1 UNK        -0.4969 
     27 C          19.1190  -27.1190  -40.5056 C.2       3 UNK         0.5005 
     28 O          19.1251  -25.9720  -40.0534 O.2       3 UNK        -0.5279 
     29 N          19.8681  -28.1265  -40.0300 N.am      4 UNK        -0.4463 
     30 CA         20.8755  -28.0615  -38.9645 C.3       4 UNK         0.0283 
     31 CB         20.2182  -27.7592  -37.6010 C.3       4 UNK        -0.1875 
     32 C          22.0512  -27.1131  -39.2860 C.2       4 UNK         0.4949 
     33 O          22.6618  -26.5667  -38.3662 O.2       4 UNK        -0.5039 
     34 N          22.3642  -26.9399  -40.5802 N.am      5 UNK        -0.4663 
     35 CA         23.4695  -26.0988  -41.0595 C.3       5 UNK         0.0242 
     36 CB         23.2699  -25.8024  -42.5543 C.3       5 UNK        -0.1982 
     37 C          24.8553  -26.7231  -40.8152 C.2       5 UNK         0.5017 
     38 O          25.8487  -25.9976  -40.7587 O.2       5 UNK        -0.5012 
     39 N          24.8895  -28.0497  -40.6695 N.am      6 UNK        -0.4439 
     40 CA         26.0421  -28.8736  -40.3351 C.3       6 UNK         0.0297 
     41 CB         26.8707  -29.1584  -41.6016 C.3       6 UNK        -0.2006 
     42 C          25.5019  -30.1702  -39.7240 C.2       6 UNK         0.4892 
     43 O          24.3211  -30.4796  -39.9095 O.2       6 UNK        -0.5089 
     44 N          26.3742  -30.9308  -39.0495 N.am      7 UNK        -0.4243 
     45 CA         26.0476  -32.2224  -38.4278 C.3       7 UNK         0.0196 
     46 CB         27.2631  -32.7259  -37.6326 C.3       7 UNK        -0.2007 
     47 C          25.5750  -33.2971  -39.4264 C.2       7 UNK         0.5020 
     48 O          24.7897  -34.1685  -39.0535 O.2       7 UNK        -0.5147 
     49 N          26.0399  -33.2004  -40.6792 N.am      8 UNK        -0.4734 
     50 CA         25.6115  -34.0430  -41.7984 C.3       8 UNK         0.0238 
     51 CB         26.7150  -34.0370  -42.8702 C.3       8 UNK        -0.1912 
     52 C          24.2646  -33.6131  -42.4139 C.2       8 UNK         0.5038 
     53 O          23.7118  -34.3756  -43.2076 O.2       8 UNK        -0.5046 
     54 N          23.7687  -32.4154  -42.0645 N.am      9 UNK        -0.4200 
     55 CA         22.5491  -31.7951  -42.6074 C.3       9 UNK         0.0839 
     56 C          22.6327  -31.4764  -44.1339 C.2       9 UNK         0.5513 
     57 N          23.8057  -31.1258  -44.6494 N.am      9 UNK        -0.7519 
     58 O          21.6484  -31.5468  -44.8638 O.2       9 UNK        -0.4960 
     59 C59        21.2668  -32.5606  -42.1688 C.3       10 UNK        -0.0876 
     60 S60        19.8281  -31.4536  -41.9866 S.3       10 UNK        -0.2414 
     61 C61        18.7102  -32.1045  -43.2682 C.3       10 UNK         0.0169 
     62 H62        15.2803  -23.0648  -44.3523 H         1 UNK         0.0903 
     63 H63        15.1207  -24.8222  -44.3165 H         1 UNK         0.0903 
     64 H64        16.2416  -24.0155  -43.2180 H         1 UNK         0.0903 
     65 H65        16.0658  -25.6934  -46.1544 H         1 UNK         0.3096 
     66 H66        17.9939  -24.4297  -47.7637 H         1 UNK         0.1121 
     67 H67        16.7599  -25.8924  -49.0100 H         1 UNK         0.0849 
     68 H68        18.1433  -26.9008  -48.7833 H         1 UNK         0.0849 
     69 H69        17.1821  -29.8654  -47.6629 H         1 UNK         0.0865 
     70 H70        18.3571  -28.7008  -47.1292 H         1 UNK         0.0865 
     71 H71        18.7267  -30.8994  -45.7092 H         1 UNK         0.1346 
     72 H72        16.6512  -30.9048  -41.9640 H         1 UNK         0.1412 
     73 H73        15.4783  -28.1660  -45.0285 H         1 UNK         0.1426 
     74 H74        14.2154  -29.6410  -42.1737 H         1 UNK         0.0716 
     75 H75        14.3403  -28.0908  -42.9688 H         1 UNK         0.0716 
     76 H76        16.7386  -25.9927  -41.0748 H         1 UNK         0.0695 
     77 H77        16.4324  -26.6466  -42.6481 H         1 UNK         0.0695 
     78 H78        18.2268  -28.5333  -41.8299 H         1 UNK         0.0983 
     79 H79        18.4358  -26.2828  -43.4938 H         1 UNK         0.3095 
     80 H80        21.1120  -26.1439  -44.7819 H         1 UNK         0.0454 
     81 H81        20.5962  -29.0075  -45.7655 H         1 UNK         0.0851 
     82 H82        22.1225  -28.3845  -45.1627 H         1 UNK         0.0851 
     83 H83        21.4728  -27.7740  -46.6720 H         1 UNK         0.0851 
     84 H84        18.3769  -26.9777  -45.3178 H         1 UNK         0.2976 
     85 H85        19.8302  -29.0076  -40.5275 H         1 UNK         0.3116 
     86 H86        21.3105  -29.0604  -38.9037 H         1 UNK         0.0646 
     87 H87        19.8223  -26.7441  -37.5580 H         1 UNK         0.0847 
     88 H88        20.9383  -27.8601  -36.7881 H         1 UNK         0.0847 
     89 H89        19.3998  -28.4481  -37.3927 H         1 UNK         0.0847 
     90 H90        21.8158  -27.4256  -41.2843 H         1 UNK         0.3040 
     91 H91        23.4408  -25.1515  -40.5163 H         1 UNK         0.1015 
     92 H92        23.2701  -26.7158  -43.1506 H         1 UNK         0.0786 
     93 H93        24.0678  -25.1638  -42.9361 H         1 UNK         0.0786 
     94 H94        22.3290  -25.2814  -42.7305 H         1 UNK         0.0786 
     95 H95        24.0159  -28.5633  -40.6767 H         1 UNK         0.3172 
     96 H96        26.6536  -28.3599  -39.5903 H         1 UNK         0.0595 
     97 H97        27.7412  -29.7750  -41.3752 H         1 UNK         0.0839 
     98 H98        27.2407  -28.2356  -42.0487 H         1 UNK         0.0839 
     99 H99        26.2844  -29.6818  -42.3579 H         1 UNK         0.0839 
    100 H100       27.3258  -30.6066  -38.9471 H         1 UNK         0.2998 
    101 H101       25.2271  -32.0515  -37.7274 H         1 UNK         0.0822 
    102 H102       27.0410  -33.6730  -37.1384 H         1 UNK         0.0787 
    103 H103       28.1280  -32.8898  -38.2767 H         1 UNK         0.0787 
    104 H104       27.5509  -32.0178  -36.8552 H         1 UNK         0.0787 
    105 H105       26.6977  -32.4633  -40.8874 H         1 UNK         0.3055 
    106 H106       25.4876  -35.0678  -41.4404 H         1 UNK         0.1106 
    107 H107       26.4507  -34.6844  -43.7076 H         1 UNK         0.0828 
    108 H108       26.8838  -33.0376  -43.2731 H         1 UNK         0.0828 
    109 H109       27.6604  -34.4026  -42.4689 H         1 UNK         0.0828 
    110 H110       24.2506  -31.8678  -41.3610 H         1 UNK         0.2931 
    111 H111       22.5188  -30.8155  -42.1280 H         1 UNK         0.0412 
    112 H112       24.6264  -31.0682  -44.0698 H         1 UNK         0.3472 
    113 H113       23.8669  -30.9255  -45.6350 H         1 UNK         0.3472 
    114 H114       21.0506  -33.3875  -42.8472 H         1 UNK         0.0970 
    115 H115       21.4237  -33.0196  -41.1915 H         1 UNK         0.0970 
    116 H116       18.1236  -32.9245  -42.8518 H         1 UNK         0.0612 
    117 H117       19.2867  -32.5245  -44.0930 H         1 UNK         0.0612 
@<TRIPOS>BOND
     1    1    2 1    
     2    1   62 1    
     3    1   63 1    
     4    1   64 1    
     5    2    3 2    
     6    2    4 am   BACKBONE|DICT|INTERRES
     7    4    5 1    
     8    4   65 1    
     9    5    6 1    
    10    5   25 1    
    11    5   66 1    
    12    6    7 1    
    13    6   67 1    
    14    6   68 1    
    15    7    8 1    
    16    8    9 1    
    17    8   69 1    
    18    8   70 1    
    19    9   10 ar   
    20    9   14 ar   
    21   10   11 ar   
    22   10   71 1    
    23   11   12 ar   
    24   11   61 1    
    25   12   13 ar   
    26   12   72 1    
    27   13   14 ar   
    28   13   15 1    
    29   14   73 1    
    30   15   16 1    
    31   15   74 1    
    32   15   75 1    
    33   16   17 1    
    34   17   18 1    
    35   17   76 1    
    36   17   77 1    
    37   18   19 1    
    38   18   27 1    
    39   18   78 1    
    40   19   20 am   BACKBONE|DICT|INTERRES
    41   19   79 1    
    42   20   21 2    
    43   20   22 1    
    44   22   23 1    
    45   22   24 1    
    46   22   80 1    
    47   23   81 1    
    48   23   82 1    
    49   23   83 1    
    50   24   25 am   BACKBONE|DICT|INTERRES
    51   24   84 1    
    52   25   26 2    
    53   27   28 2    
    54   27   29 am   BACKBONE|DICT|INTERRES
    55   29   30 1    
    56   29   85 1    
    57   30   31 1    
    58   30   32 1    
    59   30   86 1    
    60   31   87 1    
    61   31   88 1    
    62   31   89 1    
    63   32   33 2    
    64   32   34 am   BACKBONE|DICT|INTERRES
    65   34   35 1    
    66   34   90 1    
    67   35   36 1    
    68   35   37 1    
    69   35   91 1    
    70   36   92 1    
    71   36   93 1    
    72   36   94 1    
    73   37   38 2    
    74   37   39 am   BACKBONE|DICT|INTERRES
    75   39   40 1    
    76   39   95 1    
    77   40   41 1    
    78   40   42 1    
    79   40   96 1    
    80   41   97 1    
    81   41   98 1    
    82   41   99 1    
    83   42   43 2    
    84   42   44 am   BACKBONE|DICT|INTERRES
    85   44   45 1    
    86   44  100 1    
    87   45   46 1    
    88   45   47 1    
    89   45  101 1    
    90   46  102 1    
    91   46  103 1    
    92   46  104 1    
    93   47   48 2    
    94   47   49 am   BACKBONE|DICT|INTERRES
    95   49   50 1    
    96   49  105 1    
    97   50   51 1    
    98   50   52 1    
    99   50  106 1    
   100   51  107 1    
   101   51  108 1    
   102   51  109 1    
   103   52   53 2    
   104   52   54 am   BACKBONE|DICT|INTERRES
   105   54   55 1    
   106   54  110 1    
   107   55   56 1    
   108   55   59 1    
   109   55  111 1    
   110   56   57 am   BACKBONE|DICT|INTERRES
   111   56   58 2    
   112   57  112 1    
   113   57  113 1    
   114   59   60 1    
   115   59  114 1    
   116   59  115 1    
   117   60   61 1    
   118   61  116 1    
   119   61  117 1    
@<TRIPOS>SUBSTRUCTURE
     1 UNK         1 GROUP             0       ****    0 ROOT    
