@<TRIPOS>MOLECULE
3R8
117   119    1
SMALL
USER_CHARGES


@<TRIPOS>ATOM
      1 CA         19.3102  -24.7107  -38.9471 C.3       0 UNK        -0.2013 
      2 C          18.8817  -25.0049  -40.3771 C.2       0 UNK         0.4866 
      3 O          18.9134  -24.1107  -41.2219 O.2       0 UNK        -0.5176 
      4 N          18.4848  -26.2538  -40.6540 N.am      1 UNK        -0.4884 
      5 CA         18.1288  -26.7503  -41.9861 C.3       1 UNK         0.0853 
      6 C6         17.3365  -28.0773  -41.8870 C.3       10 UNK        -0.0849 
      7 S7         16.1828  -28.2936  -43.2798 S.3       10 UNK        -0.2776 
      8 C8         16.2826  -30.0899  -43.5595 C.3       10 UNK         0.0316 
      9 C9         17.5673  -30.4752  -44.2757 C.ar      10 UNK        -0.0863 
     10 C10        18.6134  -31.0958  -43.5849 C.ar      10 UNK        -0.1009 
     11 C11        19.7901  -31.4520  -44.2519 C.ar      10 UNK        -0.0712 
     12 C12        19.9171  -31.1735  -45.6162 C.ar      10 UNK        -0.0894 
     13 C13        18.8853  -30.5344  -46.3108 C.ar      10 UNK        -0.0745 
     14 C14        17.7075  -30.2021  -45.6388 C.ar      10 UNK        -0.0972 
     15 C15        19.0547  -30.1658  -47.7774 C.3       10 UNK         0.0209 
     16 S16        19.4468  -28.3966  -47.9784 S.3       10 UNK        -0.2568 
     17 C17        21.0055  -28.2885  -47.0394 C.3       10 UNK        -0.0983 
     18 CA         21.8118  -26.9893  -47.3193 C.3       3 UNK         0.0876 
     19 N          21.0398  -25.7537  -47.0860 N.am      3 UNK        -0.4424 
     20 C          20.4679  -25.2520  -45.9779 C.2       2 UNK         0.4918 
     21 O          19.6964  -24.2953  -46.0459 O.2       2 UNK        -0.4875 
     22 CA         20.7929  -25.8004  -44.5779 C.3       2 UNK         0.0481 
     23 CB         21.6071  -24.7617  -43.7756 C.3       2 UNK        -0.1831 
     24 N          19.5444  -26.0429  -43.8642 N.am      2 UNK        -0.4498 
     25 C          19.4131  -26.8797  -42.8304 C.2       1 UNK         0.5027 
     26 O          20.2920  -27.6694  -42.4727 O.2       1 UNK        -0.4969 
     27 C          23.2118  -27.0364  -46.6647 C.2       3 UNK         0.5005 
     28 O          23.8073  -28.1126  -46.6091 O.2       3 UNK        -0.5279 
     29 N          23.7066  -25.9032  -46.1433 N.am      4 UNK        -0.4463 
     30 CA         24.9572  -25.6960  -45.3833 C.3       4 UNK         0.0283 
     31 CB         26.1857  -25.9544  -46.2769 C.3       4 UNK        -0.1875 
     32 C          25.0932  -26.4690  -44.0479 C.2       4 UNK         0.4949 
     33 O          25.8026  -25.9991  -43.1593 O.2       4 UNK        -0.5039 
     34 N          24.4385  -27.6305  -43.9346 N.am      5 UNK        -0.4663 
     35 CA         24.5374  -28.6121  -42.8513 C.3       5 UNK         0.0242 
     36 CB         23.6691  -29.8211  -43.2277 C.3       5 UNK        -0.1982 
     37 C          24.1463  -28.1089  -41.4528 C.2       5 UNK         0.5017 
     38 O          24.7322  -28.5670  -40.4727 O.2       5 UNK        -0.5012 
     39 N          23.1540  -27.2109  -41.3884 N.am      6 UNK        -0.4439 
     40 CA         22.5666  -26.6256  -40.1760 C.3       6 UNK         0.0297 
     41 CB         23.5885  -25.7368  -39.4364 C.3       6 UNK        -0.2006 
     42 C          21.9118  -27.6872  -39.2695 C.2       6 UNK         0.4892 
     43 O          22.2370  -27.7838  -38.0855 O.2       6 UNK        -0.5089 
     44 N          20.9923  -28.4597  -39.8668 N.am      7 UNK        -0.4243 
     45 CA         20.1629  -29.5100  -39.2589 C.3       7 UNK         0.0196 
     46 CB         19.2473  -28.9385  -38.1536 C.3       7 UNK        -0.2007 
     47 C          20.9353  -30.7576  -38.7868 C.2       7 UNK         0.5020 
     48 O          20.3952  -31.5374  -38.0004 O.2       7 UNK        -0.5147 
     49 N          22.1506  -30.9812  -39.3111 N.am      8 UNK        -0.4734 
     50 CA         22.9861  -32.1566  -39.0106 C.3       8 UNK         0.0238 
     51 CB         24.3805  -31.9698  -39.6289 C.3       8 UNK        -0.1912 
     52 C          22.3761  -33.5041  -39.4511 C.2       8 UNK         0.5038 
     53 O          22.7943  -34.5479  -38.9488 O.2       8 UNK        -0.5046 
     54 N          21.3930  -33.4520  -40.3585 N.am      9 UNK        -0.4200 
     55 CA         20.5441  -34.5780  -40.7737 C.3       9 UNK         0.0839 
     56 C          19.5564  -35.0689  -39.6732 C.2       9 UNK         0.5513 
     57 N          19.3213  -34.3246  -38.5975 N.am      9 UNK        -0.7519 
     58 O          18.9926  -36.1526  -39.8008 O.2       9 UNK        -0.4960 
     59 C59        19.7771  -34.2598  -42.0863 C.3       10 UNK        -0.0876 
     60 S60        20.8838  -33.9052  -43.4939 S.3       10 UNK        -0.2414 
     61 C61        20.9505  -32.0860  -43.4989 C.3       10 UNK         0.0169 
     62 H62        20.3150  -24.2889  -38.9361 H         1 UNK         0.0903 
     63 H63        18.6329  -23.9869  -38.4947 H         1 UNK         0.0903 
     64 H64        19.3146  -25.6067  -38.3267 H         1 UNK         0.0903 
     65 H65        18.4920  -26.9457  -39.9203 H         1 UNK         0.3096 
     66 H66        17.4825  -25.9966  -42.4425 H         1 UNK         0.1121 
     67 H67        18.0022  -28.9364  -41.7958 H         1 UNK         0.0849 
     68 H68        16.7242  -28.0849  -40.9836 H         1 UNK         0.0849 
     69 H69        16.1878  -30.6177  -42.6091 H         1 UNK         0.0865 
     70 H70        15.4288  -30.4002  -44.1638 H         1 UNK         0.0865 
     71 H71        18.5142  -31.2900  -42.5267 H         1 UNK         0.1346 
     72 H72        20.8329  -31.4292  -46.1313 H         1 UNK         0.1412 
     73 H73        16.9091  -29.7030  -46.1714 H         1 UNK         0.1426 
     74 H74        18.1359  -30.3910  -48.3210 H         1 UNK         0.0716 
     75 H75        19.8394  -30.7667  -48.2398 H         1 UNK         0.0716 
     76 H76        21.5967  -29.1668  -47.3056 H         1 UNK         0.0695 
     77 H77        20.7747  -28.3919  -45.9790 H         1 UNK         0.0695 
     78 H78        22.0251  -26.9831  -48.3896 H         1 UNK         0.0983 
     79 H79        20.8075  -25.2755  -47.9448 H         1 UNK         0.3095 
     80 H80        21.3611  -26.7257  -44.6403 H         1 UNK         0.0454 
     81 H81        22.5082  -24.4454  -44.2959 H         1 UNK         0.0851 
     82 H82        21.9139  -25.1495  -42.8069 H         1 UNK         0.0851 
     83 H83        21.0224  -23.8597  -43.5885 H         1 UNK         0.0851 
     84 H84        18.7821  -25.4283  -44.1193 H         1 UNK         0.2976 
     85 H85        23.1526  -25.0690  -46.2793 H         1 UNK         0.3116 
     86 H86        24.9659  -24.6373  -45.1189 H         1 UNK         0.0646 
     87 H87        26.2583  -27.0000  -46.5777 H         1 UNK         0.0847 
     88 H88        26.1545  -25.3466  -47.1810 H         1 UNK         0.0847 
     89 H89        27.1091  -25.7052  -45.7523 H         1 UNK         0.0847 
     90 H90        23.9813  -27.9526  -44.7838 H         1 UNK         0.3040 
     91 H91        25.5794  -28.9347  -42.7984 H         1 UNK         0.1015 
     92 H92        23.7163  -30.5967  -42.4646 H         1 UNK         0.0786 
     93 H93        23.9996  -30.2705  -44.1646 H         1 UNK         0.0786 
     94 H94        22.6216  -29.5373  -43.3431 H         1 UNK         0.0786 
     95 H95        22.7007  -26.9709  -42.2589 H         1 UNK         0.3172 
     96 H96        21.7595  -25.9750  -40.5131 H         1 UNK         0.0595 
     97 H97        24.4168  -26.3185  -39.0307 H         1 UNK         0.0839 
     98 H98        23.1188  -25.2169  -38.6005 H         1 UNK         0.0839 
     99 H99        24.0054  -24.9777  -40.0983 H         1 UNK         0.0839 
    100 H100       20.8164  -28.2834  -40.8563 H         1 UNK         0.2998 
    101 H101       19.5139  -29.8661  -40.0598 H         1 UNK         0.0822 
    102 H102       18.5395  -29.6907  -37.8026 H         1 UNK         0.0787 
    103 H103       18.6583  -28.0961  -38.5096 H         1 UNK         0.0787 
    104 H104       19.8180  -28.6068  -37.2857 H         1 UNK         0.0787 
    105 H105       22.5474  -30.2785  -39.9186 H         1 UNK         0.3055 
    106 H106       23.1005  -32.2045  -37.9252 H         1 UNK         0.1106 
    107 H107       24.8483  -31.0460  -39.2880 H         1 UNK         0.0828 
    108 H108       25.0438  -32.7880  -39.3448 H         1 UNK         0.0828 
    109 H109       24.3430  -31.9505  -40.7173 H         1 UNK         0.0828 
    110 H110       21.1259  -32.5445  -40.7026 H         1 UNK         0.2931 
    111 H111       21.2092  -35.4195  -40.9776 H         1 UNK         0.0412 
    112 H112       19.7720  -33.4256  -38.4678 H         1 UNK         0.3472 
    113 H113       18.6806  -34.6649  -37.8981 H         1 UNK         0.3472 
    114 H114       19.1617  -35.1132  -42.3779 H         1 UNK         0.0970 
    115 H115       19.0817  -33.4342  -41.9372 H         1 UNK         0.0970 
    116 H116       21.0003  -31.6985  -42.4814 H         1 UNK         0.0612 
    117 H117       21.8865  -31.7987  -43.9772 H         1 UNK         0.0612 
@<TRIPOS>BOND
     1    1    2 1    
     2    1   62 1    
     3    1   63 1    
     4    1   64 1    
     5    2    3 2    
     6    2    4 am   BACKBONE|DICT|INTERRES
     7    4    5 1    
     8    4   65 1    
     9    5    6 1    
    10    5   25 1    
    11    5   66 1    
    12    6    7 1    
    13    6   67 1    
    14    6   68 1    
    15    7    8 1    
    16    8    9 1    
    17    8   69 1    
    18    8   70 1    
    19    9   10 ar   
    20    9   14 ar   
    21   10   11 ar   
    22   10   71 1    
    23   11   12 ar   
    24   11   61 1    
    25   12   13 ar   
    26   12   72 1    
    27   13   14 ar   
    28   13   15 1    
    29   14   73 1    
    30   15   16 1    
    31   15   74 1    
    32   15   75 1    
    33   16   17 1    
    34   17   18 1    
    35   17   76 1    
    36   17   77 1    
    37   18   19 1    
    38   18   27 1    
    39   18   78 1    
    40   19   20 am   BACKBONE|DICT|INTERRES
    41   19   79 1    
    42   20   21 2    
    43   20   22 1    
    44   22   23 1    
    45   22   24 1    
    46   22   80 1    
    47   23   81 1    
    48   23   82 1    
    49   23   83 1    
    50   24   25 am   BACKBONE|DICT|INTERRES
    51   24   84 1    
    52   25   26 2    
    53   27   28 2    
    54   27   29 am   BACKBONE|DICT|INTERRES
    55   29   30 1    
    56   29   85 1    
    57   30   31 1    
    58   30   32 1    
    59   30   86 1    
    60   31   87 1    
    61   31   88 1    
    62   31   89 1    
    63   32   33 2    
    64   32   34 am   BACKBONE|DICT|INTERRES
    65   34   35 1    
    66   34   90 1    
    67   35   36 1    
    68   35   37 1    
    69   35   91 1    
    70   36   92 1    
    71   36   93 1    
    72   36   94 1    
    73   37   38 2    
    74   37   39 am   BACKBONE|DICT|INTERRES
    75   39   40 1    
    76   39   95 1    
    77   40   41 1    
    78   40   42 1    
    79   40   96 1    
    80   41   97 1    
    81   41   98 1    
    82   41   99 1    
    83   42   43 2    
    84   42   44 am   BACKBONE|DICT|INTERRES
    85   44   45 1    
    86   44  100 1    
    87   45   46 1    
    88   45   47 1    
    89   45  101 1    
    90   46  102 1    
    91   46  103 1    
    92   46  104 1    
    93   47   48 2    
    94   47   49 am   BACKBONE|DICT|INTERRES
    95   49   50 1    
    96   49  105 1    
    97   50   51 1    
    98   50   52 1    
    99   50  106 1    
   100   51  107 1    
   101   51  108 1    
   102   51  109 1    
   103   52   53 2    
   104   52   54 am   BACKBONE|DICT|INTERRES
   105   54   55 1    
   106   54  110 1    
   107   55   56 1    
   108   55   59 1    
   109   55  111 1    
   110   56   57 am   BACKBONE|DICT|INTERRES
   111   56   58 2    
   112   57  112 1    
   113   57  113 1    
   114   59   60 1    
   115   59  114 1    
   116   59  115 1    
   117   60   61 1    
   118   61  116 1    
   119   61  117 1    
@<TRIPOS>SUBSTRUCTURE
     1 UNK         1 GROUP             0       ****    0 ROOT    
