@<TRIPOS>MOLECULE
3R8
117   119    1
SMALL
USER_CHARGES


@<TRIPOS>ATOM
      1 CA         13.0219  -22.0486  -44.2184 C.3       0 UNK        -0.2013 
      2 C          13.7496  -23.0563  -45.0959 C.2       0 UNK         0.4866 
      3 O          13.7982  -22.8844  -46.3146 O.2       0 UNK        -0.5176 
      4 N          14.3088  -24.1105  -44.4885 N.am      1 UNK        -0.4884 
      5 CA         15.1077  -25.1353  -45.1683 C.3       1 UNK         0.0853 
      6 C6         15.2186  -26.4175  -44.3042 C.3       10 UNK        -0.0849 
      7 S7         15.5332  -27.9064  -45.3102 S.3       10 UNK        -0.2776 
      8 C8         15.8171  -29.1576  -44.0191 C.3       10 UNK         0.0316 
      9 C9         17.2571  -29.1541  -43.5249 C.ar      10 UNK        -0.0863 
     10 C10        18.2266  -29.9071  -44.1934 C.ar      10 UNK        -0.1009 
     11 C11        19.5430  -29.9509  -43.7245 C.ar      10 UNK        -0.0712 
     12 C12        19.8881  -29.2361  -42.5743 C.ar      10 UNK        -0.0894 
     13 C13        18.9346  -28.4518  -41.9156 C.ar      10 UNK        -0.0745 
     14 C14        17.6190  -28.4234  -42.3896 C.ar      10 UNK        -0.0972 
     15 C15        19.3219  -27.6286  -40.6947 C.3       10 UNK         0.0209 
     16 S16        20.6262  -26.4084  -41.0597 S.3       10 UNK        -0.2568 
     17 C17        19.8869  -25.4033  -42.3937 C.3       10 UNK        -0.0983 
     18 CA         20.3820  -25.8103  -43.8060 C.3       3 UNK         0.0876 
     19 N          19.5241  -25.2403  -44.8424 N.am      3 UNK        -0.4424 
     20 C          19.4919  -25.6273  -46.1224 C.2       2 UNK         0.4918 
     21 O          20.1798  -26.5415  -46.5807 O.2       2 UNK        -0.4875 
     22 CA         18.4816  -24.8875  -47.0224 C.3       2 UNK         0.0481 
     23 CB         18.6216  -25.2691  -48.5076 C.3       2 UNK        -0.1831 
     24 N          17.1065  -25.1504  -46.5912 N.am      2 UNK        -0.4498 
     25 C          16.5039  -24.5897  -45.5346 C.2       1 UNK         0.5027 
     26 O          17.0323  -23.7225  -44.8311 O.2       1 UNK        -0.4969 
     27 C          21.8653  -25.4502  -44.0427 C.2       3 UNK         0.5005 
     28 O          22.1691  -24.3701  -44.5582 O.2       3 UNK        -0.5279 
     29 N          22.7543  -26.3632  -43.6405 N.am      4 UNK        -0.4463 
     30 CA         24.2044  -26.2397  -43.7133 C.3       4 UNK         0.0283 
     31 CB         24.7067  -26.6933  -45.1011 C.3       4 UNK        -0.1875 
     32 C          24.7854  -27.0258  -42.5308 C.2       4 UNK         0.4949 
     33 O          24.6556  -26.5773  -41.3909 O.2       4 UNK        -0.5039 
     34 N          25.3839  -28.1935  -42.7981 N.am      5 UNK        -0.4663 
     35 CA         25.9325  -29.1112  -41.7974 C.3       5 UNK         0.0242 
     36 CB         26.9421  -30.0503  -42.4831 C.3       5 UNK        -0.1982 
     37 C          24.8134  -29.8842  -41.0751 C.2       5 UNK         0.5017 
     38 O          24.6183  -31.0727  -41.3339 O.2       5 UNK        -0.5012 
     39 N          24.0904  -29.1909  -40.1857 N.am      6 UNK        -0.4439 
     40 CA         22.9440  -29.6908  -39.4143 C.3       6 UNK         0.0297 
     41 CB         22.4555  -28.5829  -38.4675 C.3       6 UNK        -0.2006 
     42 C          23.2124  -30.9760  -38.6096 C.2       6 UNK         0.4892 
     43 O          22.3038  -31.7921  -38.4615 O.2       6 UNK        -0.5089 
     44 N          24.4490  -31.1335  -38.1169 N.am      7 UNK        -0.4243 
     45 CA         24.9094  -32.3168  -37.3871 C.3       7 UNK         0.0196 
     46 CB         26.2047  -31.9704  -36.6349 C.3       7 UNK        -0.2007 
     47 C          25.1267  -33.5458  -38.2887 C.2       7 UNK         0.5020 
     48 O          25.0242  -34.6704  -37.7981 O.2       7 UNK        -0.5147 
     49 N          25.4365  -33.3218  -39.5732 N.am      8 UNK        -0.4734 
     50 CA         25.6320  -34.3776  -40.5697 C.3       8 UNK         0.0238 
     51 CB         26.6884  -33.9266  -41.5919 C.3       8 UNK        -0.1912 
     52 C          24.3187  -34.7378  -41.2800 C.2       8 UNK         0.5038 
     53 O          24.1257  -35.9038  -41.6274 O.2       8 UNK        -0.5046 
     54 N          23.4552  -33.7358  -41.4940 N.am      9 UNK        -0.4200 
     55 CA         22.1342  -33.8712  -42.1212 C.3       9 UNK         0.0839 
     56 C          21.1489  -34.7639  -41.3128 C.2       9 UNK         0.5513 
     57 N          20.1887  -35.3860  -41.9827 N.am      9 UNK        -0.7519 
     58 O          21.2241  -34.8745  -40.0910 O.2       9 UNK        -0.4960 
     59 C59        21.5238  -32.4789  -42.4433 C.3       10 UNK        -0.0876 
     60 S60        20.5606  -32.5088  -43.9924 S.3       10 UNK        -0.2414 
     61 C61        20.5891  -30.7569  -44.4782 C.3       10 UNK         0.0169 
     62 H62        11.9795  -21.9670  -44.5256 H         1 UNK         0.0903 
     63 H63        13.0438  -22.3322  -43.1663 H         1 UNK         0.0903 
     64 H64        13.4835  -21.0662  -44.3142 H         1 UNK         0.0903 
     65 H65        14.2693  -24.1792  -43.4813 H         1 UNK         0.3096 
     66 H66        14.5863  -25.3827  -46.0965 H         1 UNK         0.1121 
     67 H67        15.9867  -26.3130  -43.5356 H         1 UNK         0.0849 
     68 H68        14.2821  -26.5919  -43.7715 H         1 UNK         0.0849 
     69 H69        15.1244  -29.0027  -43.1903 H         1 UNK         0.0865 
     70 H70        15.5766  -30.1402  -44.4280 H         1 UNK         0.0865 
     71 H71        17.9552  -30.4669  -45.0782 H         1 UNK         0.1346 
     72 H72        20.9039  -29.2667  -42.2059 H         1 UNK         0.1412 
     73 H73        16.8740  -27.8346  -41.8723 H         1 UNK         0.1426 
     74 H74        18.4571  -27.1056  -40.2835 H         1 UNK         0.0716 
     75 H75        19.6758  -28.3005  -39.9118 H         1 UNK         0.0716 
     76 H76        20.1011  -24.3509  -42.1980 H         1 UNK         0.0695 
     77 H77        18.8015  -25.5015  -42.3331 H         1 UNK         0.0695 
     78 H78        20.2862  -26.8922  -43.9059 H         1 UNK         0.0983 
     79 H79        18.9026  -24.4898  -44.5626 H         1 UNK         0.3095 
     80 H80        18.6835  -23.8178  -46.9349 H         1 UNK         0.0454 
     81 H81        17.9375  -24.6939  -49.1314 H         1 UNK         0.0851 
     82 H82        18.4198  -26.3278  -48.6755 H         1 UNK         0.0851 
     83 H83        19.6316  -25.0689  -48.8677 H         1 UNK         0.0851 
     84 H84        16.6280  -25.9012  -47.0696 H         1 UNK         0.2976 
     85 H85        22.4154  -27.1769  -43.1458 H         1 UNK         0.3116 
     86 H86        24.4892  -25.1958  -43.5649 H         1 UNK         0.0646 
     87 H87        24.3344  -26.0314  -45.8833 H         1 UNK         0.0847 
     88 H88        25.7960  -26.6665  -45.1559 H         1 UNK         0.0847 
     89 H89        24.3801  -27.7038  -45.3491 H         1 UNK         0.0847 
     90 H90        25.4229  -28.5031  -43.7587 H         1 UNK         0.3040 
     91 H91        26.4752  -28.5332  -41.0457 H         1 UNK         0.1015 
     92 H92        26.4735  -30.6520  -43.2632 H         1 UNK         0.0786 
     93 H93        27.3866  -30.7378  -41.7622 H         1 UNK         0.0786 
     94 H94        27.7589  -29.4898  -42.9381 H         1 UNK         0.0786 
     95 H95        24.2884  -28.1982  -40.1127 H         1 UNK         0.3172 
     96 H96        22.1481  -29.9100  -40.1285 H         1 UNK         0.0595 
     97 H97        23.1996  -28.3458  -37.7059 H         1 UNK         0.0839 
     98 H98        21.5442  -28.8855  -37.9497 H         1 UNK         0.0839 
     99 H99        22.2314  -27.6634  -39.0055 H         1 UNK         0.0839 
    100 H100       25.1247  -30.4007  -38.2771 H         1 UNK         0.2998 
    101 H101       24.1475  -32.5819  -36.6505 H         1 UNK         0.0822 
    102 H102       26.0502  -31.1489  -35.9349 H         1 UNK         0.0787 
    103 H103       26.5594  -32.8244  -36.0559 H         1 UNK         0.0787 
    104 H104       27.0057  -31.6852  -37.3183 H         1 UNK         0.0787 
    105 H105       25.4388  -32.3694  -39.9181 H         1 UNK         0.3055 
    106 H106       26.0024  -35.2806  -40.0785 H         1 UNK         0.1106 
    107 H107       27.6327  -33.6805  -41.1061 H         1 UNK         0.0828 
    108 H108       26.8923  -34.7185  -42.3139 H         1 UNK         0.0828 
    109 H109       26.3613  -33.0521  -42.1548 H         1 UNK         0.0828 
    110 H110       23.7286  -32.8004  -41.2137 H         1 UNK         0.2931 
    111 H111       22.3298  -34.3868  -43.0641 H         1 UNK         0.0412 
    112 H112       20.0998  -35.2700  -42.9808 H         1 UNK         0.3472 
    113 H113       19.5300  -35.9616  -41.4817 H         1 UNK         0.3472 
    114 H114       20.9032  -32.1053  -41.6259 H         1 UNK         0.0970 
    115 H115       22.3177  -31.7419  -42.5713 H         1 UNK         0.0970 
    116 H116       21.5856  -30.3386  -44.3285 H         1 UNK         0.0612 
    117 H117       20.3939  -30.6905  -45.5496 H         1 UNK         0.0612 
@<TRIPOS>BOND
     1    1    2 1    
     2    1   62 1    
     3    1   63 1    
     4    1   64 1    
     5    2    3 2    
     6    2    4 am   BACKBONE|DICT|INTERRES
     7    4    5 1    
     8    4   65 1    
     9    5    6 1    
    10    5   25 1    
    11    5   66 1    
    12    6    7 1    
    13    6   67 1    
    14    6   68 1    
    15    7    8 1    
    16    8    9 1    
    17    8   69 1    
    18    8   70 1    
    19    9   10 ar   
    20    9   14 ar   
    21   10   11 ar   
    22   10   71 1    
    23   11   12 ar   
    24   11   61 1    
    25   12   13 ar   
    26   12   72 1    
    27   13   14 ar   
    28   13   15 1    
    29   14   73 1    
    30   15   16 1    
    31   15   74 1    
    32   15   75 1    
    33   16   17 1    
    34   17   18 1    
    35   17   76 1    
    36   17   77 1    
    37   18   19 1    
    38   18   27 1    
    39   18   78 1    
    40   19   20 am   BACKBONE|DICT|INTERRES
    41   19   79 1    
    42   20   21 2    
    43   20   22 1    
    44   22   23 1    
    45   22   24 1    
    46   22   80 1    
    47   23   81 1    
    48   23   82 1    
    49   23   83 1    
    50   24   25 am   BACKBONE|DICT|INTERRES
    51   24   84 1    
    52   25   26 2    
    53   27   28 2    
    54   27   29 am   BACKBONE|DICT|INTERRES
    55   29   30 1    
    56   29   85 1    
    57   30   31 1    
    58   30   32 1    
    59   30   86 1    
    60   31   87 1    
    61   31   88 1    
    62   31   89 1    
    63   32   33 2    
    64   32   34 am   BACKBONE|DICT|INTERRES
    65   34   35 1    
    66   34   90 1    
    67   35   36 1    
    68   35   37 1    
    69   35   91 1    
    70   36   92 1    
    71   36   93 1    
    72   36   94 1    
    73   37   38 2    
    74   37   39 am   BACKBONE|DICT|INTERRES
    75   39   40 1    
    76   39   95 1    
    77   40   41 1    
    78   40   42 1    
    79   40   96 1    
    80   41   97 1    
    81   41   98 1    
    82   41   99 1    
    83   42   43 2    
    84   42   44 am   BACKBONE|DICT|INTERRES
    85   44   45 1    
    86   44  100 1    
    87   45   46 1    
    88   45   47 1    
    89   45  101 1    
    90   46  102 1    
    91   46  103 1    
    92   46  104 1    
    93   47   48 2    
    94   47   49 am   BACKBONE|DICT|INTERRES
    95   49   50 1    
    96   49  105 1    
    97   50   51 1    
    98   50   52 1    
    99   50  106 1    
   100   51  107 1    
   101   51  108 1    
   102   51  109 1    
   103   52   53 2    
   104   52   54 am   BACKBONE|DICT|INTERRES
   105   54   55 1    
   106   54  110 1    
   107   55   56 1    
   108   55   59 1    
   109   55  111 1    
   110   56   57 am   BACKBONE|DICT|INTERRES
   111   56   58 2    
   112   57  112 1    
   113   57  113 1    
   114   59   60 1    
   115   59  114 1    
   116   59  115 1    
   117   60   61 1    
   118   61  116 1    
   119   61  117 1    
@<TRIPOS>SUBSTRUCTURE
     1 UNK         1 GROUP             0       ****    0 ROOT    
