@<TRIPOS>MOLECULE
3R8
117   119    1
SMALL
USER_CHARGES


@<TRIPOS>ATOM
      1 CA         18.7700  -27.6536  -40.9825 C.3       0 UNK        -0.2013 
      2 C          18.4265  -27.1538  -42.3756 C.2       0 UNK         0.4866 
      3 O          19.1540  -27.4352  -43.3252 O.2       0 UNK        -0.5176 
      4 N          17.3247  -26.4022  -42.5012 N.am      1 UNK        -0.4884 
      5 CA         16.8213  -25.8120  -43.7515 C.3       1 UNK         0.0853 
      6 C6         16.2967  -26.8727  -44.7676 C.3       10 UNK        -0.0849 
      7 S7         15.0704  -28.0184  -44.0432 S.3       10 UNK        -0.2776 
      8 C8         15.4201  -29.5794  -44.9265 C.3       10 UNK         0.0316 
      9 C9         16.8385  -30.0881  -44.6956 C.ar      10 UNK        -0.0863 
     10 C10        17.2347  -30.5248  -43.4273 C.ar      10 UNK        -0.1009 
     11 C11        18.5451  -30.9578  -43.2019 C.ar      10 UNK        -0.0712 
     12 C12        19.4536  -30.9752  -44.2632 C.ar      10 UNK        -0.0894 
     13 C13        19.0727  -30.5390  -45.5359 C.ar      10 UNK        -0.0745 
     14 C14        17.7606  -30.1064  -45.7484 C.ar      10 UNK        -0.0972 
     15 C15        20.0871  -30.5168  -46.6738 C.3       10 UNK         0.0209 
     16 S16        20.7552  -28.8465  -46.9883 S.3       10 UNK        -0.2568 
     17 C17        21.6324  -28.5018  -45.4230 C.3       10 UNK        -0.0983 
     18 CA         21.9162  -26.9992  -45.1437 C.3       3 UNK         0.0876 
     19 N          20.7337  -26.1661  -45.3829 N.am      3 UNK        -0.4424 
     20 C          20.7143  -24.9973  -46.0367 C.2       2 UNK         0.4918 
     21 O          21.7302  -24.4369  -46.4481 O.2       2 UNK        -0.4875 
     22 CA         19.3436  -24.3346  -46.2897 C.3       2 UNK         0.0481 
     23 CB         19.0478  -24.2793  -47.7978 C.3       2 UNK        -0.1831 
     24 N          18.2391  -25.0277  -45.6214 N.am      2 UNK        -0.4498 
     25 C          17.8777  -24.8453  -44.3435 C.2       1 UNK         0.5027 
     26 O          18.3718  -23.9778  -43.6192 O.2       1 UNK        -0.4969 
     27 C          22.4269  -26.8245  -43.6948 C.2       3 UNK         0.5005 
     28 O          23.1408  -27.6992  -43.2056 O.2       3 UNK        -0.5279 
     29 N          22.0358  -25.7316  -43.0183 N.am      4 UNK        -0.4463 
     30 CA         22.1423  -25.4911  -41.5708 C.3       4 UNK         0.0283 
     31 CB         21.5722  -24.0987  -41.2574 C.3       4 UNK        -0.1875 
     32 C          23.5306  -25.6646  -40.9224 C.2       4 UNK         0.4949 
     33 O          23.5977  -25.8563  -39.7084 O.2       4 UNK        -0.5039 
     34 N          24.6064  -25.6292  -41.7204 N.am      5 UNK        -0.4663 
     35 CA         25.9645  -25.9941  -41.3014 C.3       5 UNK         0.0242 
     36 CB         26.9546  -25.6004  -42.4093 C.3       5 UNK        -0.1982 
     37 C          26.1171  -27.4894  -40.9485 C.2       5 UNK         0.5017 
     38 O          27.0036  -27.8318  -40.1656 O.2       5 UNK        -0.5012 
     39 N          25.2525  -28.3421  -41.5132 N.am      6 UNK        -0.4439 
     40 CA         25.1475  -29.7738  -41.2520 C.3       6 UNK         0.0297 
     41 CB         25.5014  -30.5471  -42.5359 C.3       6 UNK        -0.2006 
     42 C          23.7214  -30.0645  -40.7612 C.2       6 UNK         0.4892 
     43 O          22.9686  -30.7856  -41.4180 O.2       6 UNK        -0.5089 
     44 N          23.3721  -29.4858  -39.6030 N.am      7 UNK        -0.4243 
     45 CA         22.0462  -29.5534  -38.9723 C.3       7 UNK         0.0196 
     46 CB         22.0381  -28.6546  -37.7256 C.3       7 UNK        -0.2007 
     47 C          21.5505  -30.9707  -38.6197 C.2       7 UNK         0.5020 
     48 O          20.3472  -31.1566  -38.4437 O.2       7 UNK        -0.5147 
     49 N          22.4680  -31.9449  -38.5439 N.am      8 UNK        -0.4734 
     50 CA         22.1710  -33.3746  -38.3965 C.3       8 UNK         0.0238 
     51 CB         23.4492  -34.1001  -37.9428 C.3       8 UNK        -0.1912 
     52 C          21.6028  -34.0291  -39.6750 C.2       8 UNK         0.5038 
     53 O          21.1307  -35.1647  -39.5992 O.2       8 UNK        -0.5046 
     54 N          21.6596  -33.3154  -40.8078 N.am      9 UNK        -0.4200 
     55 CA         21.2188  -33.7278  -42.1479 C.3       9 UNK         0.0839 
     56 C          22.1523  -34.7939  -42.7960 C.2       9 UNK         0.5513 
     57 N          21.7958  -35.3184  -43.9617 N.am      9 UNK        -0.7519 
     58 O          23.2171  -35.1305  -42.2808 O.2       9 UNK        -0.4960 
     59 C59        19.7040  -34.1025  -42.2403 C.3       10 UNK        -0.0876 
     60 S60        18.5191  -33.0326  -41.3434 S.3       10 UNK        -0.2414 
     61 C61        18.9948  -31.3365  -41.7987 C.3       10 UNK         0.0169 
     62 H62        19.1165  -26.8322  -40.3562 H         1 UNK         0.0903 
     63 H63        19.5621  -28.3988  -41.0374 H         1 UNK         0.0903 
     64 H64        17.9028  -28.1142  -40.5100 H         1 UNK         0.0903 
     65 H65        16.7816  -26.1858  -41.6772 H         1 UNK         0.3096 
     66 H66        15.9753  -25.1824  -43.4710 H         1 UNK         0.1121 
     67 H67        17.1290  -27.4527  -45.1664 H         1 UNK         0.0849 
     68 H68        15.8208  -26.3846  -45.6201 H         1 UNK         0.0849 
     69 H69        14.7121  -30.3391  -44.5923 H         1 UNK         0.0865 
     70 H70        15.2283  -29.4343  -45.9908 H         1 UNK         0.0865 
     71 H71        16.5304  -30.4965  -42.6072 H         1 UNK         0.1346 
     72 H72        20.4741  -31.2843  -44.0920 H         1 UNK         0.1412 
     73 H73        17.4681  -29.7607  -46.7305 H         1 UNK         0.1426 
     74 H74        20.9133  -31.1982  -46.4647 H         1 UNK         0.0716 
     75 H75        19.6149  -30.8837  -47.5862 H         1 UNK         0.0716 
     76 H76        22.5643  -29.0703  -45.4287 H         1 UNK         0.0695 
     77 H77        21.0400  -28.9063  -44.6038 H         1 UNK         0.0695 
     78 H78        22.7260  -26.6848  -45.8050 H         1 UNK         0.0983 
     79 H79        19.8774  -26.5418  -44.9870 H         1 UNK         0.3095 
     80 H80        19.4015  -23.3091  -45.9192 H         1 UNK         0.0454 
     81 H81        18.1022  -23.7758  -47.9995 H         1 UNK         0.0851 
     82 H82        18.9994  -25.2764  -48.2374 H         1 UNK         0.0851 
     83 H83        19.8244  -23.7275  -48.3294 H         1 UNK         0.0851 
     84 H84        17.7951  -25.7661  -46.1479 H         1 UNK         0.2976 
     85 H85        21.4568  -25.0788  -43.5262 H         1 UNK         0.3116 
     86 H86        21.4964  -26.2308  -41.0943 H         1 UNK         0.0646 
     87 H87        20.5329  -24.0128  -41.5764 H         1 UNK         0.0847 
     88 H88        21.5956  -23.8962  -40.1855 H         1 UNK         0.0847 
     89 H89        22.1427  -23.3106  -41.7503 H         1 UNK         0.0847 
     90 H90        24.4566  -25.4759  -42.7071 H         1 UNK         0.3040 
     91 H91        26.2064  -25.4222  -40.4027 H         1 UNK         0.1015 
     92 H92        26.7522  -26.1332  -43.3394 H         1 UNK         0.0786 
     93 H93        27.9797  -25.8330  -42.1169 H         1 UNK         0.0786 
     94 H94        26.9138  -24.5310  -42.6173 H         1 UNK         0.0786 
     95 H95        24.5223  -27.9690  -42.1235 H         1 UNK         0.3172 
     96 H96        25.8366  -30.0794  -40.4622 H         1 UNK         0.0595 
     97 H97        24.8362  -30.2835  -43.3597 H         1 UNK         0.0839 
     98 H98        25.4191  -31.6235  -42.3798 H         1 UNK         0.0839 
     99 H99        26.5238  -30.3411  -42.8525 H         1 UNK         0.0839 
    100 H100       24.0533  -28.8954  -39.1465 H         1 UNK         0.2998 
    101 H101       21.3346  -29.1436  -39.6902 H         1 UNK         0.0822 
    102 H102       21.0563  -28.6534  -37.2497 H         1 UNK         0.0787 
    103 H103       22.7611  -28.9912  -36.9816 H         1 UNK         0.0787 
    104 H104       22.2721  -27.6205  -37.9796 H         1 UNK         0.0787 
    105 H105       23.4350  -31.6947  -38.6910 H         1 UNK         0.3055 
    106 H106       21.4141  -33.4891  -37.6172 H         1 UNK         0.1106 
    107 H107       23.8271  -33.6927  -37.0049 H         1 UNK         0.0828 
    108 H108       23.2583  -35.1615  -37.7781 H         1 UNK         0.0828 
    109 H109       24.2419  -34.0250  -38.6883 H         1 UNK         0.0828 
    110 H110       22.1101  -32.4060  -40.7814 H         1 UNK         0.2931 
    111 H111       21.3753  -32.8387  -42.7554 H         1 UNK         0.0412 
    112 H112       20.9431  -35.0466  -44.4245 H         1 UNK         0.3472 
    113 H113       22.4019  -35.9988  -44.3937 H         1 UNK         0.3472 
    114 H114       19.5538  -35.1181  -41.8697 H         1 UNK         0.0970 
    115 H115       19.3877  -34.1195  -43.2840 H         1 UNK         0.0970 
    116 H116       18.5283  -30.6594  -41.0825 H         1 UNK         0.0612 
    117 H117       20.0682  -31.1896  -41.6793 H         1 UNK         0.0612 
@<TRIPOS>BOND
     1    1    2 1    
     2    1   62 1    
     3    1   63 1    
     4    1   64 1    
     5    2    3 2    
     6    2    4 am   BACKBONE|DICT|INTERRES
     7    4    5 1    
     8    4   65 1    
     9    5    6 1    
    10    5   25 1    
    11    5   66 1    
    12    6    7 1    
    13    6   67 1    
    14    6   68 1    
    15    7    8 1    
    16    8    9 1    
    17    8   69 1    
    18    8   70 1    
    19    9   10 ar   
    20    9   14 ar   
    21   10   11 ar   
    22   10   71 1    
    23   11   12 ar   
    24   11   61 1    
    25   12   13 ar   
    26   12   72 1    
    27   13   14 ar   
    28   13   15 1    
    29   14   73 1    
    30   15   16 1    
    31   15   74 1    
    32   15   75 1    
    33   16   17 1    
    34   17   18 1    
    35   17   76 1    
    36   17   77 1    
    37   18   19 1    
    38   18   27 1    
    39   18   78 1    
    40   19   20 am   BACKBONE|DICT|INTERRES
    41   19   79 1    
    42   20   21 2    
    43   20   22 1    
    44   22   23 1    
    45   22   24 1    
    46   22   80 1    
    47   23   81 1    
    48   23   82 1    
    49   23   83 1    
    50   24   25 am   BACKBONE|DICT|INTERRES
    51   24   84 1    
    52   25   26 2    
    53   27   28 2    
    54   27   29 am   BACKBONE|DICT|INTERRES
    55   29   30 1    
    56   29   85 1    
    57   30   31 1    
    58   30   32 1    
    59   30   86 1    
    60   31   87 1    
    61   31   88 1    
    62   31   89 1    
    63   32   33 2    
    64   32   34 am   BACKBONE|DICT|INTERRES
    65   34   35 1    
    66   34   90 1    
    67   35   36 1    
    68   35   37 1    
    69   35   91 1    
    70   36   92 1    
    71   36   93 1    
    72   36   94 1    
    73   37   38 2    
    74   37   39 am   BACKBONE|DICT|INTERRES
    75   39   40 1    
    76   39   95 1    
    77   40   41 1    
    78   40   42 1    
    79   40   96 1    
    80   41   97 1    
    81   41   98 1    
    82   41   99 1    
    83   42   43 2    
    84   42   44 am   BACKBONE|DICT|INTERRES
    85   44   45 1    
    86   44  100 1    
    87   45   46 1    
    88   45   47 1    
    89   45  101 1    
    90   46  102 1    
    91   46  103 1    
    92   46  104 1    
    93   47   48 2    
    94   47   49 am   BACKBONE|DICT|INTERRES
    95   49   50 1    
    96   49  105 1    
    97   50   51 1    
    98   50   52 1    
    99   50  106 1    
   100   51  107 1    
   101   51  108 1    
   102   51  109 1    
   103   52   53 2    
   104   52   54 am   BACKBONE|DICT|INTERRES
   105   54   55 1    
   106   54  110 1    
   107   55   56 1    
   108   55   59 1    
   109   55  111 1    
   110   56   57 am   BACKBONE|DICT|INTERRES
   111   56   58 2    
   112   57  112 1    
   113   57  113 1    
   114   59   60 1    
   115   59  114 1    
   116   59  115 1    
   117   60   61 1    
   118   61  116 1    
   119   61  117 1    
@<TRIPOS>SUBSTRUCTURE
     1 UNK         1 GROUP             0       ****    0 ROOT    
