@<TRIPOS>MOLECULE
3R8
117   119    1
SMALL
USER_CHARGES


@<TRIPOS>ATOM
      1 CA         17.9994  -26.4709  -37.8803 C.3       0 UNK        -0.2013 
      2 C          18.1998  -25.9668  -39.3015 C.2       0 UNK         0.4866 
      3 O          18.9038  -24.9773  -39.5043 O.2       0 UNK        -0.5176 
      4 N          17.5758  -26.6268  -40.2856 N.am      1 UNK        -0.4884 
      5 CA         17.7164  -26.3166  -41.7115 C.3       1 UNK         0.0853 
      6 C6         16.5319  -26.8706  -42.5402 C.3       10 UNK        -0.0849 
      7 S7         16.2982  -28.6805  -42.4159 S.3       10 UNK        -0.2776 
      8 C8         16.5083  -29.2092  -44.1454 C.3       10 UNK         0.0316 
      9 C9         17.5298  -30.3265  -44.2574 C.ar      10 UNK        -0.0863 
     10 C10        17.1271  -31.6584  -44.1479 C.ar      10 UNK        -0.1009 
     11 C11        18.0539  -32.6971  -44.2811 C.ar      10 UNK        -0.0712 
     12 C12        19.3927  -32.3929  -44.5521 C.ar      10 UNK        -0.0894 
     13 C13        19.8057  -31.0610  -44.6604 C.ar      10 UNK        -0.0745 
     14 C14        18.8730  -30.0325  -44.4996 C.ar      10 UNK        -0.0972 
     15 C15        21.2503  -30.7175  -44.9773 C.3       10 UNK         0.0209 
     16 S16        21.4283  -30.2924  -46.7356 S.3       10 UNK        -0.2568 
     17 C17        22.9738  -29.3298  -46.7244 C.3       10 UNK        -0.0983 
     18 CA         22.6922  -27.8083  -46.6477 C.3       3 UNK         0.0876 
     19 N          22.1979  -27.4056  -45.3253 N.am      3 UNK        -0.4424 
     20 C          21.1243  -26.6441  -45.0950 C.2       2 UNK         0.4918 
     21 O          20.3004  -26.2999  -45.9441 O.2       2 UNK        -0.4875 
     22 CA         21.0156  -26.1225  -43.6620 C.3       2 UNK         0.0481 
     23 CB         21.6975  -24.7468  -43.5543 C.3       2 UNK        -0.1831 
     24 N          19.6332  -26.0017  -43.2074 N.am      2 UNK        -0.4498 
     25 C          19.0969  -26.7612  -42.2436 C.2       1 UNK         0.5027 
     26 O          19.6570  -27.7510  -41.7602 O.2       1 UNK        -0.4969 
     27 C          23.9606  -27.0000  -46.9916 C.2       3 UNK         0.5005 
     28 O          24.1941  -26.7016  -48.1635 O.2       3 UNK        -0.5279 
     29 N          24.7353  -26.6347  -45.9629 N.am      4 UNK        -0.4463 
     30 CA         25.8988  -25.7535  -46.0025 C.3       4 UNK         0.0283 
     31 CB         27.1285  -26.4546  -46.6125 C.3       4 UNK        -0.1875 
     32 C          26.1331  -25.3055  -44.5589 C.2       4 UNK         0.4949 
     33 O          26.0108  -24.1199  -44.2533 O.2       4 UNK        -0.5039 
     34 N          26.3441  -26.2954  -43.6819 N.am      5 UNK        -0.4663 
     35 CA         26.1165  -26.1855  -42.2425 C.3       5 UNK         0.0242 
     36 CB         27.0433  -27.1754  -41.5177 C.3       5 UNK        -0.1982 
     37 C          24.6442  -26.5141  -41.9406 C.2       5 UNK         0.5017 
     38 O          23.9852  -27.1665  -42.7614 O.2       5 UNK        -0.5012 
     39 N          24.1701  -26.0884  -40.7617 N.am      6 UNK        -0.4439 
     40 CA         22.8296  -26.3405  -40.2174 C.3       6 UNK         0.0297 
     41 CB         22.5334  -25.2995  -39.1221 C.3       6 UNK        -0.2006 
     42 C          22.6777  -27.7889  -39.7126 C.2       6 UNK         0.4892 
     43 O          22.5174  -28.0122  -38.5114 O.2       6 UNK        -0.5089 
     44 N          22.7976  -28.7475  -40.6385 N.am      7 UNK        -0.4243 
     45 CA         22.8472  -30.1813  -40.3585 C.3       7 UNK         0.0196 
     46 CB         23.3427  -30.9279  -41.6067 C.3       7 UNK        -0.2007 
     47 C          21.5181  -30.7756  -39.8700 C.2       7 UNK         0.5020 
     48 O          21.5533  -31.6551  -39.0101 O.2       7 UNK        -0.5147 
     49 N          20.3865  -30.3225  -40.4354 N.am      8 UNK        -0.4734 
     50 CA         19.0145  -30.7783  -40.1501 C.3       8 UNK         0.0238 
     51 CB         18.5375  -30.1768  -38.8137 C.3       8 UNK        -0.1912 
     52 C          18.8440  -32.3143  -40.2054 C.2       8 UNK         0.5038 
     53 O          18.2702  -32.9086  -39.2905 O.2       8 UNK        -0.5046 
     54 N          19.3955  -32.9185  -41.2648 N.am      9 UNK        -0.4200 
     55 CA         19.5154  -34.3676  -41.5101 C.3       9 UNK         0.0839 
     56 C          20.5798  -35.0991  -40.6368 C.2       9 UNK         0.5513 
     57 N          21.3510  -34.4268  -39.7922 N.am      9 UNK        -0.7519 
     58 O          20.7373  -36.3118  -40.7534 O.2       9 UNK        -0.4960 
     59 C59        18.1623  -35.1423  -41.5132 C.3       10 UNK        -0.0876 
     60 S60        16.8102  -34.4637  -42.5374 S.3       10 UNK        -0.2414 
     61 C61        17.5904  -34.1420  -44.1538 C.3       10 UNK         0.0169 
     62 H62        17.6752  -25.6549  -37.2349 H         1 UNK         0.0903 
     63 H63        17.2483  -27.2589  -37.8288 H         1 UNK         0.0903 
     64 H64        18.9370  -26.8639  -37.4875 H         1 UNK         0.0903 
     65 H65        17.0343  -27.4543  -40.0801 H         1 UNK         0.3096 
     66 H66        17.6809  -25.2279  -41.8011 H         1 UNK         0.1121 
     67 H67        16.6258  -26.5584  -43.5810 H         1 UNK         0.0849 
     68 H68        15.6087  -26.4040  -42.1928 H         1 UNK         0.0849 
     69 H69        15.5437  -29.5429  -44.5311 H         1 UNK         0.0865 
     70 H70        16.8118  -28.3804  -44.7854 H         1 UNK         0.0865 
     71 H71        16.0882  -31.8898  -43.9548 H         1 UNK         0.1346 
     72 H72        20.1112  -33.1901  -44.6850 H         1 UNK         0.1412 
     73 H73        19.1899  -29.0024  -44.5898 H         1 UNK         0.1426 
     74 H74        21.9140  -31.5494  -44.7370 H         1 UNK         0.0716 
     75 H75        21.5608  -29.8781  -44.3553 H         1 UNK         0.0716 
     76 H76        23.5048  -29.5761  -47.6462 H         1 UNK         0.0695 
     77 H77        23.6164  -29.6594  -45.9057 H         1 UNK         0.0695 
     78 H78        21.9521  -27.5579  -47.4117 H         1 UNK         0.0983 
     79 H79        22.7905  -27.6242  -44.5341 H         1 UNK         0.3095 
     80 H80        21.5459  -26.8258  -43.0241 H         1 UNK         0.0454 
     81 H81        22.7455  -24.8009  -43.8522 H         1 UNK         0.0851 
     82 H82        21.6735  -24.3680  -42.5326 H         1 UNK         0.0851 
     83 H83        21.2167  -24.0064  -44.1949 H         1 UNK         0.0851 
     84 H84        19.0927  -25.2550  -43.6213 H         1 UNK         0.2976 
     85 H85        24.4445  -26.8887  -45.0276 H         1 UNK         0.3116 
     86 H86        25.6566  -24.8719  -46.5999 H         1 UNK         0.0646 
     87 H87        27.3691  -27.3861  -46.0998 H         1 UNK         0.0847 
     88 H88        26.9681  -26.6889  -47.6648 H         1 UNK         0.0847 
     89 H89        28.0086  -25.8126  -46.5573 H         1 UNK         0.0847 
     90 H90        26.4233  -27.2373  -44.0378 H         1 UNK         0.3040 
     91 H91        26.3353  -25.1698  -41.9047 H         1 UNK         0.1015 
     92 H92        26.9306  -27.1011  -40.4353 H         1 UNK         0.0786 
     93 H93        28.0904  -26.9758  -41.7462 H         1 UNK         0.0786 
     94 H94        26.8310  -28.2087  -41.7966 H         1 UNK         0.0786 
     95 H95        24.8032  -25.5954  -40.1481 H         1 UNK         0.3172 
     96 H96        22.0895  -26.1941  -41.0006 H         1 UNK         0.0595 
     97 H97        23.2462  -25.3601  -38.2989 H         1 UNK         0.0839 
     98 H98        21.5378  -25.4500  -38.7024 H         1 UNK         0.0839 
     99 H99        22.5622  -24.2852  -39.5204 H         1 UNK         0.0839 
    100 H100       22.9856  -28.4525  -41.5901 H         1 UNK         0.2998 
    101 H101       23.5814  -30.3342  -39.5642 H         1 UNK         0.0822 
    102 H102       23.4321  -31.9977  -41.4118 H         1 UNK         0.0787 
    103 H103       24.3248  -30.5724  -41.9197 H         1 UNK         0.0787 
    104 H104       22.6582  -30.8061  -42.4444 H         1 UNK         0.0787 
    105 H105       20.4505  -29.5503  -41.0926 H         1 UNK         0.3055 
    106 H106       18.3838  -30.3722  -40.9431 H         1 UNK         0.1106 
    107 H107       18.6653  -29.0961  -38.8076 H         1 UNK         0.0828 
    108 H108       17.4804  -30.3841  -38.6439 H         1 UNK         0.0828 
    109 H109       19.0936  -30.5831  -37.9681 H         1 UNK         0.0828 
    110 H110       19.8378  -32.3304  -41.9553 H         1 UNK         0.2931 
    111 H111       19.9236  -34.4360  -42.5174 H         1 UNK         0.0412 
    112 H112       21.2398  -33.4287  -39.6415 H         1 UNK         0.3472 
    113 H113       22.0364  -34.9328  -39.2546 H         1 UNK         0.3472 
    114 H114       18.3246  -36.1675  -41.8509 H         1 UNK         0.0970 
    115 H115       17.7834  -35.2313  -40.4938 H         1 UNK         0.0970 
    116 H116       16.8556  -34.3374  -44.9358 H         1 UNK         0.0612 
    117 H117       18.4075  -34.8448  -44.3215 H         1 UNK         0.0612 
@<TRIPOS>BOND
     1    1    2 1    
     2    1   62 1    
     3    1   63 1    
     4    1   64 1    
     5    2    3 2    
     6    2    4 am   BACKBONE|DICT|INTERRES
     7    4    5 1    
     8    4   65 1    
     9    5    6 1    
    10    5   25 1    
    11    5   66 1    
    12    6    7 1    
    13    6   67 1    
    14    6   68 1    
    15    7    8 1    
    16    8    9 1    
    17    8   69 1    
    18    8   70 1    
    19    9   10 ar   
    20    9   14 ar   
    21   10   11 ar   
    22   10   71 1    
    23   11   12 ar   
    24   11   61 1    
    25   12   13 ar   
    26   12   72 1    
    27   13   14 ar   
    28   13   15 1    
    29   14   73 1    
    30   15   16 1    
    31   15   74 1    
    32   15   75 1    
    33   16   17 1    
    34   17   18 1    
    35   17   76 1    
    36   17   77 1    
    37   18   19 1    
    38   18   27 1    
    39   18   78 1    
    40   19   20 am   BACKBONE|DICT|INTERRES
    41   19   79 1    
    42   20   21 2    
    43   20   22 1    
    44   22   23 1    
    45   22   24 1    
    46   22   80 1    
    47   23   81 1    
    48   23   82 1    
    49   23   83 1    
    50   24   25 am   BACKBONE|DICT|INTERRES
    51   24   84 1    
    52   25   26 2    
    53   27   28 2    
    54   27   29 am   BACKBONE|DICT|INTERRES
    55   29   30 1    
    56   29   85 1    
    57   30   31 1    
    58   30   32 1    
    59   30   86 1    
    60   31   87 1    
    61   31   88 1    
    62   31   89 1    
    63   32   33 2    
    64   32   34 am   BACKBONE|DICT|INTERRES
    65   34   35 1    
    66   34   90 1    
    67   35   36 1    
    68   35   37 1    
    69   35   91 1    
    70   36   92 1    
    71   36   93 1    
    72   36   94 1    
    73   37   38 2    
    74   37   39 am   BACKBONE|DICT|INTERRES
    75   39   40 1    
    76   39   95 1    
    77   40   41 1    
    78   40   42 1    
    79   40   96 1    
    80   41   97 1    
    81   41   98 1    
    82   41   99 1    
    83   42   43 2    
    84   42   44 am   BACKBONE|DICT|INTERRES
    85   44   45 1    
    86   44  100 1    
    87   45   46 1    
    88   45   47 1    
    89   45  101 1    
    90   46  102 1    
    91   46  103 1    
    92   46  104 1    
    93   47   48 2    
    94   47   49 am   BACKBONE|DICT|INTERRES
    95   49   50 1    
    96   49  105 1    
    97   50   51 1    
    98   50   52 1    
    99   50  106 1    
   100   51  107 1    
   101   51  108 1    
   102   51  109 1    
   103   52   53 2    
   104   52   54 am   BACKBONE|DICT|INTERRES
   105   54   55 1    
   106   54  110 1    
   107   55   56 1    
   108   55   59 1    
   109   55  111 1    
   110   56   57 am   BACKBONE|DICT|INTERRES
   111   56   58 2    
   112   57  112 1    
   113   57  113 1    
   114   59   60 1    
   115   59  114 1    
   116   59  115 1    
   117   60   61 1    
   118   61  116 1    
   119   61  117 1    
@<TRIPOS>SUBSTRUCTURE
     1 UNK         1 GROUP             0       ****    0 ROOT    
