@<TRIPOS>MOLECULE
3R8
117   119    1
SMALL
USER_CHARGES


@<TRIPOS>ATOM
      1 CA         13.6846  -23.3159  -41.2932 C.3       0 UNK        -0.2013 
      2 C          14.2531  -23.7436  -42.6380 C.2       0 UNK         0.4866 
      3 O          13.8199  -23.2379  -43.6736 O.2       0 UNK        -0.5176 
      4 N          15.2159  -24.6750  -42.6298 N.am      1 UNK        -0.4884 
      5 CA         15.8822  -25.2072  -43.8253 C.3       1 UNK         0.0853 
      6 C6         16.7674  -26.4322  -43.4883 C.3       10 UNK        -0.0849 
      7 S7         15.8044  -27.9162  -43.0542 S.3       10 UNK        -0.2776 
      8 C8         15.9146  -28.8907  -44.5931 C.3       10 UNK         0.0316 
      9 C9         17.3401  -29.3264  -44.9174 C.ar      10 UNK        -0.0863 
     10 C10        17.9477  -30.3515  -44.1874 C.ar      10 UNK        -0.1009 
     11 C11        19.2419  -30.7790  -44.5001 C.ar      10 UNK        -0.0712 
     12 C12        19.9366  -30.1626  -45.5488 C.ar      10 UNK        -0.0894 
     13 C13        19.3378  -29.1384  -46.2920 C.ar      10 UNK        -0.0745 
     14 C14        18.0388  -28.7302  -45.9723 C.ar      10 UNK        -0.0972 
     15 C15        20.0567  -28.5226  -47.4892 C.3       10 UNK         0.0209 
     16 S16        21.3266  -27.2944  -47.0356 S.3       10 UNK        -0.2568 
     17 C17        20.3379  -25.9280  -46.3248 C.3       10 UNK        -0.0983 
     18 CA         20.8613  -25.3649  -44.9697 C.3       3 UNK         0.0876 
     19 N          19.9488  -24.3710  -44.4212 N.am      3 UNK        -0.4424 
     20 C          19.6842  -23.1516  -44.8996 C.2       2 UNK         0.4918 
     21 O          20.2939  -22.6371  -45.8383 O.2       2 UNK        -0.4875 
     22 CA         18.5167  -22.4016  -44.2157 C.3       2 UNK         0.0481 
     23 CB         17.9503  -21.2565  -45.0813 C.3       2 UNK        -0.1831 
     24 N          17.4450  -23.3115  -43.7763 N.am      2 UNK        -0.4498 
     25 C          16.7426  -24.1557  -44.5527 C.2       1 UNK         0.5027 
     26 O          16.7963  -24.1740  -45.7832 O.2       1 UNK        -0.4969 
     27 C          20.9909  -26.4479  -43.8828 C.2       3 UNK         0.5005 
     28 O          20.0695  -26.6176  -43.0781 O.2       3 UNK        -0.5279 
     29 N          22.1161  -27.1658  -43.8899 N.am      4 UNK        -0.4463 
     30 CA         22.3290  -28.4026  -43.1532 C.3       4 UNK         0.0283 
     31 CB         22.7267  -28.1150  -41.6955 C.3       4 UNK        -0.1875 
     32 C          23.4137  -29.1892  -43.8955 C.2       4 UNK         0.4949 
     33 O          24.3455  -28.5795  -44.4257 O.2       4 UNK        -0.5039 
     34 N          23.2805  -30.5201  -43.9262 N.am      5 UNK        -0.4663 
     35 CA         24.2291  -31.4235  -44.5939 C.3       5 UNK         0.0242 
     36 CB         23.5180  -32.7480  -44.9168 C.3       5 UNK        -0.1982 
     37 C          25.5042  -31.6893  -43.7716 C.2       5 UNK         0.5017 
     38 O          26.5101  -32.1239  -44.3328 O.2       5 UNK        -0.5012 
     39 N          25.4246  -31.4370  -42.4634 N.am      6 UNK        -0.4439 
     40 CA         26.4230  -31.6364  -41.4186 C.3       6 UNK         0.0297 
     41 CB         26.7501  -33.1365  -41.2506 C.3       6 UNK        -0.2006 
     42 C          25.8210  -31.0372  -40.1374 C.2       6 UNK         0.4892 
     43 O          24.7403  -30.4408  -40.2031 O.2       6 UNK        -0.5089 
     44 N          26.4911  -31.2233  -38.9917 N.am      7 UNK        -0.4243 
     45 CA         25.9950  -30.8479  -37.6621 C.3       7 UNK         0.0196 
     46 CB         27.0550  -31.1993  -36.6045 C.3       7 UNK        -0.2007 
     47 C          24.6518  -31.5376  -37.3575 C.2       7 UNK         0.5020 
     48 O          24.6221  -32.7579  -37.1869 O.2       7 UNK        -0.5147 
     49 N          23.5638  -30.7530  -37.3919 N.am      8 UNK        -0.4734 
     50 CA         22.1572  -31.1823  -37.3226 C.3       8 UNK         0.0238 
     51 CB         21.8202  -31.7029  -35.9087 C.3       8 UNK        -0.1912 
     52 C          21.7608  -32.1820  -38.4339 C.2       8 UNK         0.5038 
     53 O          20.8864  -33.0218  -38.2129 O.2       8 UNK        -0.5046 
     54 N          22.4303  -32.0875  -39.5930 N.am      9 UNK        -0.4200 
     55 CA         22.3633  -33.0284  -40.7253 C.3       9 UNK         0.0839 
     56 C          22.9316  -34.4485  -40.4151 C.2       9 UNK         0.5513 
     57 N          23.6752  -34.6530  -39.3332 N.am      9 UNK        -0.7519 
     58 O          22.7300  -35.3792  -41.1904 O.2       9 UNK        -0.4960 
     59 C59        20.9682  -33.0721  -41.4149 C.3       10 UNK        -0.0876 
     60 S60        20.4664  -31.4543  -42.0965 S.3       10 UNK        -0.2414 
     61 C61        19.8535  -31.9466  -43.7379 C.3       10 UNK         0.0169 
     62 H62        14.1530  -23.8461  -40.4642 H         1 UNK         0.0903 
     63 H63        13.8395  -22.2477  -41.1432 H         1 UNK         0.0903 
     64 H64        12.6134  -23.5129  -41.2592 H         1 UNK         0.0903 
     65 H65        15.5065  -25.0798  -41.7506 H         1 UNK         0.3096 
     66 H66        15.1079  -25.5199  -44.5299 H         1 UNK         0.1121 
     67 H67        17.4345  -26.6736  -44.3161 H         1 UNK         0.0849 
     68 H68        17.4274  -26.2057  -42.6491 H         1 UNK         0.0849 
     69 H69        15.2846  -29.7758  -44.4935 H         1 UNK         0.0865 
     70 H70        15.4903  -28.3108  -45.4144 H         1 UNK         0.0865 
     71 H71        17.4072  -30.8261  -43.3795 H         1 UNK         0.1346 
     72 H72        20.9326  -30.4954  -45.8068 H         1 UNK         0.1412 
     73 H73        17.5647  -27.9520  -46.5550 H         1 UNK         0.1426 
     74 H74        19.3410  -28.0564  -48.1683 H         1 UNK         0.0716 
     75 H75        20.5360  -29.3176  -48.0623 H         1 UNK         0.0716 
     76 H76        20.3145  -25.1298  -47.0678 H         1 UNK         0.0695 
     77 H77        19.3022  -26.2494  -46.2136 H         1 UNK         0.0695 
     78 H78        21.8370  -24.8971  -45.1167 H         1 UNK         0.0983 
     79 H79        19.4419  -24.7161  -43.6150 H         1 UNK         0.3095 
     80 H80        18.9303  -21.9562  -43.3100 H         1 UNK         0.0454 
     81 H81        18.7165  -20.5091  -45.2900 H         1 UNK         0.0851 
     82 H82        17.5806  -21.6171  -46.0416 H         1 UNK         0.0851 
     83 H83        17.1302  -20.7459  -44.5767 H         1 UNK         0.0851 
     84 H84        17.3032  -23.3730  -42.7774 H         1 UNK         0.2976 
     85 H85        22.8233  -26.9852  -44.5934 H         1 UNK         0.3116 
     86 H86        21.3987  -28.9715  -43.1724 H         1 UNK         0.0646 
     87 H87        22.7661  -29.0396  -41.1208 H         1 UNK         0.0847 
     88 H88        22.0025  -27.4669  -41.2022 H         1 UNK         0.0847 
     89 H89        23.7058  -27.6394  -41.6274 H         1 UNK         0.0847 
     90 H90        22.4835  -30.9408  -43.4664 H         1 UNK         0.3040 
     91 H91        24.5444  -30.9691  -45.5363 H         1 UNK         0.1015 
     92 H92        22.6845  -32.5926  -45.6016 H         1 UNK         0.0786 
     93 H93        23.1360  -33.2348  -44.0186 H         1 UNK         0.0786 
     94 H94        24.1994  -33.4494  -45.4007 H         1 UNK         0.0786 
     95 H95        24.5827  -30.9995  -42.1070 H         1 UNK         0.3172 
     96 H96        27.3251  -31.0790  -41.6763 H         1 UNK         0.0595 
     97 H97        27.1437  -33.5694  -42.1699 H         1 UNK         0.0839 
     98 H98        25.8687  -33.7113  -40.9663 H         1 UNK         0.0839 
     99 H99        27.5075  -33.2989  -40.4835 H         1 UNK         0.0839 
    100 H100       27.3601  -31.7363  -39.0172 H         1 UNK         0.2998 
    101 H101       25.8502  -29.7655  -37.6508 H         1 UNK         0.0822 
    102 H102       27.9869  -30.6621  -36.7818 H         1 UNK         0.0787 
    103 H103       26.7113  -30.9295  -35.6049 H         1 UNK         0.0787 
    104 H104       27.2791  -32.2669  -36.5943 H         1 UNK         0.0787 
    105 H105       23.7033  -29.7715  -37.5931 H         1 UNK         0.3055 
    106 H106       21.5525  -30.2911  -37.4991 H         1 UNK         0.1106 
    107 H107       22.3388  -32.6362  -35.6871 H         1 UNK         0.0828 
    108 H108       22.0931  -30.9773  -35.1426 H         1 UNK         0.0828 
    109 H109       20.7513  -31.8933  -35.8045 H         1 UNK         0.0828 
    110 H110       23.1501  -31.3750  -39.6688 H         1 UNK         0.2931 
    111 H111       23.0609  -32.6270  -41.4595 H         1 UNK         0.0412 
    112 H112       24.0393  -35.5763  -39.1604 H         1 UNK         0.3472 
    113 H113       23.8672  -33.9091  -38.6710 H         1 UNK         0.3472 
    114 H114       20.2002  -33.4145  -40.7204 H         1 UNK         0.0970 
    115 H115       20.9733  -33.7992  -42.2288 H         1 UNK         0.0970 
    116 H116       19.1013  -32.7278  -43.6169 H         1 UNK         0.0612 
    117 H117       20.6658  -32.3923  -44.3114 H         1 UNK         0.0612 
@<TRIPOS>BOND
     1    1    2 1    
     2    1   62 1    
     3    1   63 1    
     4    1   64 1    
     5    2    3 2    
     6    2    4 am   BACKBONE|DICT|INTERRES
     7    4    5 1    
     8    4   65 1    
     9    5    6 1    
    10    5   25 1    
    11    5   66 1    
    12    6    7 1    
    13    6   67 1    
    14    6   68 1    
    15    7    8 1    
    16    8    9 1    
    17    8   69 1    
    18    8   70 1    
    19    9   10 ar   
    20    9   14 ar   
    21   10   11 ar   
    22   10   71 1    
    23   11   12 ar   
    24   11   61 1    
    25   12   13 ar   
    26   12   72 1    
    27   13   14 ar   
    28   13   15 1    
    29   14   73 1    
    30   15   16 1    
    31   15   74 1    
    32   15   75 1    
    33   16   17 1    
    34   17   18 1    
    35   17   76 1    
    36   17   77 1    
    37   18   19 1    
    38   18   27 1    
    39   18   78 1    
    40   19   20 am   BACKBONE|DICT|INTERRES
    41   19   79 1    
    42   20   21 2    
    43   20   22 1    
    44   22   23 1    
    45   22   24 1    
    46   22   80 1    
    47   23   81 1    
    48   23   82 1    
    49   23   83 1    
    50   24   25 am   BACKBONE|DICT|INTERRES
    51   24   84 1    
    52   25   26 2    
    53   27   28 2    
    54   27   29 am   BACKBONE|DICT|INTERRES
    55   29   30 1    
    56   29   85 1    
    57   30   31 1    
    58   30   32 1    
    59   30   86 1    
    60   31   87 1    
    61   31   88 1    
    62   31   89 1    
    63   32   33 2    
    64   32   34 am   BACKBONE|DICT|INTERRES
    65   34   35 1    
    66   34   90 1    
    67   35   36 1    
    68   35   37 1    
    69   35   91 1    
    70   36   92 1    
    71   36   93 1    
    72   36   94 1    
    73   37   38 2    
    74   37   39 am   BACKBONE|DICT|INTERRES
    75   39   40 1    
    76   39   95 1    
    77   40   41 1    
    78   40   42 1    
    79   40   96 1    
    80   41   97 1    
    81   41   98 1    
    82   41   99 1    
    83   42   43 2    
    84   42   44 am   BACKBONE|DICT|INTERRES
    85   44   45 1    
    86   44  100 1    
    87   45   46 1    
    88   45   47 1    
    89   45  101 1    
    90   46  102 1    
    91   46  103 1    
    92   46  104 1    
    93   47   48 2    
    94   47   49 am   BACKBONE|DICT|INTERRES
    95   49   50 1    
    96   49  105 1    
    97   50   51 1    
    98   50   52 1    
    99   50  106 1    
   100   51  107 1    
   101   51  108 1    
   102   51  109 1    
   103   52   53 2    
   104   52   54 am   BACKBONE|DICT|INTERRES
   105   54   55 1    
   106   54  110 1    
   107   55   56 1    
   108   55   59 1    
   109   55  111 1    
   110   56   57 am   BACKBONE|DICT|INTERRES
   111   56   58 2    
   112   57  112 1    
   113   57  113 1    
   114   59   60 1    
   115   59  114 1    
   116   59  115 1    
   117   60   61 1    
   118   61  116 1    
   119   61  117 1    
@<TRIPOS>SUBSTRUCTURE
     1 UNK         1 GROUP             0       ****    0 ROOT    
