@<TRIPOS>MOLECULE
3R8
117   119    1
SMALL
USER_CHARGES


@<TRIPOS>ATOM
      1 CA         18.1808  -23.1560  -41.4983 C.3       0 UNK        -0.2013 
      2 C          17.2897  -23.3146  -42.7213 C.2       0 UNK         0.4866 
      3 O          17.0695  -22.3466  -43.4490 O.2       0 UNK        -0.5176 
      4 N          16.7769  -24.5301  -42.9526 N.am      1 UNK        -0.4884 
      5 CA         15.9444  -24.9013  -44.1066 C.3       1 UNK         0.0853 
      6 C6         15.2652  -26.2814  -43.9028 C.3       10 UNK        -0.0849 
      7 S7         16.4309  -27.6005  -43.4055 S.3       10 UNK        -0.2776 
      8 C8         16.3280  -28.7583  -44.8074 C.3       10 UNK         0.0316 
      9 C9         17.3833  -29.8476  -44.6766 C.ar      10 UNK        -0.0863 
     10 C10        17.3295  -30.7478  -43.6069 C.ar      10 UNK        -0.1009 
     11 C11        18.3288  -31.7089  -43.4384 C.ar      10 UNK        -0.0712 
     12 C12        19.3795  -31.7786  -44.3563 C.ar      10 UNK        -0.0894 
     13 C13        19.4425  -30.8914  -45.4344 C.ar      10 UNK        -0.0745 
     14 C14        18.4313  -29.9385  -45.5993 C.ar      10 UNK        -0.0972 
     15 C15        20.6254  -30.9563  -46.3941 C.3       10 UNK         0.0209 
     16 S16        21.5117  -29.3703  -46.5885 S.3       10 UNK        -0.2568 
     17 C17        21.7713  -28.7925  -44.8708 C.3       10 UNK        -0.0983 
     18 CA         21.7009  -27.2458  -44.7680 C.3       3 UNK         0.0876 
     19 N          20.4611  -26.7058  -45.3344 N.am      3 UNK        -0.4424 
     20 C          20.3484  -25.5150  -45.9374 C.2       2 UNK         0.4918 
     21 O          21.2684  -24.7008  -46.0223 O.2       2 UNK        -0.4875 
     22 CA         18.9663  -25.1616  -46.4908 C.3       2 UNK         0.0481 
     23 CB         18.5854  -26.0853  -47.6666 C.3       2 UNK        -0.1831 
     24 N          17.9979  -25.2247  -45.3993 N.am      2 UNK        -0.4498 
     25 C          16.7167  -24.8396  -45.4417 C.2       1 UNK         0.5027 
     26 O          16.1475  -24.4319  -46.4552 O.2       1 UNK        -0.4969 
     27 C          21.8709  -26.7290  -43.3250 C.2       3 UNK         0.5005 
     28 O          21.8146  -27.5068  -42.3701 O.2       3 UNK        -0.5279 
     29 N          22.0538  -25.4060  -43.1953 N.am      4 UNK        -0.4463 
     30 CA         22.1050  -24.6419  -41.9404 C.3       4 UNK         0.0283 
     31 CB         22.2589  -23.1492  -42.2743 C.3       4 UNK        -0.1875 
     32 C          23.1861  -25.0813  -40.9327 C.2       4 UNK         0.4949 
     33 O          23.0773  -24.7452  -39.7536 O.2       4 UNK        -0.5039 
     34 N          24.1896  -25.8382  -41.3974 N.am      5 UNK        -0.4663 
     35 CA         25.2004  -26.4995  -40.5689 C.3       5 UNK         0.0242 
     36 CB         26.3141  -27.0422  -41.4799 C.3       5 UNK        -0.1982 
     37 C          24.6379  -27.6311  -39.6854 C.2       5 UNK         0.5017 
     38 O          25.3044  -28.0114  -38.7232 O.2       5 UNK        -0.5012 
     39 N          23.4565  -28.1705  -40.0321 N.am      6 UNK        -0.4439 
     40 CA         22.6718  -29.2092  -39.3424 C.3       6 UNK         0.0297 
     41 CB         22.2692  -28.7544  -37.9266 C.3       6 UNK        -0.2006 
     42 C          23.2974  -30.6177  -39.3088 C.2       6 UNK         0.4892 
     43 O          22.5524  -31.5954  -39.2442 O.2       6 UNK        -0.5089 
     44 N          24.6312  -30.7191  -39.3880 N.am      7 UNK        -0.4243 
     45 CA         25.4066  -31.9658  -39.4126 C.3       7 UNK         0.0196 
     46 CB         26.9044  -31.6236  -39.4466 C.3       7 UNK        -0.2007 
     47 C          25.0447  -32.9102  -40.5739 C.2       7 UNK         0.5020 
     48 O          25.1943  -34.1246  -40.4364 O.2       7 UNK        -0.5147 
     49 N          24.5312  -32.3441  -41.6757 N.am      8 UNK        -0.4734 
     50 CA         23.9956  -33.0656  -42.8338 C.3       8 UNK         0.0238 
     51 CB         23.6263  -32.0506  -43.9276 C.3       8 UNK        -0.1912 
     52 C          22.7812  -33.9577  -42.5112 C.2       8 UNK         0.5038 
     53 O          22.5263  -34.9030  -43.2583 O.2       8 UNK        -0.5046 
     54 N          22.0629  -33.6539  -41.4210 N.am      9 UNK        -0.4200 
     55 CA         20.9351  -34.4506  -40.9165 C.3       9 UNK         0.0839 
     56 C          21.3643  -35.7096  -40.1077 C.2       9 UNK         0.5513 
     57 N          22.6442  -35.9219  -39.8194 N.am      9 UNK        -0.7519 
     58 O          20.5155  -36.5182  -39.7410 O.2       9 UNK        -0.4960 
     59 C59        19.9122  -33.5931  -40.1188 C.3       10 UNK        -0.0876 
     60 S60        19.4349  -32.0426  -40.9559 S.3       10 UNK        -0.2414 
     61 C61        18.3068  -32.6492  -42.2459 C.3       10 UNK         0.0169 
     62 H62        18.3670  -24.1084  -41.0021 H         1 UNK         0.0903 
     63 H63        19.1418  -22.7316  -41.7863 H         1 UNK         0.0903 
     64 H64        17.7140  -22.4834  -40.7793 H         1 UNK         0.0903 
     65 H65        16.9786  -25.2888  -42.3151 H         1 UNK         0.3096 
     66 H66        15.1506  -24.1543  -44.1823 H         1 UNK         0.1121 
     67 H67        14.5165  -26.1967  -43.1137 H         1 UNK         0.0849 
     68 H68        14.7099  -26.5805  -44.7942 H         1 UNK         0.0849 
     69 H69        15.3357  -29.2108  -44.8373 H         1 UNK         0.0865 
     70 H70        16.4521  -28.2090  -45.7422 H         1 UNK         0.0865 
     71 H71        16.5266  -30.6751  -42.8857 H         1 UNK         0.1346 
     72 H72        20.1616  -32.5118  -44.2116 H         1 UNK         0.1412 
     73 H73        18.4820  -29.2531  -46.4329 H         1 UNK         0.1426 
     74 H74        21.3437  -31.7098  -46.0691 H         1 UNK         0.0716 
     75 H75        20.2675  -31.2794  -47.3724 H         1 UNK         0.0716 
     76 H76        21.0408  -29.2496  -44.2028 H         1 UNK         0.0695 
     77 H77        22.7489  -29.1457  -44.5396 H         1 UNK         0.0695 
     78 H78        22.5454  -26.8568  -45.3421 H         1 UNK         0.0983 
     79 H79        19.6578  -27.3146  -45.2870 H         1 UNK         0.3095 
     80 H80        19.0047  -24.1322  -46.8529 H         1 UNK         0.0454 
     81 H81        18.3977  -27.1070  -47.3401 H         1 UNK         0.0851 
     82 H82        17.6919  -25.7329  -48.1810 H         1 UNK         0.0851 
     83 H83        19.3836  -26.1213  -48.4093 H         1 UNK         0.0851 
     84 H84        18.3644  -25.5084  -44.5009 H         1 UNK         0.2976 
     85 H85        22.0641  -24.8614  -44.0511 H         1 UNK         0.3116 
     86 H86        21.1416  -24.7811  -41.4458 H         1 UNK         0.0646 
     87 H87        22.2419  -22.5412  -41.3685 H         1 UNK         0.0847 
     88 H88        21.4491  -22.7963  -42.9131 H         1 UNK         0.0847 
     89 H89        23.2014  -22.9464  -42.7844 H         1 UNK         0.0847 
     90 H90        24.2007  -26.0489  -42.3844 H         1 UNK         0.3040 
     91 H91        25.6325  -25.7522  -39.8995 H         1 UNK         0.1015 
     92 H92        26.7786  -26.2432  -42.0584 H         1 UNK         0.0786 
     93 H93        25.9370  -27.7894  -42.1794 H         1 UNK         0.0786 
     94 H94        27.1039  -27.5144  -40.8935 H         1 UNK         0.0786 
     95 H95        23.0079  -27.8090  -40.8720 H         1 UNK         0.3172 
     96 H96        21.7542  -29.3040  -39.9259 H         1 UNK         0.0595 
     97 H97        21.5915  -29.4744  -37.4658 H         1 UNK         0.0839 
     98 H98        21.7540  -27.7941  -37.9507 H         1 UNK         0.0839 
     99 H99        23.1326  -28.6565  -37.2679 H         1 UNK         0.0839 
    100 H100       25.1552  -29.8509  -39.3506 H         1 UNK         0.2998 
    101 H101       25.1943  -32.4998  -38.4842 H         1 UNK         0.0822 
    102 H102       27.1960  -31.0311  -38.5791 H         1 UNK         0.0787 
    103 H103       27.5128  -32.5293  -39.4383 H         1 UNK         0.0787 
    104 H104       27.1690  -31.0601  -40.3424 H         1 UNK         0.0787 
    105 H105       24.4464  -31.3383  -41.6883 H         1 UNK         0.3055 
    106 H106       24.7856  -33.7174  -43.2134 H         1 UNK         0.1106 
    107 H107       24.4766  -31.4253  -44.2003 H         1 UNK         0.0828 
    108 H108       23.2995  -32.5607  -44.8346 H         1 UNK         0.0828 
    109 H109       22.8122  -31.3981  -43.6097 H         1 UNK         0.0828 
    110 H110       22.3370  -32.8682  -40.8410 H         1 UNK         0.2931 
    111 H111       20.4054  -34.8423  -41.7861 H         1 UNK         0.0412 
    112 H112       22.9006  -36.7458  -39.2986 H         1 UNK         0.3472 
    113 H113       23.3606  -35.2706  -40.1147 H         1 UNK         0.3472 
    114 H114       20.3305  -33.3214  -39.1477 H         1 UNK         0.0970 
    115 H115       19.0091  -34.1689  -39.9077 H         1 UNK         0.0970 
    116 H116       17.3003  -32.7376  -41.8343 H         1 UNK         0.0612 
    117 H117       18.5981  -33.6478  -42.5717 H         1 UNK         0.0612 
@<TRIPOS>BOND
     1    1    2 1    
     2    1   62 1    
     3    1   63 1    
     4    1   64 1    
     5    2    3 2    
     6    2    4 am   BACKBONE|DICT|INTERRES
     7    4    5 1    
     8    4   65 1    
     9    5    6 1    
    10    5   25 1    
    11    5   66 1    
    12    6    7 1    
    13    6   67 1    
    14    6   68 1    
    15    7    8 1    
    16    8    9 1    
    17    8   69 1    
    18    8   70 1    
    19    9   10 ar   
    20    9   14 ar   
    21   10   11 ar   
    22   10   71 1    
    23   11   12 ar   
    24   11   61 1    
    25   12   13 ar   
    26   12   72 1    
    27   13   14 ar   
    28   13   15 1    
    29   14   73 1    
    30   15   16 1    
    31   15   74 1    
    32   15   75 1    
    33   16   17 1    
    34   17   18 1    
    35   17   76 1    
    36   17   77 1    
    37   18   19 1    
    38   18   27 1    
    39   18   78 1    
    40   19   20 am   BACKBONE|DICT|INTERRES
    41   19   79 1    
    42   20   21 2    
    43   20   22 1    
    44   22   23 1    
    45   22   24 1    
    46   22   80 1    
    47   23   81 1    
    48   23   82 1    
    49   23   83 1    
    50   24   25 am   BACKBONE|DICT|INTERRES
    51   24   84 1    
    52   25   26 2    
    53   27   28 2    
    54   27   29 am   BACKBONE|DICT|INTERRES
    55   29   30 1    
    56   29   85 1    
    57   30   31 1    
    58   30   32 1    
    59   30   86 1    
    60   31   87 1    
    61   31   88 1    
    62   31   89 1    
    63   32   33 2    
    64   32   34 am   BACKBONE|DICT|INTERRES
    65   34   35 1    
    66   34   90 1    
    67   35   36 1    
    68   35   37 1    
    69   35   91 1    
    70   36   92 1    
    71   36   93 1    
    72   36   94 1    
    73   37   38 2    
    74   37   39 am   BACKBONE|DICT|INTERRES
    75   39   40 1    
    76   39   95 1    
    77   40   41 1    
    78   40   42 1    
    79   40   96 1    
    80   41   97 1    
    81   41   98 1    
    82   41   99 1    
    83   42   43 2    
    84   42   44 am   BACKBONE|DICT|INTERRES
    85   44   45 1    
    86   44  100 1    
    87   45   46 1    
    88   45   47 1    
    89   45  101 1    
    90   46  102 1    
    91   46  103 1    
    92   46  104 1    
    93   47   48 2    
    94   47   49 am   BACKBONE|DICT|INTERRES
    95   49   50 1    
    96   49  105 1    
    97   50   51 1    
    98   50   52 1    
    99   50  106 1    
   100   51  107 1    
   101   51  108 1    
   102   51  109 1    
   103   52   53 2    
   104   52   54 am   BACKBONE|DICT|INTERRES
   105   54   55 1    
   106   54  110 1    
   107   55   56 1    
   108   55   59 1    
   109   55  111 1    
   110   56   57 am   BACKBONE|DICT|INTERRES
   111   56   58 2    
   112   57  112 1    
   113   57  113 1    
   114   59   60 1    
   115   59  114 1    
   116   59  115 1    
   117   60   61 1    
   118   61  116 1    
   119   61  117 1    
@<TRIPOS>SUBSTRUCTURE
     1 UNK         1 GROUP             0       ****    0 ROOT    
