@<TRIPOS>MOLECULE
3R8
117   119    1
SMALL
USER_CHARGES


@<TRIPOS>ATOM
      1 CA         14.6993  -24.6043  -47.7369 C.3       0 UNK        -0.2013 
      2 C          14.9842  -26.0496  -47.3566 C.2       0 UNK         0.4866 
      3 O          14.2433  -26.9472  -47.7592 O.2       0 UNK        -0.5176 
      4 N          16.0529  -26.2820  -46.5899 N.am      1 UNK        -0.4884 
      5 CA         16.4957  -27.5954  -46.1232 C.3       1 UNK         0.0853 
      6 C6         15.6427  -28.1547  -44.9520 C.3       10 UNK        -0.0849 
      7 S7         15.3935  -26.9959  -43.5599 S.3       10 UNK        -0.2776 
      8 C8         14.9582  -28.1428  -42.2148 C.3       10 UNK         0.0316 
      9 C9         16.1968  -28.8151  -41.6457 C.ar      10 UNK        -0.0863 
     10 C10        16.5423  -30.1143  -42.0272 C.ar      10 UNK        -0.1009 
     11 C11        17.7098  -30.7103  -41.5407 C.ar      10 UNK        -0.0712 
     12 C12        18.5151  -30.0062  -40.6388 C.ar      10 UNK        -0.0894 
     13 C13        18.1686  -28.7134  -40.2344 C.ar      10 UNK        -0.0745 
     14 C14        17.0077  -28.1245  -40.7423 C.ar      10 UNK        -0.0972 
     15 C15        19.0442  -27.9387  -39.2567 C.3       10 UNK         0.0209 
     16 S16        20.7154  -27.5895  -39.8974 S.3       10 UNK        -0.2568 
     17 C17        20.3891  -26.7824  -41.5007 C.3       10 UNK        -0.0983 
     18 CA         21.4612  -27.1729  -42.5558 C.3       3 UNK         0.0876 
     19 N          20.8683  -27.4888  -43.8512 N.am      3 UNK        -0.4424 
     20 C          20.6209  -28.7230  -44.2948 C.2       2 UNK         0.4918 
     21 O          20.8002  -29.7411  -43.6232 O.2       2 UNK        -0.4875 
     22 CA         20.1186  -28.8303  -45.7451 C.3       2 UNK         0.0481 
     23 CB         20.5258  -30.1568  -46.4100 C.3       2 UNK        -0.1831 
     24 N          18.6658  -28.6901  -45.8331 N.am      2 UNK        -0.4498 
     25 C          18.0034  -27.5262  -45.8176 C.2       1 UNK         0.5027 
     26 O          18.5441  -26.4309  -45.6319 O.2       1 UNK        -0.4969 
     27 C          22.4904  -26.0518  -42.7612 C.2       3 UNK         0.5005 
     28 O          22.2787  -25.1748  -43.6044 O.2       3 UNK        -0.5279 
     29 N          23.5676  -26.0899  -41.9743 N.am      4 UNK        -0.4463 
     30 CA         24.6104  -25.0703  -41.9082 C.3       4 UNK         0.0283 
     31 CB         25.7682  -25.4496  -42.8561 C.3       4 UNK        -0.1875 
     32 C          25.0029  -24.9235  -40.4312 C.2       4 UNK         0.4949 
     33 O          24.1337  -24.6261  -39.6106 O.2       4 UNK        -0.5039 
     34 N          26.2759  -25.1766  -40.0957 N.am      5 UNK        -0.4663 
     35 CA         26.7608  -25.2894  -38.7124 C.3       5 UNK         0.0242 
     36 CB         28.2976  -25.2438  -38.7131 C.3       5 UNK        -0.1982 
     37 C          26.2577  -26.5636  -38.0018 C.2       5 UNK         0.5017 
     38 O          26.2606  -26.6166  -36.7716 O.2       5 UNK        -0.5012 
     39 N          25.8301  -27.5527  -38.7922 N.am      6 UNK        -0.4439 
     40 CA         25.1780  -28.7914  -38.3920 C.3       6 UNK         0.0297 
     41 CB         26.2439  -29.8712  -38.1269 C.3       6 UNK        -0.2006 
     42 C          24.2194  -29.1978  -39.5223 C.2       6 UNK         0.4892 
     43 O          24.1944  -28.5428  -40.5710 O.2       6 UNK        -0.5089 
     44 N          23.4530  -30.2702  -39.2911 N.am      7 UNK        -0.4243 
     45 CA         22.5751  -30.8949  -40.2821 C.3       7 UNK         0.0196 
     46 CB         21.6974  -31.9433  -39.5793 C.3       7 UNK        -0.2007 
     47 C          23.3862  -31.5486  -41.4117 C.2       7 UNK         0.5020 
     48 O          24.3710  -32.2346  -41.1284 O.2       7 UNK        -0.5147 
     49 N          22.9456  -31.3486  -42.6575 N.am      8 UNK        -0.4734 
     50 CA         23.5806  -31.8864  -43.8638 C.3       8 UNK         0.0238 
     51 CB         24.1713  -30.7167  -44.6733 C.3       8 UNK        -0.1912 
     52 C          22.6115  -32.7427  -44.7002 C.2       8 UNK         0.5038 
     53 O          22.9617  -33.1177  -45.8203 O.2       8 UNK        -0.5046 
     54 N          21.4202  -33.0359  -44.1593 N.am      9 UNK        -0.4200 
     55 CA         20.3934  -33.8948  -44.7696 C.3       9 UNK         0.0839 
     56 C          20.8765  -35.3573  -44.9714 C.2       9 UNK         0.5513 
     57 N          20.4675  -36.0018  -46.0555 N.am      9 UNK        -0.7519 
     58 O          21.5755  -35.9237  -44.1333 O.2       9 UNK        -0.4960 
     59 C59        19.0686  -33.8758  -43.9618 C.3       10 UNK        -0.0876 
     60 S60        18.3710  -32.1989  -43.7853 S.3       10 UNK        -0.2414 
     61 C61        18.0959  -32.1133  -41.9873 C.3       10 UNK         0.0169 
     62 H62        14.7166  -24.4904  -48.8205 H         1 UNK         0.0903 
     63 H63        13.7133  -24.3100  -47.3785 H         1 UNK         0.0903 
     64 H64        15.4325  -23.9190  -47.3117 H         1 UNK         0.0903 
     65 H65        16.6657  -25.5276  -46.3033 H         1 UNK         0.3096 
     66 H66        16.3961  -28.2852  -46.9649 H         1 UNK         0.1121 
     67 H67        14.6551  -28.4261  -45.3277 H         1 UNK         0.0849 
     68 H68        16.0766  -29.0848  -44.5843 H         1 UNK         0.0849 
     69 H69        14.4512  -27.5862  -41.4251 H         1 UNK         0.0865 
     70 H70        14.2402  -28.8821  -42.5739 H         1 UNK         0.0865 
     71 H71        15.9176  -30.6577  -42.7229 H         1 UNK         0.1346 
     72 H72        19.4192  -30.4549  -40.2567 H         1 UNK         0.1412 
     73 H73        16.7401  -27.1183  -40.4489 H         1 UNK         0.1426 
     74 H74        18.5751  -26.9924  -38.9829 H         1 UNK         0.0716 
     75 H75        19.1364  -28.5114  -38.3330 H         1 UNK         0.0716 
     76 H76        19.4003  -27.0736  -41.8534 H         1 UNK         0.0695 
     77 H77        20.3246  -25.7035  -41.3443 H         1 UNK         0.0695 
     78 H78        22.0156  -28.0514  -42.2166 H         1 UNK         0.0983 
     79 H79        20.7086  -26.6933  -44.4574 H         1 UNK         0.3095 
     80 H80        20.5834  -28.0276  -46.3220 H         1 UNK         0.0454 
     81 H81        20.0921  -31.0159  -45.9001 H         1 UNK         0.0851 
     82 H82        20.2082  -30.1928  -47.4519 H         1 UNK         0.0851 
     83 H83        21.6075  -30.2851  -46.4028 H         1 UNK         0.0851 
     84 H84        18.1459  -29.5495  -45.9391 H         1 UNK         0.2976 
     85 H85        23.6613  -26.8598  -41.3135 H         1 UNK         0.3116 
     86 H86        24.2072  -24.1043  -42.2194 H         1 UNK         0.0646 
     87 H87        26.1991  -26.4212  -42.6104 H         1 UNK         0.0847 
     88 H88        25.4217  -25.5003  -43.8886 H         1 UNK         0.0847 
     89 H89        26.5657  -24.7059  -42.8287 H         1 UNK         0.0847 
     90 H90        26.9364  -25.3941  -40.8286 H         1 UNK         0.3040 
     91 H91        26.3900  -24.4327  -38.1448 H         1 UNK         0.1015 
     92 H92        28.7271  -26.0777  -39.2699 H         1 UNK         0.0786 
     93 H93        28.6895  -25.2953  -37.6962 H         1 UNK         0.0786 
     94 H94        28.6675  -24.3178  -39.1538 H         1 UNK         0.0786 
     95 H95        25.8066  -27.3935  -39.7912 H         1 UNK         0.3172 
     96 H96        24.5882  -28.6192  -37.4893 H         1 UNK         0.0595 
     97 H97        25.7912  -30.8030  -37.7867 H         1 UNK         0.0839 
     98 H98        26.9444  -29.5551  -37.3537 H         1 UNK         0.0839 
     99 H99        26.8187  -30.0967  -39.0261 H         1 UNK         0.0839 
    100 H100       23.5557  -30.7580  -38.4135 H         1 UNK         0.2998 
    101 H101       21.9307  -30.1250  -40.7099 H         1 UNK         0.0822 
    102 H102       21.0332  -32.4369  -40.2884 H         1 UNK         0.0787 
    103 H103       22.2994  -32.7215  -39.1080 H         1 UNK         0.0787 
    104 H104       21.0750  -31.4892  -38.8079 H         1 UNK         0.0787 
    105 H105       22.1261  -30.7637  -42.8217 H         1 UNK         0.3055 
    106 H106       24.4015  -32.5557  -43.5971 H         1 UNK         0.1106 
    107 H107       24.9396  -30.1956  -44.1017 H         1 UNK         0.0828 
    108 H108       24.6385  -31.0647  -45.5955 H         1 UNK         0.0828 
    109 H109       23.4107  -29.9856  -44.9438 H         1 UNK         0.0828 
    110 H110       21.2115  -32.6786  -43.2405 H         1 UNK         0.2931 
    111 H111       20.1866  -33.4769  -45.7569 H         1 UNK         0.0412 
    112 H112       19.8855  -35.5487  -46.7433 H         1 UNK         0.3472 
    113 H113       20.7561  -36.9578  -46.1963 H         1 UNK         0.3472 
    114 H114       18.3148  -34.4913  -44.4565 H         1 UNK         0.0970 
    115 H115       19.2189  -34.3221  -42.9769 H         1 UNK         0.0970 
    116 H116       18.9991  -32.4412  -41.4730 H         1 UNK         0.0612 
    117 H117       17.3052  -32.8118  -41.7100 H         1 UNK         0.0612 
@<TRIPOS>BOND
     1    1    2 1    
     2    1   62 1    
     3    1   63 1    
     4    1   64 1    
     5    2    3 2    
     6    2    4 am   BACKBONE|DICT|INTERRES
     7    4    5 1    
     8    4   65 1    
     9    5    6 1    
    10    5   25 1    
    11    5   66 1    
    12    6    7 1    
    13    6   67 1    
    14    6   68 1    
    15    7    8 1    
    16    8    9 1    
    17    8   69 1    
    18    8   70 1    
    19    9   10 ar   
    20    9   14 ar   
    21   10   11 ar   
    22   10   71 1    
    23   11   12 ar   
    24   11   61 1    
    25   12   13 ar   
    26   12   72 1    
    27   13   14 ar   
    28   13   15 1    
    29   14   73 1    
    30   15   16 1    
    31   15   74 1    
    32   15   75 1    
    33   16   17 1    
    34   17   18 1    
    35   17   76 1    
    36   17   77 1    
    37   18   19 1    
    38   18   27 1    
    39   18   78 1    
    40   19   20 am   BACKBONE|DICT|INTERRES
    41   19   79 1    
    42   20   21 2    
    43   20   22 1    
    44   22   23 1    
    45   22   24 1    
    46   22   80 1    
    47   23   81 1    
    48   23   82 1    
    49   23   83 1    
    50   24   25 am   BACKBONE|DICT|INTERRES
    51   24   84 1    
    52   25   26 2    
    53   27   28 2    
    54   27   29 am   BACKBONE|DICT|INTERRES
    55   29   30 1    
    56   29   85 1    
    57   30   31 1    
    58   30   32 1    
    59   30   86 1    
    60   31   87 1    
    61   31   88 1    
    62   31   89 1    
    63   32   33 2    
    64   32   34 am   BACKBONE|DICT|INTERRES
    65   34   35 1    
    66   34   90 1    
    67   35   36 1    
    68   35   37 1    
    69   35   91 1    
    70   36   92 1    
    71   36   93 1    
    72   36   94 1    
    73   37   38 2    
    74   37   39 am   BACKBONE|DICT|INTERRES
    75   39   40 1    
    76   39   95 1    
    77   40   41 1    
    78   40   42 1    
    79   40   96 1    
    80   41   97 1    
    81   41   98 1    
    82   41   99 1    
    83   42   43 2    
    84   42   44 am   BACKBONE|DICT|INTERRES
    85   44   45 1    
    86   44  100 1    
    87   45   46 1    
    88   45   47 1    
    89   45  101 1    
    90   46  102 1    
    91   46  103 1    
    92   46  104 1    
    93   47   48 2    
    94   47   49 am   BACKBONE|DICT|INTERRES
    95   49   50 1    
    96   49  105 1    
    97   50   51 1    
    98   50   52 1    
    99   50  106 1    
   100   51  107 1    
   101   51  108 1    
   102   51  109 1    
   103   52   53 2    
   104   52   54 am   BACKBONE|DICT|INTERRES
   105   54   55 1    
   106   54  110 1    
   107   55   56 1    
   108   55   59 1    
   109   55  111 1    
   110   56   57 am   BACKBONE|DICT|INTERRES
   111   56   58 2    
   112   57  112 1    
   113   57  113 1    
   114   59   60 1    
   115   59  114 1    
   116   59  115 1    
   117   60   61 1    
   118   61  116 1    
   119   61  117 1    
@<TRIPOS>SUBSTRUCTURE
     1 UNK         1 GROUP             0       ****    0 ROOT    
