@<TRIPOS>MOLECULE
3R8
117   119    1
SMALL
USER_CHARGES


@<TRIPOS>ATOM
      1 CA         15.2666  -22.8369  -42.9786 C.3       0 UNK        -0.2013 
      2 C          16.3270  -23.9279  -42.9590 C.2       0 UNK         0.4866 
      3 O          17.3474  -23.8005  -43.6347 O.2       0 UNK        -0.5176 
      4 N          16.0875  -25.0016  -42.1976 N.am      1 UNK        -0.4884 
      5 CA         17.0121  -26.1272  -42.0176 C.3       1 UNK         0.0853 
      6 C6         16.2764  -27.3726  -41.4642 C.3       10 UNK        -0.0849 
      7 S7         14.9673  -27.9550  -42.5927 S.3       10 UNK        -0.2776 
      8 C8         15.4802  -29.6732  -42.9102 C.3       10 UNK         0.0316 
      9 C9         16.7785  -29.7701  -43.7015 C.ar      10 UNK        -0.0863 
     10 C10        17.8845  -30.4338  -43.1628 C.ar      10 UNK        -0.1009 
     11 C11        19.0493  -30.6040  -43.9179 C.ar      10 UNK        -0.0712 
     12 C12        19.1133  -30.0818  -45.2143 C.ar      10 UNK        -0.0894 
     13 C13        18.0204  -29.3969  -45.7555 C.ar      10 UNK        -0.0745 
     14 C14        16.8564  -29.2482  -44.9957 C.ar      10 UNK        -0.0972 
     15 C15        18.0673  -28.8527  -47.1756 C.3       10 UNK         0.0209 
     16 S16        18.4929  -27.0827  -47.2145 S.3       10 UNK        -0.2568 
     17 C17        20.3151  -27.1206  -47.1344 C.3       10 UNK        -0.0983 
     18 CA         20.8753  -26.3459  -45.9102 C.3       3 UNK         0.0876 
     19 N          20.4257  -26.9374  -44.6461 N.am      3 UNK        -0.4424 
     20 C          20.3045  -26.2865  -43.4834 C.2       2 UNK         0.4918 
     21 O          20.5255  -25.0830  -43.3335 O.2       2 UNK        -0.4875 
     22 CA         19.8635  -27.1397  -42.2805 C.3       2 UNK         0.0481 
     23 CB         21.0441  -27.9738  -41.7588 C.3       2 UNK        -0.1831 
     24 N          19.3725  -26.2969  -41.1868 N.am      2 UNK        -0.4498 
     25 C          18.1627  -25.7325  -41.0596 C.2       1 UNK         0.5027 
     26 O          17.9272  -24.9433  -40.1423 O.2       1 UNK        -0.4969 
     27 C          22.4182  -26.1942  -45.9219 C.2       3 UNK         0.5005 
     28 O          22.9648  -25.4495  -45.1070 O.2       3 UNK        -0.5279 
     29 N          23.1063  -26.8709  -46.8544 N.am      4 UNK        -0.4463 
     30 CA         24.5676  -26.8356  -46.9964 C.3       4 UNK         0.0283 
     31 CB         24.9469  -27.2974  -48.4132 C.3       4 UNK        -0.1875 
     32 C          25.3059  -27.6831  -45.9430 C.2       4 UNK         0.4949 
     33 O          26.4832  -27.4312  -45.6833 O.2       4 UNK        -0.5039 
     34 N          24.6152  -28.6805  -45.3772 N.am      5 UNK        -0.4663 
     35 CA         25.1216  -29.5685  -44.3305 C.3       5 UNK         0.0242 
     36 CB         24.3165  -30.8789  -44.3798 C.3       5 UNK        -0.1982 
     37 C          25.0350  -28.9258  -42.9333 C.2       5 UNK         0.5017 
     38 O          24.4515  -27.8516  -42.7697 O.2       5 UNK        -0.5012 
     39 N          25.6039  -29.6257  -41.9440 N.am      6 UNK        -0.4439 
     40 CA         25.5192  -29.3051  -40.5169 C.3       6 UNK         0.0297 
     41 CB         26.5398  -30.1800  -39.7663 C.3       6 UNK        -0.2006 
     42 C          24.1013  -29.5127  -39.9469 C.2       6 UNK         0.4892 
     43 O          23.2213  -30.0355  -40.6356 O.2       6 UNK        -0.5089 
     44 N          23.9136  -29.1228  -38.6773 N.am      7 UNK        -0.4243 
     45 CA         22.6812  -29.3205  -37.9061 C.3       7 UNK         0.0196 
     46 CB         22.8760  -28.7747  -36.4827 C.3       7 UNK        -0.2007 
     47 C          22.2547  -30.7992  -37.8653 C.2       7 UNK         0.5020 
     48 O          23.1004  -31.6721  -37.6551 O.2       7 UNK        -0.5147 
     49 N          20.9620  -31.0464  -38.1229 N.am      8 UNK        -0.4734 
     50 CA         20.3364  -32.3673  -38.3070 C.3       8 UNK         0.0238 
     51 CB         20.3324  -33.1607  -36.9823 C.3       8 UNK        -0.1912 
     52 C          20.9292  -33.1806  -39.4811 C.2       8 UNK         0.5038 
     53 O          20.8168  -34.4076  -39.4880 O.2       8 UNK        -0.5046 
     54 N          21.5495  -32.4810  -40.4419 N.am      9 UNK        -0.4200 
     55 CA         22.2921  -33.0162  -41.5927 C.3       9 UNK         0.0839 
     56 C          23.6411  -33.6964  -41.2086 C.2       9 UNK         0.5513 
     57 N          24.1754  -33.4869  -40.0098 N.am      9 UNK        -0.7519 
     58 O          24.2330  -34.4030  -42.0204 O.2       9 UNK        -0.4960 
     59 C59        21.4247  -33.8773  -42.5595 C.3       10 UNK        -0.0876 
     60 S60        19.8506  -33.1357  -43.1359 S.3       10 UNK        -0.2414 
     61 C61        20.2290  -31.3639  -43.3313 C.3       10 UNK         0.0169 
     62 H62        14.9048  -22.6835  -43.9950 H         1 UNK         0.0903 
     63 H63        14.4124  -23.0862  -42.3491 H         1 UNK         0.0903 
     64 H64        15.6884  -21.8978  -42.6213 H         1 UNK         0.0903 
     65 H65        15.2373  -25.0485  -41.6547 H         1 UNK         0.3096 
     66 H66        17.4160  -26.3672  -43.0022 H         1 UNK         0.1121 
     67 H67        16.9821  -28.1853  -41.2823 H         1 UNK         0.0849 
     68 H68        15.8193  -27.1533  -40.4972 H         1 UNK         0.0849 
     69 H69        15.5581  -30.2039  -41.9599 H         1 UNK         0.0865 
     70 H70        14.6910  -30.1748  -43.4720 H         1 UNK         0.0865 
     71 H71        17.8327  -30.8511  -42.1663 H         1 UNK         0.1346 
     72 H72        20.0056  -30.2240  -45.8087 H         1 UNK         0.1412 
     73 H73        16.0018  -28.7365  -45.4178 H         1 UNK         0.1426 
     74 H74        18.7665  -29.4225  -47.7895 H         1 UNK         0.0716 
     75 H75        17.0898  -28.9820  -47.6427 H         1 UNK         0.0716 
     76 H76        20.6612  -28.1553  -47.1324 H         1 UNK         0.0695 
     77 H77        20.6722  -26.6750  -48.0650 H         1 UNK         0.0695 
     78 H78        20.4796  -25.3288  -45.9649 H         1 UNK         0.0983 
     79 H79        20.1920  -27.9184  -44.6783 H         1 UNK         0.3095 
     80 H80        19.0813  -27.8288  -42.6001 H         1 UNK         0.0454 
     81 H81        21.4535  -28.6187  -42.5372 H         1 UNK         0.0851 
     82 H82        21.8638  -27.3447  -41.4088 H         1 UNK         0.0851 
     83 H83        20.7428  -28.6198  -40.9344 H         1 UNK         0.0851 
     84 H84        20.0835  -25.9960  -40.5371 H         1 UNK         0.2976 
     85 H85        22.6012  -27.4466  -47.5127 H         1 UNK         0.3116 
     86 H86        24.9031  -25.8028  -46.8781 H         1 UNK         0.0646 
     87 H87        26.0269  -27.2520  -48.5615 H         1 UNK         0.0847 
     88 H88        24.4919  -26.6631  -49.1740 H         1 UNK         0.0847 
     89 H89        24.6369  -28.3261  -48.6015 H         1 UNK         0.0847 
     90 H90        23.6428  -28.7802  -45.6234 H         1 UNK         0.3040 
     91 H91        26.1711  -29.7924  -44.5362 H         1 UNK         0.1015 
     92 H92        24.3435  -31.3276  -45.3731 H         1 UNK         0.0786 
     93 H93        23.2744  -30.7086  -44.1152 H         1 UNK         0.0786 
     94 H94        24.7120  -31.6202  -43.6845 H         1 UNK         0.0786 
     95 H95        26.0316  -30.5109  -42.1717 H         1 UNK         0.3172 
     96 H96        25.7870  -28.2548  -40.3850 H         1 UNK         0.0595 
     97 H97        26.5794  -29.9292  -38.7057 H         1 UNK         0.0839 
     98 H98        27.5470  -30.0444  -40.1611 H         1 UNK         0.0839 
     99 H99        26.2906  -31.2398  -39.8385 H         1 UNK         0.0839 
    100 H100       24.6944  -28.7247  -38.1768 H         1 UNK         0.2998 
    101 H101       21.8978  -28.7386  -38.3963 H         1 UNK         0.0822 
    102 H102       23.1235  -27.7130  -36.4931 H         1 UNK         0.0787 
    103 H103       21.9651  -28.8881  -35.8930 H         1 UNK         0.0787 
    104 H104       23.6726  -29.3015  -35.9554 H         1 UNK         0.0787 
    105 H105       20.3503  -30.2564  -38.2794 H         1 UNK         0.3055 
    106 H106       19.2965  -32.1786  -38.5789 H         1 UNK         0.1106 
    107 H107       19.7383  -34.0709  -37.0719 H         1 UNK         0.0828 
    108 H108       21.3381  -33.4595  -36.6853 H         1 UNK         0.0828 
    109 H109       19.9023  -32.5754  -36.1697 H         1 UNK         0.0828 
    110 H110       21.6675  -31.4845  -40.3071 H         1 UNK         0.2931 
    111 H111       22.6062  -32.1376  -42.1539 H         1 UNK         0.0412 
    112 H112       25.0493  -33.9304  -39.7769 H         1 UNK         0.3472 
    113 H113       23.7129  -32.8945  -39.3308 H         1 UNK         0.3472 
    114 H114       21.1890  -34.8364  -42.0960 H         1 UNK         0.0970 
    115 H115       22.0035  -34.1206  -43.4522 H         1 UNK         0.0970 
    116 H116       20.4834  -30.9247  -42.3674 H         1 UNK         0.0612 
    117 H117       21.1028  -31.2611  -43.9727 H         1 UNK         0.0612 
@<TRIPOS>BOND
     1    1    2 1    
     2    1   62 1    
     3    1   63 1    
     4    1   64 1    
     5    2    3 2    
     6    2    4 am   BACKBONE|DICT|INTERRES
     7    4    5 1    
     8    4   65 1    
     9    5    6 1    
    10    5   25 1    
    11    5   66 1    
    12    6    7 1    
    13    6   67 1    
    14    6   68 1    
    15    7    8 1    
    16    8    9 1    
    17    8   69 1    
    18    8   70 1    
    19    9   10 ar   
    20    9   14 ar   
    21   10   11 ar   
    22   10   71 1    
    23   11   12 ar   
    24   11   61 1    
    25   12   13 ar   
    26   12   72 1    
    27   13   14 ar   
    28   13   15 1    
    29   14   73 1    
    30   15   16 1    
    31   15   74 1    
    32   15   75 1    
    33   16   17 1    
    34   17   18 1    
    35   17   76 1    
    36   17   77 1    
    37   18   19 1    
    38   18   27 1    
    39   18   78 1    
    40   19   20 am   BACKBONE|DICT|INTERRES
    41   19   79 1    
    42   20   21 2    
    43   20   22 1    
    44   22   23 1    
    45   22   24 1    
    46   22   80 1    
    47   23   81 1    
    48   23   82 1    
    49   23   83 1    
    50   24   25 am   BACKBONE|DICT|INTERRES
    51   24   84 1    
    52   25   26 2    
    53   27   28 2    
    54   27   29 am   BACKBONE|DICT|INTERRES
    55   29   30 1    
    56   29   85 1    
    57   30   31 1    
    58   30   32 1    
    59   30   86 1    
    60   31   87 1    
    61   31   88 1    
    62   31   89 1    
    63   32   33 2    
    64   32   34 am   BACKBONE|DICT|INTERRES
    65   34   35 1    
    66   34   90 1    
    67   35   36 1    
    68   35   37 1    
    69   35   91 1    
    70   36   92 1    
    71   36   93 1    
    72   36   94 1    
    73   37   38 2    
    74   37   39 am   BACKBONE|DICT|INTERRES
    75   39   40 1    
    76   39   95 1    
    77   40   41 1    
    78   40   42 1    
    79   40   96 1    
    80   41   97 1    
    81   41   98 1    
    82   41   99 1    
    83   42   43 2    
    84   42   44 am   BACKBONE|DICT|INTERRES
    85   44   45 1    
    86   44  100 1    
    87   45   46 1    
    88   45   47 1    
    89   45  101 1    
    90   46  102 1    
    91   46  103 1    
    92   46  104 1    
    93   47   48 2    
    94   47   49 am   BACKBONE|DICT|INTERRES
    95   49   50 1    
    96   49  105 1    
    97   50   51 1    
    98   50   52 1    
    99   50  106 1    
   100   51  107 1    
   101   51  108 1    
   102   51  109 1    
   103   52   53 2    
   104   52   54 am   BACKBONE|DICT|INTERRES
   105   54   55 1    
   106   54  110 1    
   107   55   56 1    
   108   55   59 1    
   109   55  111 1    
   110   56   57 am   BACKBONE|DICT|INTERRES
   111   56   58 2    
   112   57  112 1    
   113   57  113 1    
   114   59   60 1    
   115   59  114 1    
   116   59  115 1    
   117   60   61 1    
   118   61  116 1    
   119   61  117 1    
@<TRIPOS>SUBSTRUCTURE
     1 UNK         1 GROUP             0       ****    0 ROOT    
