@<TRIPOS>MOLECULE
3R8
117   119    1
SMALL
USER_CHARGES


@<TRIPOS>ATOM
      1 CA         19.0154  -22.9912  -49.0069 C.3       0 UNK        -0.2013 
      2 C          19.7540  -24.0195  -48.1632 C.2       0 UNK         0.4866 
      3 O          20.8037  -24.5127  -48.5771 O.2       0 UNK        -0.5176 
      4 N          19.2182  -24.3432  -46.9836 N.am      1 UNK        -0.4884 
      5 CA         19.7756  -25.3047  -46.0340 C.3       1 UNK         0.0853 
      6 C6         19.5151  -26.7870  -46.4397 C.3       10 UNK        -0.0849 
      7 S7         17.7556  -27.1971  -46.7209 S.3       10 UNK        -0.2776 
      8 C8         17.8497  -28.9554  -47.2035 C.3       10 UNK         0.0316 
      9 C9         17.8459  -29.9270  -46.0243 C.ar      10 UNK        -0.0863 
     10 C10        18.7253  -31.0161  -46.0126 C.ar      10 UNK        -0.1009 
     11 C11        18.6709  -31.9658  -44.9863 C.ar      10 UNK        -0.0712 
     12 C12        17.7459  -31.8097  -43.9508 C.ar      10 UNK        -0.0894 
     13 C13        16.8549  -30.7340  -43.9534 C.ar      10 UNK        -0.0745 
     14 C14        16.9082  -29.7988  -44.9921 C.ar      10 UNK        -0.0972 
     15 C15        15.7945  -30.6152  -42.8683 C.3       10 UNK         0.0209 
     16 S16        16.1321  -29.2492  -41.7176 S.3       10 UNK        -0.2568 
     17 C17        17.5466  -29.8876  -40.7525 C.3       10 UNK        -0.0983 
     18 CA         18.9109  -29.2964  -41.1917 C.3       3 UNK         0.0876 
     19 N          18.8471  -27.8412  -41.3658 N.am      3 UNK        -0.4424 
     20 C          19.8225  -27.0726  -41.8591 C.2       2 UNK         0.4918 
     21 O          20.9788  -27.4500  -42.0700 O.2       2 UNK        -0.4875 
     22 CA         19.4189  -25.6519  -42.2535 C.3       2 UNK         0.0481 
     23 CB         20.0062  -24.5980  -41.3007 C.3       2 UNK        -0.1831 
     24 N          19.9252  -25.4819  -43.6090 N.am      2 UNK        -0.4498 
     25 C          19.2273  -24.9845  -44.6332 C.2       1 UNK         0.5027 
     26 O          18.1808  -24.3396  -44.5112 O.2       1 UNK        -0.4969 
     27 C          20.0227  -29.7459  -40.2245 C.2       3 UNK         0.5005 
     28 O          20.6310  -30.7948  -40.4431 O.2       3 UNK        -0.5279 
     29 N          20.2715  -28.9388  -39.1878 N.am      4 UNK        -0.4463 
     30 CA         21.3528  -29.1091  -38.2239 C.3       4 UNK         0.0283 
     31 CB         20.7875  -28.9358  -36.8050 C.3       4 UNK        -0.1875 
     32 C          22.4370  -28.0591  -38.4931 C.2       4 UNK         0.4949 
     33 O          22.1289  -26.9684  -38.9804 O.2       4 UNK        -0.5039 
     34 N          23.6807  -28.4043  -38.1387 N.am      5 UNK        -0.4663 
     35 CA         24.9097  -27.5995  -38.1979 C.3       5 UNK         0.0242 
     36 CB         24.8102  -26.3508  -37.2986 C.3       5 UNK        -0.1982 
     37 C          25.3841  -27.2267  -39.6142 C.2       5 UNK         0.5017 
     38 O          26.5451  -27.4839  -39.9331 O.2       5 UNK        -0.5012 
     39 N          24.5068  -26.6197  -40.4244 N.am      6 UNK        -0.4439 
     40 CA         24.8067  -26.1803  -41.7884 C.3       6 UNK         0.0297 
     41 CB         23.8025  -25.1099  -42.2461 C.3       6 UNK        -0.2006 
     42 C          24.8521  -27.3711  -42.7547 C.2       6 UNK         0.4892 
     43 O          25.9203  -27.6727  -43.2886 O.2       6 UNK        -0.5089 
     44 N          23.7021  -28.0319  -42.9517 N.am      7 UNK        -0.4243 
     45 CA         23.6019  -29.2479  -43.7603 C.3       7 UNK         0.0196 
     46 CB         22.1762  -29.3814  -44.3160 C.3       7 UNK        -0.2007 
     47 C          24.0137  -30.4887  -42.9510 C.2       7 UNK         0.5020 
     48 O          24.6673  -31.3729  -43.5046 O.2       7 UNK        -0.5147 
     49 N          23.6571  -30.5021  -41.6549 N.am      8 UNK        -0.4734 
     50 CA         23.9626  -31.5329  -40.6519 C.3       8 UNK         0.0238 
     51 CB         25.4662  -31.5147  -40.3049 C.3       8 UNK        -0.1912 
     52 C          23.4500  -32.9272  -41.0631 C.2       8 UNK         0.5038 
     53 O          24.2235  -33.8858  -41.1226 O.2       8 UNK        -0.5046 
     54 N          22.1505  -32.9949  -41.3620 N.am      9 UNK        -0.4200 
     55 CA         21.4586  -34.1709  -41.9083 C.3       9 UNK         0.0839 
     56 C          19.9695  -34.2922  -41.4787 C.2       9 UNK         0.5513 
     57 N          19.4045  -33.3559  -40.7263 N.am      9 UNK        -0.7519 
     58 O          19.3160  -35.2771  -41.8126 O.2       9 UNK        -0.4960 
     59 C59        21.6606  -34.3073  -43.4441 C.3       10 UNK        -0.0876 
     60 S60        21.2234  -32.7914  -44.3652 S.3       10 UNK        -0.2414 
     61 C61        19.5766  -33.1874  -45.0136 C.3       10 UNK         0.0169 
     62 H62        18.1047  -22.6429  -48.5197 H         1 UNK         0.0903 
     63 H63        19.6538  -22.1274  -49.1905 H         1 UNK         0.0903 
     64 H64        18.7407  -23.4233  -49.9688 H         1 UNK         0.0903 
     65 H65        18.3687  -23.8997  -46.6542 H         1 UNK         0.3096 
     66 H66        20.8554  -25.1424  -45.9924 H         1 UNK         0.1121 
     67 H67        20.0652  -27.0105  -47.3550 H         1 UNK         0.0849 
     68 H68        19.9087  -27.4705  -45.6861 H         1 UNK         0.0849 
     69 H69        18.7271  -29.1081  -47.8339 H         1 UNK         0.0865 
     70 H70        16.9859  -29.1838  -47.8291 H         1 UNK         0.0865 
     71 H71        19.4372  -31.1451  -46.8167 H         1 UNK         0.1346 
     72 H72        17.7016  -32.5440  -43.1578 H         1 UNK         0.1412 
     73 H73        16.2043  -28.9777  -45.0040 H         1 UNK         0.1426 
     74 H74        15.6963  -31.5472  -42.3092 H         1 UNK         0.0716 
     75 H75        14.8252  -30.4422  -43.3381 H         1 UNK         0.0716 
     76 H76        17.5664  -30.9769  -40.8162 H         1 UNK         0.0695 
     77 H77        17.3479  -29.6515  -39.7051 H         1 UNK         0.0695 
     78 H78        19.1580  -29.7161  -42.1698 H         1 UNK         0.0983 
     79 H79        17.9259  -27.4422  -41.2539 H         1 UNK         0.3095 
     80 H80        18.3295  -25.5709  -42.2450 H         1 UNK         0.0454 
     81 H81        19.5476  -24.6755  -40.3144 H         1 UNK         0.0851 
     82 H82        19.8225  -23.5876  -41.6656 H         1 UNK         0.0851 
     83 H83        21.0791  -24.7145  -41.1600 H         1 UNK         0.0851 
     84 H84        20.7610  -26.0204  -43.7964 H         1 UNK         0.2976 
     85 H85        19.7850  -28.0540  -39.1505 H         1 UNK         0.3116 
     86 H86        21.7880  -30.1068  -38.3071 H         1 UNK         0.0646 
     87 H87        20.0070  -29.6683  -36.5982 H         1 UNK         0.0847 
     88 H88        20.3617  -27.9424  -36.6564 H         1 UNK         0.0847 
     89 H89        21.5656  -29.0720  -36.0528 H         1 UNK         0.0847 
     90 H90        23.8101  -29.3294  -37.7522 H         1 UNK         0.3040 
     91 H91        25.6907  -28.2341  -37.7746 H         1 UNK         0.1015 
     92 H92        25.7575  -25.8103  -37.2783 H         1 UNK         0.0786 
     93 H93        24.5709  -26.6219  -36.2703 H         1 UNK         0.0786 
     94 H94        24.0484  -25.6523  -37.6459 H         1 UNK         0.0786 
     95 H95        23.5576  -26.4989  -40.0757 H         1 UNK         0.3172 
     96 H96        25.7951  -25.7153  -41.7839 H         1 UNK         0.0595 
     97 H97        24.0837  -24.7095  -43.2210 H         1 UNK         0.0839 
     98 H98        23.7679  -24.2717  -41.5500 H         1 UNK         0.0839 
     99 H99        22.7956  -25.5095  -42.3431 H         1 UNK         0.0839 
    100 H100       22.8512  -27.7191  -42.4918 H         1 UNK         0.2998 
    101 H101       24.2799  -29.1605  -44.6125 H         1 UNK         0.0822 
    102 H102       22.1361  -30.1501  -45.0872 H         1 UNK         0.0787 
    103 H103       21.8431  -28.4525  -44.7758 H         1 UNK         0.0787 
    104 H104       21.4564  -29.6536  -43.5427 H         1 UNK         0.0787 
    105 H105       23.0826  -29.7372  -41.3315 H         1 UNK         0.3055 
    106 H106       23.4142  -31.2651  -39.7482 H         1 UNK         0.1106 
    107 H107       25.7862  -30.5254  -39.9775 H         1 UNK         0.0828 
    108 H108       25.6892  -32.2125  -39.4968 H         1 UNK         0.0828 
    109 H109       26.0821  -31.7991  -41.1587 H         1 UNK         0.0828 
    110 H110       21.5843  -32.1575  -41.2526 H         1 UNK         0.2931 
    111 H111       21.9217  -35.0477  -41.4517 H         1 UNK         0.0412 
    112 H112       19.9083  -32.5160  -40.4620 H         1 UNK         0.3472 
    113 H113       18.4481  -33.4794  -40.4367 H         1 UNK         0.3472 
    114 H114       21.1192  -35.1664  -43.8441 H         1 UNK         0.0970 
    115 H115       22.7127  -34.5134  -43.6460 H         1 UNK         0.0970 
    116 H116       19.6743  -33.5611  -46.0338 H         1 UNK         0.0612 
    117 H117       19.1268  -33.9946  -44.4340 H         1 UNK         0.0612 
@<TRIPOS>BOND
     1    1    2 1    
     2    1   62 1    
     3    1   63 1    
     4    1   64 1    
     5    2    3 2    
     6    2    4 am   BACKBONE|DICT|INTERRES
     7    4    5 1    
     8    4   65 1    
     9    5    6 1    
    10    5   25 1    
    11    5   66 1    
    12    6    7 1    
    13    6   67 1    
    14    6   68 1    
    15    7    8 1    
    16    8    9 1    
    17    8   69 1    
    18    8   70 1    
    19    9   10 ar   
    20    9   14 ar   
    21   10   11 ar   
    22   10   71 1    
    23   11   12 ar   
    24   11   61 1    
    25   12   13 ar   
    26   12   72 1    
    27   13   14 ar   
    28   13   15 1    
    29   14   73 1    
    30   15   16 1    
    31   15   74 1    
    32   15   75 1    
    33   16   17 1    
    34   17   18 1    
    35   17   76 1    
    36   17   77 1    
    37   18   19 1    
    38   18   27 1    
    39   18   78 1    
    40   19   20 am   BACKBONE|DICT|INTERRES
    41   19   79 1    
    42   20   21 2    
    43   20   22 1    
    44   22   23 1    
    45   22   24 1    
    46   22   80 1    
    47   23   81 1    
    48   23   82 1    
    49   23   83 1    
    50   24   25 am   BACKBONE|DICT|INTERRES
    51   24   84 1    
    52   25   26 2    
    53   27   28 2    
    54   27   29 am   BACKBONE|DICT|INTERRES
    55   29   30 1    
    56   29   85 1    
    57   30   31 1    
    58   30   32 1    
    59   30   86 1    
    60   31   87 1    
    61   31   88 1    
    62   31   89 1    
    63   32   33 2    
    64   32   34 am   BACKBONE|DICT|INTERRES
    65   34   35 1    
    66   34   90 1    
    67   35   36 1    
    68   35   37 1    
    69   35   91 1    
    70   36   92 1    
    71   36   93 1    
    72   36   94 1    
    73   37   38 2    
    74   37   39 am   BACKBONE|DICT|INTERRES
    75   39   40 1    
    76   39   95 1    
    77   40   41 1    
    78   40   42 1    
    79   40   96 1    
    80   41   97 1    
    81   41   98 1    
    82   41   99 1    
    83   42   43 2    
    84   42   44 am   BACKBONE|DICT|INTERRES
    85   44   45 1    
    86   44  100 1    
    87   45   46 1    
    88   45   47 1    
    89   45  101 1    
    90   46  102 1    
    91   46  103 1    
    92   46  104 1    
    93   47   48 2    
    94   47   49 am   BACKBONE|DICT|INTERRES
    95   49   50 1    
    96   49  105 1    
    97   50   51 1    
    98   50   52 1    
    99   50  106 1    
   100   51  107 1    
   101   51  108 1    
   102   51  109 1    
   103   52   53 2    
   104   52   54 am   BACKBONE|DICT|INTERRES
   105   54   55 1    
   106   54  110 1    
   107   55   56 1    
   108   55   59 1    
   109   55  111 1    
   110   56   57 am   BACKBONE|DICT|INTERRES
   111   56   58 2    
   112   57  112 1    
   113   57  113 1    
   114   59   60 1    
   115   59  114 1    
   116   59  115 1    
   117   60   61 1    
   118   61  116 1    
   119   61  117 1    
@<TRIPOS>SUBSTRUCTURE
     1 UNK         1 GROUP             0       ****    0 ROOT    
