@<TRIPOS>MOLECULE
3R8
117   119    1
SMALL
USER_CHARGES


@<TRIPOS>ATOM
      1 CA         21.5108  -28.3679  -48.7898 C.3       0 UNK        -0.2013 
      2 C          20.9316  -28.2762  -47.3868 C.2       0 UNK         0.4866 
      3 O          21.6306  -28.5669  -46.4171 O.2       0 UNK        -0.5176 
      4 N          19.6650  -27.8579  -47.2678 N.am      1 UNK        -0.4884 
      5 CA         18.8835  -27.7405  -46.0256 C.3       1 UNK         0.0853 
      6 C6         17.3615  -27.7395  -46.3326 C.3       10 UNK        -0.0849 
      7 S7         16.8088  -29.3145  -47.0810 S.3       10 UNK        -0.2776 
      8 C8         15.6566  -29.9752  -45.8296 C.3       10 UNK         0.0316 
      9 C9         16.3673  -30.3660  -44.5410 C.ar      10 UNK        -0.0863 
     10 C10        16.9766  -31.6176  -44.4173 C.ar      10 UNK        -0.1009 
     11 C11        17.6381  -31.9694  -43.2366 C.ar      10 UNK        -0.0712 
     12 C12        17.7048  -31.0509  -42.1838 C.ar      10 UNK        -0.0894 
     13 C13        17.0965  -29.7958  -42.2903 C.ar      10 UNK        -0.0745 
     14 C14        16.4062  -29.4757  -43.4654 C.ar      10 UNK        -0.0972 
     15 C15        17.1882  -28.8158  -41.1208 C.3       10 UNK         0.0209 
     16 S16        17.2138  -27.0636  -41.6360 S.3       10 UNK        -0.2568 
     17 C17        18.2403  -26.3080  -40.3364 C.3       10 UNK        -0.0983 
     18 CA         19.7466  -26.3627  -40.6860 C.3       3 UNK         0.0876 
     19 N          20.0373  -25.8006  -42.0146 N.am      3 UNK        -0.4424 
     20 C          21.2321  -25.7954  -42.6181 C.2       2 UNK         0.4918 
     21 O          22.2732  -26.1552  -42.0653 O.2       2 UNK        -0.4875 
     22 CA         21.2535  -25.3622  -44.0927 C.3       2 UNK         0.0481 
     23 CB         22.6842  -25.1135  -44.6041 C.3       2 UNK        -0.1831 
     24 N          20.6273  -26.3885  -44.9261 N.am      2 UNK        -0.4498 
     25 C          19.3168  -26.5289  -45.1594 C.2       1 UNK         0.5027 
     26 O          18.4758  -25.7425  -44.7198 O.2       1 UNK        -0.4969 
     27 C          20.5893  -25.7650  -39.5405 C.2       3 UNK         0.5005 
     28 O          20.8899  -26.4800  -38.5841 O.2       3 UNK        -0.5279 
     29 N          21.0179  -24.5013  -39.6798 N.am      4 UNK        -0.4463 
     30 CA         21.9479  -23.8209  -38.7693 C.3       4 UNK         0.0283 
     31 CB         22.0797  -22.3485  -39.1901 C.3       4 UNK        -0.1875 
     32 C          23.3408  -24.4800  -38.6869 C.2       4 UNK         0.4949 
     33 O          24.0131  -24.3359  -37.6661 O.2       4 UNK        -0.5039 
     34 N          23.7354  -25.2021  -39.7438 N.am      5 UNK        -0.4663 
     35 CA         24.9606  -25.9994  -39.8286 C.3       5 UNK         0.0242 
     36 CB         25.6948  -25.6174  -41.1274 C.3       5 UNK        -0.1982 
     37 C          24.6585  -27.5115  -39.7826 C.2       5 UNK         0.5017 
     38 O          25.5360  -28.3050  -40.1235 O.2       5 UNK        -0.5012 
     39 N          23.4295  -27.8853  -39.3867 N.am      6 UNK        -0.4439 
     40 CA         22.8633  -29.2418  -39.3717 C.3       6 UNK         0.0297 
     41 CB         23.6314  -30.1655  -38.4024 C.3       6 UNK        -0.2006 
     42 C          22.6927  -29.8600  -40.7751 C.2       6 UNK         0.4892 
     43 O          22.6638  -31.0882  -40.8990 O.2       6 UNK        -0.5089 
     44 N          22.5535  -29.0048  -41.8019 N.am      7 UNK        -0.4243 
     45 CA         22.3781  -29.3437  -43.2165 C.3       7 UNK         0.0196 
     46 CB         20.9580  -29.9165  -43.4402 C.3       7 UNK        -0.2007 
     47 C          23.5289  -30.2426  -43.7063 C.2       7 UNK         0.5020 
     48 O          24.6861  -29.8226  -43.6586 O.2       7 UNK        -0.5147 
     49 N          23.2024  -31.4733  -44.1037 N.am      8 UNK        -0.4734 
     50 CA         24.1438  -32.5789  -44.2742 C.3       8 UNK         0.0238 
     51 CB         24.5534  -32.6864  -45.7558 C.3       8 UNK        -0.1912 
     52 C          23.5014  -33.8669  -43.7309 C.2       8 UNK         0.5038 
     53 O          23.7292  -34.9442  -44.2848 O.2       8 UNK        -0.5046 
     54 N          22.6541  -33.7256  -42.7018 N.am      9 UNK        -0.4200 
     55 CA         21.6785  -34.7448  -42.2864 C.3       9 UNK         0.0839 
     56 C          21.0896  -34.5426  -40.8621 C.2       9 UNK         0.5513 
     57 N          21.3868  -33.4695  -40.1401 N.am      9 UNK        -0.7519 
     58 O          20.3551  -35.4028  -40.3831 O.2       9 UNK        -0.4960 
     59 C59        20.5686  -34.9730  -43.3598 C.3       10 UNK        -0.0876 
     60 S60        19.8424  -33.4249  -44.0111 S.3       10 UNK        -0.2414 
     61 C61        18.2778  -33.3418  -43.0960 C.3       10 UNK         0.0169 
     62 H62        22.3740  -27.7094  -48.8823 H         1 UNK         0.0903 
     63 H63        21.8368  -29.3876  -48.9930 H         1 UNK         0.0903 
     64 H64        20.7841  -28.0857  -49.5514 H         1 UNK         0.0903 
     65 H65        19.1545  -27.6234  -48.1075 H         1 UNK         0.3096 
     66 H66        19.0874  -28.6241  -45.4170 H         1 UNK         0.1121 
     67 H67        16.7784  -27.5495  -45.4319 H         1 UNK         0.0849 
     68 H68        17.1127  -26.9258  -47.0161 H         1 UNK         0.0849 
     69 H69        15.1501  -30.8478  -46.2448 H         1 UNK         0.0865 
     70 H70        14.8741  -29.2409  -45.6311 H         1 UNK         0.0865 
     71 H71        16.9416  -32.3177  -45.2411 H         1 UNK         0.1346 
     72 H72        18.2306  -31.3175  -41.2769 H         1 UNK         0.1412 
     73 H73        15.9070  -28.5214  -43.5529 H         1 UNK         0.1426 
     74 H74        18.0899  -29.0273  -40.5443 H         1 UNK         0.0716 
     75 H75        16.3433  -28.9772  -40.4504 H         1 UNK         0.0716 
     76 H76        18.0380  -26.8091  -39.3874 H         1 UNK         0.0695 
     77 H77        17.9147  -25.2735  -40.2119 H         1 UNK         0.0695 
     78 H78        20.0304  -27.4160  -40.7421 H         1 UNK         0.0983 
     79 H79        19.2285  -25.5398  -42.5664 H         1 UNK         0.3095 
     80 H80        20.6966  -24.4271  -44.1795 H         1 UNK         0.0454 
     81 H81        22.6797  -24.7564  -45.6340 H         1 UNK         0.0851 
     82 H82        23.2928  -26.0181  -44.5673 H         1 UNK         0.0851 
     83 H83        23.1888  -24.3572  -44.0014 H         1 UNK         0.0851 
     84 H84        21.2385  -27.0949  -45.3298 H         1 UNK         0.2976 
     85 H85        20.7265  -23.9896  -40.5005 H         1 UNK         0.3116 
     86 H86        21.5131  -23.8536  -37.7681 H         1 UNK         0.0646 
     87 H87        22.7428  -21.8075  -38.5134 H         1 UNK         0.0847 
     88 H88        21.1158  -21.8399  -39.1690 H         1 UNK         0.0847 
     89 H89        22.4917  -22.2505  -40.1954 H         1 UNK         0.0847 
     90 H90        23.1102  -25.2883  -40.5404 H         1 UNK         0.3040 
     91 H91        25.6184  -25.7809  -38.9847 H         1 UNK         0.1015 
     92 H92        25.9060  -24.5486  -41.1632 H         1 UNK         0.0786 
     93 H93        25.1076  -25.8730  -42.0108 H         1 UNK         0.0786 
     94 H94        26.6505  -26.1368  -41.2084 H         1 UNK         0.0786 
     95 H95        22.7850  -27.1557  -39.0997 H         1 UNK         0.3172 
     96 H96        21.8522  -29.1322  -38.9776 H         1 UNK         0.0595 
     97 H97        24.6293  -30.4024  -38.7718 H         1 UNK         0.0839 
     98 H98        23.1062  -31.1118  -38.2667 H         1 UNK         0.0839 
     99 H99        23.7352  -29.7107  -37.4174 H         1 UNK         0.0839 
    100 H100       22.6317  -28.0106  -41.6134 H         1 UNK         0.2998 
    101 H101       22.4617  -28.4149  -43.7805 H         1 UNK         0.0822 
    102 H102       20.7695  -30.8036  -42.8355 H         1 UNK         0.0787 
    103 H103       20.1979  -29.1811  -43.1762 H         1 UNK         0.0787 
    104 H104       20.7911  -30.1867  -44.4831 H         1 UNK         0.0787 
    105 H105       22.2225  -31.7247  -44.1267 H         1 UNK         0.3055 
    106 H106       25.0388  -32.4023  -43.6730 H         1 UNK         0.1106 
    107 H107       25.2888  -33.4781  -45.9041 H         1 UNK         0.0828 
    108 H108       23.6969  -32.9091  -46.3931 H         1 UNK         0.0828 
    109 H109       25.0027  -31.7586  -46.1102 H         1 UNK         0.0828 
    110 H110       22.5672  -32.8206  -42.2557 H         1 UNK         0.2931 
    111 H111       22.2356  -35.6797  -42.2005 H         1 UNK         0.0412 
    112 H112       20.9907  -33.3965  -39.2171 H         1 UNK         0.3472 
    113 H113       21.9616  -32.7063  -40.4868 H         1 UNK         0.3472 
    114 H114       20.9997  -35.5040  -44.2095 H         1 UNK         0.0970 
    115 H115       19.7803  -35.6319  -42.9907 H         1 UNK         0.0970 
    116 H116       17.5984  -34.1094  -43.4693 H         1 UNK         0.0612 
    117 H117       18.4578  -33.5693  -42.0443 H         1 UNK         0.0612 
@<TRIPOS>BOND
     1    1    2 1    
     2    1   62 1    
     3    1   63 1    
     4    1   64 1    
     5    2    3 2    
     6    2    4 am   BACKBONE|DICT|INTERRES
     7    4    5 1    
     8    4   65 1    
     9    5    6 1    
    10    5   25 1    
    11    5   66 1    
    12    6    7 1    
    13    6   67 1    
    14    6   68 1    
    15    7    8 1    
    16    8    9 1    
    17    8   69 1    
    18    8   70 1    
    19    9   10 ar   
    20    9   14 ar   
    21   10   11 ar   
    22   10   71 1    
    23   11   12 ar   
    24   11   61 1    
    25   12   13 ar   
    26   12   72 1    
    27   13   14 ar   
    28   13   15 1    
    29   14   73 1    
    30   15   16 1    
    31   15   74 1    
    32   15   75 1    
    33   16   17 1    
    34   17   18 1    
    35   17   76 1    
    36   17   77 1    
    37   18   19 1    
    38   18   27 1    
    39   18   78 1    
    40   19   20 am   BACKBONE|DICT|INTERRES
    41   19   79 1    
    42   20   21 2    
    43   20   22 1    
    44   22   23 1    
    45   22   24 1    
    46   22   80 1    
    47   23   81 1    
    48   23   82 1    
    49   23   83 1    
    50   24   25 am   BACKBONE|DICT|INTERRES
    51   24   84 1    
    52   25   26 2    
    53   27   28 2    
    54   27   29 am   BACKBONE|DICT|INTERRES
    55   29   30 1    
    56   29   85 1    
    57   30   31 1    
    58   30   32 1    
    59   30   86 1    
    60   31   87 1    
    61   31   88 1    
    62   31   89 1    
    63   32   33 2    
    64   32   34 am   BACKBONE|DICT|INTERRES
    65   34   35 1    
    66   34   90 1    
    67   35   36 1    
    68   35   37 1    
    69   35   91 1    
    70   36   92 1    
    71   36   93 1    
    72   36   94 1    
    73   37   38 2    
    74   37   39 am   BACKBONE|DICT|INTERRES
    75   39   40 1    
    76   39   95 1    
    77   40   41 1    
    78   40   42 1    
    79   40   96 1    
    80   41   97 1    
    81   41   98 1    
    82   41   99 1    
    83   42   43 2    
    84   42   44 am   BACKBONE|DICT|INTERRES
    85   44   45 1    
    86   44  100 1    
    87   45   46 1    
    88   45   47 1    
    89   45  101 1    
    90   46  102 1    
    91   46  103 1    
    92   46  104 1    
    93   47   48 2    
    94   47   49 am   BACKBONE|DICT|INTERRES
    95   49   50 1    
    96   49  105 1    
    97   50   51 1    
    98   50   52 1    
    99   50  106 1    
   100   51  107 1    
   101   51  108 1    
   102   51  109 1    
   103   52   53 2    
   104   52   54 am   BACKBONE|DICT|INTERRES
   105   54   55 1    
   106   54  110 1    
   107   55   56 1    
   108   55   59 1    
   109   55  111 1    
   110   56   57 am   BACKBONE|DICT|INTERRES
   111   56   58 2    
   112   57  112 1    
   113   57  113 1    
   114   59   60 1    
   115   59  114 1    
   116   59  115 1    
   117   60   61 1    
   118   61  116 1    
   119   61  117 1    
@<TRIPOS>SUBSTRUCTURE
     1 UNK         1 GROUP             0       ****    0 ROOT    
