@<TRIPOS>MOLECULE
3R8
117   119    1
SMALL
USER_CHARGES


@<TRIPOS>ATOM
      1 CA         16.1369  -24.4300  -48.3701 C.3       0 UNK        -0.2013 
      2 C          16.7713  -25.6880  -47.7960 C.2       0 UNK         0.4866 
      3 O          17.4211  -26.4336  -48.5290 O.2       0 UNK        -0.5176 
      4 N          16.5814  -25.9311  -46.4924 N.am      1 UNK        -0.4884 
      5 CA         17.1187  -27.0863  -45.7628 C.3       1 UNK         0.0853 
      6 C6         16.5438  -27.1741  -44.3295 C.3       10 UNK        -0.0849 
      7 S7         14.7836  -27.6580  -44.2723 S.3       10 UNK        -0.2776 
      8 C8         14.8368  -29.4846  -44.1248 C.3       10 UNK         0.0316 
      9 C9         15.9106  -30.0032  -43.1716 C.ar      10 UNK        -0.0863 
     10 C10        16.8362  -30.9522  -43.6170 C.ar      10 UNK        -0.1009 
     11 C11        17.8766  -31.3773  -42.7859 C.ar      10 UNK        -0.0712 
     12 C12        17.9861  -30.8490  -41.4976 C.ar      10 UNK        -0.0894 
     13 C13        17.0717  -29.8955  -41.0399 C.ar      10 UNK        -0.0745 
     14 C14        16.0195  -29.4983  -41.8708 C.ar      10 UNK        -0.0972 
     15 C15        17.2298  -29.2757  -39.6576 C.3       10 UNK         0.0209 
     16 S16        18.8665  -28.5076  -39.4034 S.3       10 UNK        -0.2568 
     17 C17        18.9102  -27.1745  -40.6550 C.3       10 UNK        -0.0983 
     18 CA         20.2708  -27.0900  -41.4028 C.3       3 UNK         0.0876 
     19 N          20.1166  -26.4302  -42.7079 N.am      3 UNK        -0.4424 
     20 C          21.0189  -26.4508  -43.7026 C.2       2 UNK         0.4918 
     21 O          22.1037  -27.0266  -43.6289 O.2       2 UNK        -0.4875 
     22 CA         20.6317  -25.6836  -44.9875 C.3       2 UNK         0.0481 
     23 CB         21.5834  -25.9632  -46.1704 C.3       2 UNK        -0.1831 
     24 N          19.2284  -25.9017  -45.3668 N.am      2 UNK        -0.4498 
     25 C          18.6574  -27.0784  -45.6753 C.2       1 UNK         0.5027 
     26 O          19.2749  -28.1308  -45.8350 O.2       1 UNK        -0.4969 
     27 C          21.3634  -26.4314  -40.5237 C.2       3 UNK         0.5005 
     28 O          21.8780  -27.0768  -39.6104 O.2       3 UNK        -0.5279 
     29 N          21.7021  -25.1616  -40.8015 N.am      4 UNK        -0.4463 
     30 CA         22.7678  -24.4069  -40.1383 C.3       4 UNK         0.0283 
     31 CB         22.7772  -22.9628  -40.6660 C.3       4 UNK        -0.1875 
     32 C          24.1356  -25.0787  -40.3470 C.2       4 UNK         0.4949 
     33 O          24.5852  -25.1955  -41.4890 O.2       4 UNK        -0.5039 
     34 N          24.7417  -25.5375  -39.2437 N.am      5 UNK        -0.4663 
     35 CA         25.9787  -26.3249  -39.1325 C.3       5 UNK         0.0242 
     36 CB         27.1974  -25.5688  -39.6986 C.3       5 UNK        -0.1982 
     37 C          25.8670  -27.7418  -39.7251 C.2       5 UNK         0.5017 
     38 O          26.1236  -28.7150  -39.0157 O.2       5 UNK        -0.5012 
     39 N          25.4611  -27.8459  -40.9953 N.am      6 UNK        -0.4439 
     40 CA         25.2889  -29.0895  -41.7501 C.3       6 UNK         0.0297 
     41 CB         25.4767  -28.7867  -43.2485 C.3       6 UNK        -0.2006 
     42 C          23.9409  -29.7780  -41.4531 C.2       6 UNK         0.4892 
     43 O          23.2431  -30.1850  -42.3815 O.2       6 UNK        -0.5089 
     44 N          23.6052  -29.9246  -40.1641 N.am      7 UNK        -0.4243 
     45 CA         22.3354  -30.4686  -39.6650 C.3       7 UNK         0.0196 
     46 CB         22.2833  -30.3002  -38.1383 C.3       7 UNK        -0.2007 
     47 C          22.0575  -31.9317  -40.0549 C.2       7 UNK         0.5020 
     48 O          20.8990  -32.3450  -40.0586 O.2       7 UNK        -0.5147 
     49 N          23.1113  -32.6915  -40.3786 N.am      8 UNK        -0.4734 
     50 CA         23.0114  -34.0568  -40.8987 C.3       8 UNK         0.0238 
     51 CB         24.3484  -34.7790  -40.6618 C.3       8 UNK        -0.1912 
     52 C          22.6276  -34.1143  -42.3900 C.2       8 UNK         0.5038 
     53 O          22.1963  -35.1740  -42.8459 O.2       8 UNK        -0.5046 
     54 N          22.8123  -33.0047  -43.1228 N.am      9 UNK        -0.4200 
     55 CA         22.6054  -32.8727  -44.5764 C.3       9 UNK         0.0839 
     56 C          23.5167  -33.7895  -45.4512 C.2       9 UNK         0.5513 
     57 N          24.6605  -34.2453  -44.9534 N.am      9 UNK        -0.7519 
     58 O          23.2064  -34.0695  -46.6066 O.2       9 UNK        -0.4960 
     59 C59        21.1046  -32.9315  -44.9805 C.3       10 UNK        -0.0876 
     60 S60        20.1607  -31.5283  -44.2975 S.3       10 UNK        -0.2414 
     61 C61        18.9026  -32.3753  -43.2984 C.3       10 UNK         0.0169 
     62 H62        15.5870  -23.8684  -47.6153 H         1 UNK         0.0903 
     63 H63        16.9055  -23.7782  -48.7846 H         1 UNK         0.0903 
     64 H64        15.4440  -24.6909  -49.1696 H         1 UNK         0.0903 
     65 H65        16.0071  -25.3003  -45.9506 H         1 UNK         0.3096 
     66 H66        16.8378  -27.9906  -46.3079 H         1 UNK         0.1121 
     67 H67        16.6326  -26.2083  -43.8287 H         1 UNK         0.0849 
     68 H68        17.1350  -27.8542  -43.7171 H         1 UNK         0.0849 
     69 H69        13.8625  -29.8402  -43.7874 H         1 UNK         0.0865 
     70 H70        14.9819  -29.8996  -45.1235 H         1 UNK         0.0865 
     71 H71        16.7705  -31.3418  -44.6239 H         1 UNK         0.1346 
     72 H72        18.8014  -31.1560  -40.8583 H         1 UNK         0.1412 
     73 H73        15.3119  -28.7558  -41.5275 H         1 UNK         0.1426 
     74 H74        17.0871  -30.0533  -38.9062 H         1 UNK         0.0716 
     75 H75        16.4594  -28.5250  -39.4748 H         1 UNK         0.0716 
     76 H76        18.6614  -26.2265  -40.1741 H         1 UNK         0.0695 
     77 H77        18.1090  -27.3599  -41.3710 H         1 UNK         0.0695 
     78 H78        20.6088  -28.1080  -41.6125 H         1 UNK         0.0983 
     79 H79        19.2571  -25.9224  -42.8522 H         1 UNK         0.3095 
     80 H80        20.7192  -24.6237  -44.7449 H         1 UNK         0.0454 
     81 H81        21.6117  -27.0219  -46.4297 H         1 UNK         0.0851 
     82 H82        22.6037  -25.6644  -45.9273 H         1 UNK         0.0851 
     83 H83        21.2864  -25.4075  -47.0595 H         1 UNK         0.0851 
     84 H84        18.6233  -25.0950  -45.2976 H         1 UNK         0.2976 
     85 H85        21.2470  -24.7108  -41.5806 H         1 UNK         0.3116 
     86 H86        22.5410  -24.3774  -39.0705 H         1 UNK         0.0646 
     87 H87        22.9658  -22.9247  -41.7398 H         1 UNK         0.0847 
     88 H88        23.5575  -22.3764  -40.1789 H         1 UNK         0.0847 
     89 H89        21.8289  -22.4612  -40.4726 H         1 UNK         0.0847 
     90 H90        24.2438  -25.4207  -38.3711 H         1 UNK         0.3040 
     91 H91        26.1497  -26.4529  -38.0620 H         1 UNK         0.1015 
     92 H92        27.1245  -25.4116  -40.7750 H         1 UNK         0.0786 
     93 H93        28.1171  -26.1265  -39.5171 H         1 UNK         0.0786 
     94 H94        27.3122  -24.5935  -39.2255 H         1 UNK         0.0786 
     95 H95        25.1916  -26.9813  -41.4604 H         1 UNK         0.3172 
     96 H96        26.0740  -29.7885  -41.4548 H         1 UNK         0.0595 
     97 H97        25.4195  -29.6986  -43.8445 H         1 UNK         0.0839 
     98 H98        26.4487  -28.3342  -43.4448 H         1 UNK         0.0839 
     99 H99        24.7080  -28.1066  -43.6185 H         1 UNK         0.0839 
    100 H100       24.2586  -29.5774  -39.4716 H         1 UNK         0.2998 
    101 H101       21.5346  -29.8694  -40.1018 H         1 UNK         0.0822 
    102 H102       21.3345  -30.6614  -37.7387 H         1 UNK         0.0787 
    103 H103       23.0817  -30.8539  -37.6428 H         1 UNK         0.0787 
    104 H104       22.3713  -29.2512  -37.8542 H         1 UNK         0.0787 
    105 H105       24.0320  -32.2798  -40.3290 H         1 UNK         0.3055 
    106 H106       22.2335  -34.5882  -40.3451 H         1 UNK         0.1106 
    107 H107       24.3036  -35.8099  -41.0163 H         1 UNK         0.0828 
    108 H108       25.1720  -34.2909  -41.1841 H         1 UNK         0.0828 
    109 H109       24.5971  -34.8152  -39.6010 H         1 UNK         0.0828 
    110 H110       23.1052  -32.1507  -42.6597 H         1 UNK         0.2931 
    111 H111       22.9546  -31.8671  -44.8145 H         1 UNK         0.0412 
    112 H112       24.9390  -34.0118  -44.0142 H         1 UNK         0.3472 
    113 H113       25.2503  -34.8287  -45.5260 H         1 UNK         0.3472 
    114 H114       20.9919  -32.8796  -46.0647 H         1 UNK         0.0970 
    115 H115       20.6587  -33.8801  -44.6786 H         1 UNK         0.0970 
    116 H116       19.3879  -32.8937  -42.4696 H         1 UNK         0.0612 
    117 H117       18.4061  -33.1373  -43.9010 H         1 UNK         0.0612 
@<TRIPOS>BOND
     1    1    2 1    
     2    1   62 1    
     3    1   63 1    
     4    1   64 1    
     5    2    3 2    
     6    2    4 am   BACKBONE|DICT|INTERRES
     7    4    5 1    
     8    4   65 1    
     9    5    6 1    
    10    5   25 1    
    11    5   66 1    
    12    6    7 1    
    13    6   67 1    
    14    6   68 1    
    15    7    8 1    
    16    8    9 1    
    17    8   69 1    
    18    8   70 1    
    19    9   10 ar   
    20    9   14 ar   
    21   10   11 ar   
    22   10   71 1    
    23   11   12 ar   
    24   11   61 1    
    25   12   13 ar   
    26   12   72 1    
    27   13   14 ar   
    28   13   15 1    
    29   14   73 1    
    30   15   16 1    
    31   15   74 1    
    32   15   75 1    
    33   16   17 1    
    34   17   18 1    
    35   17   76 1    
    36   17   77 1    
    37   18   19 1    
    38   18   27 1    
    39   18   78 1    
    40   19   20 am   BACKBONE|DICT|INTERRES
    41   19   79 1    
    42   20   21 2    
    43   20   22 1    
    44   22   23 1    
    45   22   24 1    
    46   22   80 1    
    47   23   81 1    
    48   23   82 1    
    49   23   83 1    
    50   24   25 am   BACKBONE|DICT|INTERRES
    51   24   84 1    
    52   25   26 2    
    53   27   28 2    
    54   27   29 am   BACKBONE|DICT|INTERRES
    55   29   30 1    
    56   29   85 1    
    57   30   31 1    
    58   30   32 1    
    59   30   86 1    
    60   31   87 1    
    61   31   88 1    
    62   31   89 1    
    63   32   33 2    
    64   32   34 am   BACKBONE|DICT|INTERRES
    65   34   35 1    
    66   34   90 1    
    67   35   36 1    
    68   35   37 1    
    69   35   91 1    
    70   36   92 1    
    71   36   93 1    
    72   36   94 1    
    73   37   38 2    
    74   37   39 am   BACKBONE|DICT|INTERRES
    75   39   40 1    
    76   39   95 1    
    77   40   41 1    
    78   40   42 1    
    79   40   96 1    
    80   41   97 1    
    81   41   98 1    
    82   41   99 1    
    83   42   43 2    
    84   42   44 am   BACKBONE|DICT|INTERRES
    85   44   45 1    
    86   44  100 1    
    87   45   46 1    
    88   45   47 1    
    89   45  101 1    
    90   46  102 1    
    91   46  103 1    
    92   46  104 1    
    93   47   48 2    
    94   47   49 am   BACKBONE|DICT|INTERRES
    95   49   50 1    
    96   49  105 1    
    97   50   51 1    
    98   50   52 1    
    99   50  106 1    
   100   51  107 1    
   101   51  108 1    
   102   51  109 1    
   103   52   53 2    
   104   52   54 am   BACKBONE|DICT|INTERRES
   105   54   55 1    
   106   54  110 1    
   107   55   56 1    
   108   55   59 1    
   109   55  111 1    
   110   56   57 am   BACKBONE|DICT|INTERRES
   111   56   58 2    
   112   57  112 1    
   113   57  113 1    
   114   59   60 1    
   115   59  114 1    
   116   59  115 1    
   117   60   61 1    
   118   61  116 1    
   119   61  117 1    
@<TRIPOS>SUBSTRUCTURE
     1 UNK         1 GROUP             0       ****    0 ROOT    
