@<TRIPOS>MOLECULE
3R8
117   119    1
SMALL
USER_CHARGES


@<TRIPOS>ATOM
      1 CA         18.6822  -27.5730  -49.5604 C.3       0 UNK        -0.2013 
      2 C          19.1619  -27.8244  -48.1388 C.2       0 UNK         0.4866 
      3 O          20.3535  -28.0500  -47.9279 O.2       0 UNK        -0.5176 
      4 N          18.2399  -27.7951  -47.1682 N.am      1 UNK        -0.4884 
      5 CA         18.5015  -27.9934  -45.7375 C.3       1 UNK         0.0853 
      6 C6         17.1876  -28.1123  -44.9220 C.3       10 UNK        -0.0849 
      7 S7         16.0498  -29.3834  -45.5761 S.3       10 UNK        -0.2776 
      8 C8         15.0642  -29.8085  -44.1073 C.3       10 UNK         0.0316 
      9 C9         15.8683  -30.6335  -43.1157 C.ar      10 UNK        -0.0863 
     10 C10        16.1373  -31.9800  -43.3805 C.ar      10 UNK        -0.1009 
     11 C11        16.8889  -32.7413  -42.4813 C.ar      10 UNK        -0.0712 
     12 C12        17.3637  -32.1494  -41.3081 C.ar      10 UNK        -0.0894 
     13 C13        17.0977  -30.8057  -41.0324 C.ar      10 UNK        -0.0745 
     14 C14        16.3429  -30.0533  -41.9357 C.ar      10 UNK        -0.0972 
     15 C15        17.6334  -30.1747  -39.7585 C.3       10 UNK         0.0209 
     16 S16        19.3558  -29.6355  -39.9701 S.3       10 UNK        -0.2568 
     17 C17        19.1324  -27.9737  -40.6988 C.3       10 UNK        -0.0983 
     18 CA         20.4397  -27.3669  -41.2722 C.3       3 UNK         0.0876 
     19 N          20.2501  -25.9919  -41.7348 N.am      3 UNK        -0.4424 
     20 C          20.8175  -25.3776  -42.7854 C.2       2 UNK         0.4918 
     21 O          20.8187  -24.1509  -42.8655 O.2       2 UNK        -0.4875 
     22 CA         21.4133  -26.1806  -43.9650 C.3       2 UNK         0.0481 
     23 CB         22.7883  -26.8033  -43.6669 C.3       2 UNK        -0.1831 
     24 N          20.4893  -27.1678  -44.5334 N.am      2 UNK        -0.4498 
     25 C          19.3666  -26.8414  -45.1897 C.2       1 UNK         0.5027 
     26 O          18.9960  -25.6797  -45.3805 O.2       1 UNK        -0.4969 
     27 C          21.6018  -27.3390  -40.2634 C.2       3 UNK         0.5005 
     28 O          22.7090  -27.7456  -40.6135 O.2       3 UNK        -0.5279 
     29 N          21.3473  -26.8219  -39.0510 N.am      4 UNK        -0.4463 
     30 CA         22.2446  -26.8411  -37.8848 C.3       4 UNK         0.0283 
     31 CB         21.5367  -26.1608  -36.7017 C.3       4 UNK        -0.1875 
     32 C          23.6470  -26.2333  -38.0864 C.2       4 UNK         0.4949 
     33 O          24.5471  -26.5362  -37.3034 O.2       4 UNK        -0.5039 
     34 N          23.8207  -25.4155  -39.1328 N.am      5 UNK        -0.4663 
     35 CA         25.1095  -24.8808  -39.5776 C.3       5 UNK         0.0242 
     36 CB         24.8603  -23.8147  -40.6571 C.3       5 UNK        -0.1982 
     37 C          26.0833  -25.9561  -40.1017 C.2       5 UNK         0.5017 
     38 O          27.2930  -25.7291  -40.0528 O.2       5 UNK        -0.5012 
     39 N          25.5550  -27.0866  -40.5944 N.am      6 UNK        -0.4439 
     40 CA         26.3389  -28.2014  -41.1413 C.3       6 UNK         0.0297 
     41 CB         26.3933  -28.0716  -42.6745 C.3       6 UNK        -0.2006 
     42 C          25.8124  -29.5910  -40.7375 C.2       6 UNK         0.4892 
     43 O          26.5282  -30.5711  -40.9451 O.2       6 UNK        -0.5089 
     44 N          24.5805  -29.6639  -40.2091 N.am      7 UNK        -0.4243 
     45 CA         23.7719  -30.8664  -39.9686 C.3       7 UNK         0.0196 
     46 CB         24.4178  -31.7827  -38.9077 C.3       7 UNK        -0.2007 
     47 C          23.4231  -31.5949  -41.2828 C.2       7 UNK         0.5020 
     48 O          23.3789  -32.8259  -41.3136 O.2       7 UNK        -0.5147 
     49 N          23.2066  -30.8162  -42.3519 N.am      8 UNK        -0.4734 
     50 CA         22.9704  -31.3049  -43.7077 C.3       8 UNK         0.0238 
     51 CB         23.8781  -30.5390  -44.6854 C.3       8 UNK        -0.1912 
     52 C          21.4965  -31.1242  -44.0869 C.2       8 UNK         0.5038 
     53 O          20.9923  -29.9968  -44.0545 O.2       8 UNK        -0.5046 
     54 N          20.8586  -32.2359  -44.4663 N.am      9 UNK        -0.4200 
     55 CA         19.5116  -32.2892  -45.0475 C.3       9 UNK         0.0839 
     56 C          19.5057  -31.7993  -46.5213 C.2       9 UNK         0.5513 
     57 N          18.3777  -31.3048  -47.0072 N.am      9 UNK        -0.7519 
     58 O          20.4928  -31.9183  -47.2446 O.2       9 UNK        -0.4960 
     59 C59        18.9127  -33.7203  -44.9692 C.3       10 UNK        -0.0876 
     60 S60        18.9221  -34.4353  -43.2888 S.3       10 UNK        -0.2414 
     61 C61        17.1938  -34.2024  -42.7701 C.3       10 UNK         0.0169 
     62 H62        19.1759  -26.6933  -49.9726 H         1 UNK         0.0903 
     63 H63        18.9223  -28.4267  -50.1936 H         1 UNK         0.0903 
     64 H64        17.6055  -27.4101  -49.6054 H         1 UNK         0.0903 
     65 H65        17.2761  -27.6051  -47.4027 H         1 UNK         0.3096 
     66 H66        19.0594  -28.9252  -45.6303 H         1 UNK         0.1121 
     67 H67        16.6507  -27.1614  -44.9073 H         1 UNK         0.0849 
     68 H68        17.4251  -28.3449  -43.8834 H         1 UNK         0.0849 
     69 H69        14.6839  -28.8962  -43.6448 H         1 UNK         0.0865 
     70 H70        14.1881  -30.3776  -44.4219 H         1 UNK         0.0865 
     71 H71        15.7698  -32.4297  -44.2929 H         1 UNK         0.1346 
     72 H72        17.9539  -32.7335  -40.6149 H         1 UNK         0.1412 
     73 H73        16.1339  -29.0135  -41.7243 H         1 UNK         0.1426 
     74 H74        17.5904  -30.9011  -38.9456 H         1 UNK         0.0716 
     75 H75        17.0127  -29.3329  -39.4475 H         1 UNK         0.0716 
     76 H76        18.6919  -27.3224  -39.9421 H         1 UNK         0.0695 
     77 H77        18.3961  -28.0439  -41.4998 H         1 UNK         0.0695 
     78 H78        20.7453  -28.0178  -42.0891 H         1 UNK         0.0983 
     79 H79        19.8022  -25.3869  -41.0629 H         1 UNK         0.3095 
     80 H80        21.5966  -25.4448  -44.7515 H         1 UNK         0.0454 
     81 H81        23.3512  -26.9476  -44.5890 H         1 UNK         0.0851 
     82 H82        22.7127  -27.7752  -43.1852 H         1 UNK         0.0851 
     83 H83        23.3894  -26.1585  -43.0245 H         1 UNK         0.0851 
     84 H84        20.7221  -28.1513  -44.4101 H         1 UNK         0.2976 
     85 H85        20.4108  -26.4927  -38.8682 H         1 UNK         0.3116 
     86 H86        22.3984  -27.8909  -37.6267 H         1 UNK         0.0646 
     87 H87        20.6011  -26.6625  -36.4540 H         1 UNK         0.0847 
     88 H88        21.3136  -25.1143  -36.9132 H         1 UNK         0.0847 
     89 H89        22.1584  -26.1853  -35.8053 H         1 UNK         0.0847 
     90 H90        23.0197  -25.2202  -39.7148 H         1 UNK         0.3040 
     91 H91        25.5881  -24.4005  -38.7211 H         1 UNK         0.1015 
     92 H92        25.7996  -23.3750  -40.9958 H         1 UNK         0.0786 
     93 H93        24.2432  -23.0005  -40.2765 H         1 UNK         0.0786 
     94 H94        24.3624  -24.2334  -41.5327 H         1 UNK         0.0786 
     95 H95        24.5432  -27.1782  -40.6041 H         1 UNK         0.3172 
     96 H96        27.3604  -28.1514  -40.7585 H         1 UNK         0.0595 
     97 H97        25.3991  -28.1242  -43.1180 H         1 UNK         0.0839 
     98 H98        26.9893  -28.8716  -43.1160 H         1 UNK         0.0839 
     99 H99        26.8466  -27.1276  -42.9771 H         1 UNK         0.0839 
    100 H100       24.0410  -28.8049  -40.1458 H         1 UNK         0.2998 
    101 H101       22.8223  -30.5142  -39.5620 H         1 UNK         0.0822 
    102 H102       24.6552  -31.2301  -37.9987 H         1 UNK         0.0787 
    103 H103       23.7406  -32.5907  -38.6281 H         1 UNK         0.0787 
    104 H104       25.3366  -32.2431  -39.2715 H         1 UNK         0.0787 
    105 H105       23.1884  -29.8150  -42.2222 H         1 UNK         0.3055 
    106 H106       23.2327  -32.3634  -43.7762 H         1 UNK         0.1106 
    107 H107       23.6587  -29.4718  -44.6988 H         1 UNK         0.0828 
    108 H108       23.7484  -30.9074  -45.7040 H         1 UNK         0.0828 
    109 H109       24.9303  -30.6614  -44.4277 H         1 UNK         0.0828 
    110 H110       21.3586  -33.1120  -44.4588 H         1 UNK         0.2931 
    111 H111       18.8755  -31.6172  -44.4673 H         1 UNK         0.0412 
    112 H112       18.3537  -31.0100  -47.9699 H         1 UNK         0.3472 
    113 H113       17.5640  -31.1712  -46.4248 H         1 UNK         0.3472 
    114 H114       17.8911  -33.7255  -45.3534 H         1 UNK         0.0970 
    115 H115       19.4728  -34.3999  -45.6146 H         1 UNK         0.0970 
    116 H116       16.5225  -34.6018  -43.5319 H         1 UNK         0.0612 
    117 H117       17.0164  -34.7911  -41.8689 H         1 UNK         0.0612 
@<TRIPOS>BOND
     1    1    2 1    
     2    1   62 1    
     3    1   63 1    
     4    1   64 1    
     5    2    3 2    
     6    2    4 am   BACKBONE|DICT|INTERRES
     7    4    5 1    
     8    4   65 1    
     9    5    6 1    
    10    5   25 1    
    11    5   66 1    
    12    6    7 1    
    13    6   67 1    
    14    6   68 1    
    15    7    8 1    
    16    8    9 1    
    17    8   69 1    
    18    8   70 1    
    19    9   10 ar   
    20    9   14 ar   
    21   10   11 ar   
    22   10   71 1    
    23   11   12 ar   
    24   11   61 1    
    25   12   13 ar   
    26   12   72 1    
    27   13   14 ar   
    28   13   15 1    
    29   14   73 1    
    30   15   16 1    
    31   15   74 1    
    32   15   75 1    
    33   16   17 1    
    34   17   18 1    
    35   17   76 1    
    36   17   77 1    
    37   18   19 1    
    38   18   27 1    
    39   18   78 1    
    40   19   20 am   BACKBONE|DICT|INTERRES
    41   19   79 1    
    42   20   21 2    
    43   20   22 1    
    44   22   23 1    
    45   22   24 1    
    46   22   80 1    
    47   23   81 1    
    48   23   82 1    
    49   23   83 1    
    50   24   25 am   BACKBONE|DICT|INTERRES
    51   24   84 1    
    52   25   26 2    
    53   27   28 2    
    54   27   29 am   BACKBONE|DICT|INTERRES
    55   29   30 1    
    56   29   85 1    
    57   30   31 1    
    58   30   32 1    
    59   30   86 1    
    60   31   87 1    
    61   31   88 1    
    62   31   89 1    
    63   32   33 2    
    64   32   34 am   BACKBONE|DICT|INTERRES
    65   34   35 1    
    66   34   90 1    
    67   35   36 1    
    68   35   37 1    
    69   35   91 1    
    70   36   92 1    
    71   36   93 1    
    72   36   94 1    
    73   37   38 2    
    74   37   39 am   BACKBONE|DICT|INTERRES
    75   39   40 1    
    76   39   95 1    
    77   40   41 1    
    78   40   42 1    
    79   40   96 1    
    80   41   97 1    
    81   41   98 1    
    82   41   99 1    
    83   42   43 2    
    84   42   44 am   BACKBONE|DICT|INTERRES
    85   44   45 1    
    86   44  100 1    
    87   45   46 1    
    88   45   47 1    
    89   45  101 1    
    90   46  102 1    
    91   46  103 1    
    92   46  104 1    
    93   47   48 2    
    94   47   49 am   BACKBONE|DICT|INTERRES
    95   49   50 1    
    96   49  105 1    
    97   50   51 1    
    98   50   52 1    
    99   50  106 1    
   100   51  107 1    
   101   51  108 1    
   102   51  109 1    
   103   52   53 2    
   104   52   54 am   BACKBONE|DICT|INTERRES
   105   54   55 1    
   106   54  110 1    
   107   55   56 1    
   108   55   59 1    
   109   55  111 1    
   110   56   57 am   BACKBONE|DICT|INTERRES
   111   56   58 2    
   112   57  112 1    
   113   57  113 1    
   114   59   60 1    
   115   59  114 1    
   116   59  115 1    
   117   60   61 1    
   118   61  116 1    
   119   61  117 1    
@<TRIPOS>SUBSTRUCTURE
     1 UNK         1 GROUP             0       ****    0 ROOT    
