@<TRIPOS>MOLECULE
3R8
117   119    1
SMALL
USER_CHARGES


@<TRIPOS>ATOM
      1 CA         19.8327  -22.5452  -47.4215 C.3       0 UNK        -0.2013 
      2 C          19.6826  -23.7206  -46.4679 C.2       0 UNK         0.4866 
      3 O          18.5612  -24.1543  -46.2058 O.2       0 UNK        -0.5176 
      4 N          20.8025  -24.2207  -45.9253 N.am      1 UNK        -0.4884 
      5 CA         20.9556  -25.3947  -45.0426 C.3       1 UNK         0.0853 
      6 C6         20.3782  -26.7125  -45.6352 C.3       10 UNK        -0.0849 
      7 S7         20.8962  -27.1097  -47.3382 S.3       10 UNK        -0.2776 
      8 C8         20.9943  -28.9386  -47.3352 C.3       10 UNK         0.0316 
      9 C9         19.9377  -29.6465  -46.4841 C.ar      10 UNK        -0.0863 
     10 C10        20.3389  -30.6351  -45.5796 C.ar      10 UNK        -0.1009 
     11 C11        19.4001  -31.3064  -44.7936 C.ar      10 UNK        -0.0712 
     12 C12        18.0477  -30.9828  -44.9122 C.ar      10 UNK        -0.0894 
     13 C13        17.6251  -29.9814  -45.7952 C.ar      10 UNK        -0.0745 
     14 C14        18.5759  -29.3337  -46.5947 C.ar      10 UNK        -0.0972 
     15 C15        16.1491  -29.5927  -45.8917 C.3       10 UNK         0.0209 
     16 S16        15.2780  -29.5759  -44.2797 S.3       10 UNK        -0.2568 
     17 C17        15.7219  -27.9533  -43.5650 C.3       10 UNK        -0.0983 
     18 CA         17.1930  -27.8425  -43.0831 C.3       3 UNK         0.0876 
     19 N          17.6744  -26.4604  -43.0987 N.am      3 UNK        -0.4424 
     20 C          17.5252  -25.4973  -42.1765 C.2       2 UNK         0.4918 
     21 O          16.7634  -25.5764  -41.2131 O.2       2 UNK        -0.4875 
     22 CA         18.4186  -24.2441  -42.3439 C.3       2 UNK         0.0481 
     23 CB         19.1399  -23.8825  -41.0293 C.3       2 UNK        -0.1831 
     24 N          19.3757  -24.3475  -43.4600 N.am      2 UNK        -0.4498 
     25 C          20.3725  -25.2323  -43.6212 C.2       1 UNK         0.5027 
     26 O          20.7369  -26.0119  -42.7374 O.2       1 UNK        -0.4969 
     27 C          17.5335  -28.5769  -41.7630 C.2       3 UNK         0.5005 
     28 O          16.7089  -29.3256  -41.2348 O.2       3 UNK        -0.5279 
     29 N          18.7438  -28.3166  -41.2409 N.am      4 UNK        -0.4463 
     30 CA         19.2337  -28.8289  -39.9599 C.3       4 UNK         0.0283 
     31 CB         18.4444  -28.2150  -38.7841 C.3       4 UNK        -0.1875 
     32 C          20.7324  -28.5738  -39.7491 C.2       4 UNK         0.4949 
     33 O          21.3779  -29.3879  -39.0915 O.2       4 UNK        -0.5039 
     34 N          21.2616  -27.4438  -40.2437 N.am      5 UNK        -0.4663 
     35 CA         22.6263  -27.0009  -39.9414 C.3       5 UNK         0.0242 
     36 CB         22.7023  -25.4670  -40.0184 C.3       5 UNK        -0.1982 
     37 C          23.6881  -27.6380  -40.8477 C.2       5 UNK         0.5017 
     38 O          24.7897  -27.9062  -40.3665 O.2       5 UNK        -0.5012 
     39 N          23.3503  -27.8575  -42.1280 N.am      6 UNK        -0.4439 
     40 CA         24.2277  -28.4054  -43.1724 C.3       6 UNK         0.0297 
     41 CB         23.4554  -28.4818  -44.4984 C.3       6 UNK        -0.2006 
     42 C          24.8093  -29.7804  -42.8011 C.2       6 UNK         0.4892 
     43 O          24.1045  -30.7849  -42.9076 O.2       6 UNK        -0.5089 
     44 N          26.0608  -29.7824  -42.3139 N.am      7 UNK        -0.4243 
     45 CA         26.7941  -30.9271  -41.7485 C.3       7 UNK         0.0196 
     46 CB         27.1710  -31.9267  -42.8626 C.3       7 UNK        -0.2007 
     47 C          26.0518  -31.6051  -40.5755 C.2       7 UNK         0.5020 
     48 O          26.1783  -32.8166  -40.3865 O.2       7 UNK        -0.5147 
     49 N          25.2316  -30.8218  -39.8545 N.am      8 UNK        -0.4734 
     50 CA         24.2492  -31.2433  -38.8441 C.3       8 UNK         0.0238 
     51 CB         24.9674  -31.7620  -37.5803 C.3       8 UNK        -0.1912 
     52 C          23.1944  -32.2471  -39.3700 C.2       8 UNK         0.5038 
     53 O          22.5707  -32.9409  -38.5642 O.2       8 UNK        -0.5046 
     54 N          23.0427  -32.3399  -40.7008 N.am      9 UNK        -0.4200 
     55 CA         22.3057  -33.3826  -41.4303 C.3       9 UNK         0.0839 
     56 C          22.8177  -34.8328  -41.1642 C.2       9 UNK         0.5513 
     57 N          24.0774  -35.0242  -40.7857 N.am      9 UNK        -0.7519 
     58 O          22.0819  -35.8022  -41.3322 O.2       9 UNK        -0.4960 
     59 C59        20.7634  -33.2200  -41.3241 C.3       10 UNK        -0.0876 
     60 S60        20.1901  -31.7096  -42.1738 S.3       10 UNK        -0.2414 
     61 C61        19.8443  -32.3900  -43.8248 C.3       10 UNK         0.0169 
     62 H62        19.4237  -22.8029  -48.3981 H         1 UNK         0.0903 
     63 H63        19.2887  -21.6809  -47.0414 H         1 UNK         0.0903 
     64 H64        20.8755  -22.2584  -47.5562 H         1 UNK         0.0903 
     65 H65        21.6785  -23.7796  -46.1715 H         1 UNK         0.3096 
     66 H66        22.0304  -25.5203  -44.9103 H         1 UNK         0.1121 
     67 H67        19.2876  -26.6827  -45.6458 H         1 UNK         0.0849 
     68 H68        20.6478  -27.5493  -44.9888 H         1 UNK         0.0849 
     69 H69        20.9089  -29.2930  -48.3631 H         1 UNK         0.0865 
     70 H70        21.9959  -29.2176  -47.0056 H         1 UNK         0.0865 
     71 H71        21.3856  -30.8913  -45.4854 H         1 UNK         0.1346 
     72 H72        17.3253  -31.5041  -44.2992 H         1 UNK         0.1412 
     73 H73        18.2617  -28.5690  -47.2923 H         1 UNK         0.1426 
     74 H74        16.0351  -28.6170  -46.3666 H         1 UNK         0.0716 
     75 H75        15.6519  -30.3122  -46.5433 H         1 UNK         0.0716 
     76 H76        15.0354  -27.7264  -42.7475 H         1 UNK         0.0695 
     77 H77        15.5224  -27.2026  -44.3315 H         1 UNK         0.0695 
     78 H78        17.8221  -28.3299  -43.8231 H         1 UNK         0.0983 
     79 H79        18.2884  -26.2347  -43.8653 H         1 UNK         0.3095 
     80 H80        17.7489  -23.4209  -42.5960 H         1 UNK         0.0454 
     81 H81        19.7535  -24.7031  -40.6594 H         1 UNK         0.0851 
     82 H82        18.4215  -23.6415  -40.2449 H         1 UNK         0.0851 
     83 H83        19.7836  -23.0123  -41.1552 H         1 UNK         0.0851 
     84 H84        19.1066  -23.8429  -44.2989 H         1 UNK         0.2976 
     85 H85        19.3773  -27.7290  -41.7655 H         1 UNK         0.3116 
     86 H86        19.0871  -29.9109  -39.9506 H         1 UNK         0.0646 
     87 H87        17.3968  -28.5142  -38.7978 H         1 UNK         0.0847 
     88 H88        18.8522  -28.5389  -37.8254 H         1 UNK         0.0847 
     89 H89        18.4797  -27.1250  -38.8034 H         1 UNK         0.0847 
     90 H90        20.7094  -26.8140  -40.8112 H         1 UNK         0.3040 
     91 H91        22.8676  -27.2864  -38.9143 H         1 UNK         0.1015 
     92 H92        22.4981  -25.0950  -41.0224 H         1 UNK         0.0786 
     93 H93        23.6963  -25.1139  -39.7400 H         1 UNK         0.0786 
     94 H94        21.9927  -24.9997  -39.3355 H         1 UNK         0.0786 
     95 H95        22.4161  -27.5914  -42.4090 H         1 UNK         0.3172 
     96 H96        25.0566  -27.7080  -43.3096 H         1 UNK         0.0595 
     97 H97        22.5263  -29.0408  -44.3872 H         1 UNK         0.0839 
     98 H98        24.0453  -28.9805  -45.2688 H         1 UNK         0.0839 
     99 H99        23.2160  -27.4904  -44.8765 H         1 UNK         0.0839 
    100 H100       26.5239  -28.8881  -42.2212 H         1 UNK         0.2998 
    101 H101       27.7192  -30.5277  -41.3304 H         1 UNK         0.0822 
    102 H102       27.8254  -32.7115  -42.4811 H         1 UNK         0.0787 
    103 H103       26.2902  -32.4138  -43.2826 H         1 UNK         0.0787 
    104 H104       27.7013  -31.4326  -43.6765 H         1 UNK         0.0787 
    105 H105       25.1961  -29.8351  -40.0990 H         1 UNK         0.3055 
    106 H106       23.6996  -30.3448  -38.5633 H         1 UNK         0.1106 
    107 H107       24.2584  -31.9353  -36.7699 H         1 UNK         0.0828 
    108 H108       25.4836  -32.7043  -37.7663 H         1 UNK         0.0828 
    109 H109       25.7010  -31.0426  -37.2168 H         1 UNK         0.0828 
    110 H110       23.5736  -31.7133  -41.2981 H         1 UNK         0.2931 
    111 H111       22.5668  -33.2199  -42.4765 H         1 UNK         0.0412 
    112 H112       24.4064  -35.9630  -40.6258 H         1 UNK         0.3472 
    113 H113       24.7071  -34.2396  -40.6547 H         1 UNK         0.3472 
    114 H114       20.4515  -33.1807  -40.2796 H         1 UNK         0.0970 
    115 H115       20.2410  -34.0740  -41.7580 H         1 UNK         0.0970 
    116 H116       20.7381  -32.8864  -44.2057 H         1 UNK         0.0612 
    117 H117       19.0733  -33.1580  -43.7459 H         1 UNK         0.0612 
@<TRIPOS>BOND
     1    1    2 1    
     2    1   62 1    
     3    1   63 1    
     4    1   64 1    
     5    2    3 2    
     6    2    4 am   BACKBONE|DICT|INTERRES
     7    4    5 1    
     8    4   65 1    
     9    5    6 1    
    10    5   25 1    
    11    5   66 1    
    12    6    7 1    
    13    6   67 1    
    14    6   68 1    
    15    7    8 1    
    16    8    9 1    
    17    8   69 1    
    18    8   70 1    
    19    9   10 ar   
    20    9   14 ar   
    21   10   11 ar   
    22   10   71 1    
    23   11   12 ar   
    24   11   61 1    
    25   12   13 ar   
    26   12   72 1    
    27   13   14 ar   
    28   13   15 1    
    29   14   73 1    
    30   15   16 1    
    31   15   74 1    
    32   15   75 1    
    33   16   17 1    
    34   17   18 1    
    35   17   76 1    
    36   17   77 1    
    37   18   19 1    
    38   18   27 1    
    39   18   78 1    
    40   19   20 am   BACKBONE|DICT|INTERRES
    41   19   79 1    
    42   20   21 2    
    43   20   22 1    
    44   22   23 1    
    45   22   24 1    
    46   22   80 1    
    47   23   81 1    
    48   23   82 1    
    49   23   83 1    
    50   24   25 am   BACKBONE|DICT|INTERRES
    51   24   84 1    
    52   25   26 2    
    53   27   28 2    
    54   27   29 am   BACKBONE|DICT|INTERRES
    55   29   30 1    
    56   29   85 1    
    57   30   31 1    
    58   30   32 1    
    59   30   86 1    
    60   31   87 1    
    61   31   88 1    
    62   31   89 1    
    63   32   33 2    
    64   32   34 am   BACKBONE|DICT|INTERRES
    65   34   35 1    
    66   34   90 1    
    67   35   36 1    
    68   35   37 1    
    69   35   91 1    
    70   36   92 1    
    71   36   93 1    
    72   36   94 1    
    73   37   38 2    
    74   37   39 am   BACKBONE|DICT|INTERRES
    75   39   40 1    
    76   39   95 1    
    77   40   41 1    
    78   40   42 1    
    79   40   96 1    
    80   41   97 1    
    81   41   98 1    
    82   41   99 1    
    83   42   43 2    
    84   42   44 am   BACKBONE|DICT|INTERRES
    85   44   45 1    
    86   44  100 1    
    87   45   46 1    
    88   45   47 1    
    89   45  101 1    
    90   46  102 1    
    91   46  103 1    
    92   46  104 1    
    93   47   48 2    
    94   47   49 am   BACKBONE|DICT|INTERRES
    95   49   50 1    
    96   49  105 1    
    97   50   51 1    
    98   50   52 1    
    99   50  106 1    
   100   51  107 1    
   101   51  108 1    
   102   51  109 1    
   103   52   53 2    
   104   52   54 am   BACKBONE|DICT|INTERRES
   105   54   55 1    
   106   54  110 1    
   107   55   56 1    
   108   55   59 1    
   109   55  111 1    
   110   56   57 am   BACKBONE|DICT|INTERRES
   111   56   58 2    
   112   57  112 1    
   113   57  113 1    
   114   59   60 1    
   115   59  114 1    
   116   59  115 1    
   117   60   61 1    
   118   61  116 1    
   119   61  117 1    
@<TRIPOS>SUBSTRUCTURE
     1 UNK         1 GROUP             0       ****    0 ROOT    
