@<TRIPOS>MOLECULE
3R8
117   119    1
SMALL
USER_CHARGES


@<TRIPOS>ATOM
      1 CA         17.8071  -26.2072  -47.2816 C.3       0 UNK        -0.2013 
      2 C          18.9462  -26.4454  -48.2723 C.2       0 UNK         0.4866 
      3 O          18.8115  -26.0557  -49.4312 O.2       0 UNK        -0.5176 
      4 N          20.0724  -27.0799  -47.9060 N.am      1 UNK        -0.4884 
      5 CA         20.5011  -27.5822  -46.5862 C.3       1 UNK         0.0853 
      6 C6         19.5021  -28.5582  -45.8894 C.3       10 UNK        -0.0849 
      7 S7         18.6960  -29.7753  -46.9931 S.3       10 UNK        -0.2776 
      8 C8         18.3442  -31.1902  -45.8883 C.3       10 UNK         0.0316 
      9 C9         17.7809  -30.8300  -44.5135 C.ar      10 UNK        -0.0863 
     10 C10        18.1628  -31.5960  -43.4099 C.ar      10 UNK        -0.1009 
     11 C11        17.7011  -31.2883  -42.1274 C.ar      10 UNK        -0.0712 
     12 C12        16.8367  -30.2056  -41.9490 C.ar      10 UNK        -0.0894 
     13 C13        16.4398  -29.4327  -43.0438 C.ar      10 UNK        -0.0745 
     14 C14        16.8926  -29.7647  -44.3246 C.ar      10 UNK        -0.0972 
     15 C15        15.5380  -28.2251  -42.8486 C.3       10 UNK         0.0209 
     16 S16        16.5065  -26.6834  -42.8023 S.3       10 UNK        -0.2568 
     17 C17        17.1834  -26.6925  -41.1042 C.3       10 UNK        -0.0983 
     18 CA         18.6549  -27.1754  -41.0186 C.3       3 UNK         0.0876 
     19 N          19.5321  -26.4603  -41.9477 N.am      3 UNK        -0.4424 
     20 C          20.8270  -26.7241  -42.1593 C.2       2 UNK         0.4918 
     21 O          21.4614  -27.6067  -41.5762 O.2       2 UNK        -0.4875 
     22 CA         21.4847  -25.9232  -43.2857 C.3       2 UNK         0.0481 
     23 CB         22.9371  -25.5252  -42.9821 C.3       2 UNK        -0.1831 
     24 N          21.4262  -26.7862  -44.4597 N.am      2 UNK        -0.4498 
     25 C          20.8904  -26.4295  -45.6304 C.2       1 UNK         0.5027 
     26 O          20.6590  -25.2560  -45.9342 O.2       1 UNK        -0.4969 
     27 C          19.1884  -27.0653  -39.5761 C.2       3 UNK         0.5005 
     28 O          19.2775  -25.9538  -39.0493 O.2       3 UNK        -0.5279 
     29 N          19.5671  -28.2121  -38.9929 N.am      4 UNK        -0.4463 
     30 CA         20.2210  -28.3746  -37.6875 C.3       4 UNK         0.0283 
     31 CB         19.2778  -27.9530  -36.5406 C.3       4 UNK        -0.1875 
     32 C          21.6100  -27.7050  -37.5944 C.2       4 UNK         0.4949 
     33 O          22.0547  -27.3876  -36.4902 O.2       4 UNK        -0.5039 
     34 N          22.2812  -27.5145  -38.7389 N.am      5 UNK        -0.4663 
     35 CA         23.5780  -26.8452  -38.8520 C.3       5 UNK         0.0242 
     36 CB         23.3608  -25.3606  -39.1966 C.3       5 UNK        -0.1982 
     37 C          24.5010  -27.5939  -39.8282 C.2       5 UNK         0.5017 
     38 O          25.1889  -26.9747  -40.6410 O.2       5 UNK        -0.5012 
     39 N          24.5121  -28.9271  -39.6985 N.am      6 UNK        -0.4439 
     40 CA         25.4213  -29.9120  -40.3001 C.3       6 UNK         0.0297 
     41 CB         26.8824  -29.6475  -39.8872 C.3       6 UNK        -0.2006 
     42 C          25.3208  -30.1199  -41.8218 C.2       6 UNK         0.4892 
     43 O          25.4075  -31.2714  -42.2507 O.2       6 UNK        -0.5089 
     44 N          25.1637  -29.0536  -42.6191 N.am      7 UNK        -0.4243 
     45 CA         25.1131  -29.1343  -44.0850 C.3       7 UNK         0.0196 
     46 CB         25.2208  -27.7373  -44.7157 C.3       7 UNK        -0.2007 
     47 C          23.8442  -29.8685  -44.5446 C.2       7 UNK         0.5020 
     48 O          22.7397  -29.3446  -44.3818 O.2       7 UNK        -0.5147 
     49 N          24.0293  -31.1038  -45.0285 N.am      8 UNK        -0.4734 
     50 CA         23.0258  -32.1158  -45.3964 C.3       8 UNK         0.0238 
     51 CB         22.1026  -31.6099  -46.5205 C.3       8 UNK        -0.1912 
     52 C          22.2184  -32.6873  -44.2111 C.2       8 UNK         0.5038 
     53 O          21.8130  -33.8482  -44.2749 O.2       8 UNK        -0.5046 
     54 N          22.0118  -31.8891  -43.1580 N.am      9 UNK        -0.4200 
     55 CA         21.3582  -32.2752  -41.9012 C.3       9 UNK         0.0839 
     56 C          22.2325  -33.1553  -40.9609 C.2       9 UNK         0.5513 
     57 N          23.5528  -33.1703  -41.0933 N.am      9 UNK        -0.7519 
     58 O          21.7021  -33.8657  -40.1116 O.2       9 UNK        -0.4960 
     59 C59        20.7832  -31.0177  -41.1947 C.3       10 UNK        -0.0876 
     60 S60        19.4653  -31.3402  -39.9690 S.3       10 UNK        -0.2414 
     61 C61        18.1371  -32.1292  -40.9375 C.3       10 UNK         0.0169 
     62 H62        18.1604  -25.8865  -46.3043 H         1 UNK         0.0903 
     63 H63        17.1434  -25.4268  -47.6528 H         1 UNK         0.0903 
     64 H64        17.2145  -27.1130  -47.1602 H         1 UNK         0.0903 
     65 H65        20.7765  -27.1913  -48.6217 H         1 UNK         0.3096 
     66 H66        21.4205  -28.1390  -46.7771 H         1 UNK         0.1121 
     67 H67        20.0192  -29.1093  -45.1015 H         1 UNK         0.0849 
     68 H68        18.7155  -28.0023  -45.3786 H         1 UNK         0.0849 
     69 H69        17.6389  -31.8542  -46.3893 H         1 UNK         0.0865 
     70 H70        19.2656  -31.7611  -45.7714 H         1 UNK         0.0865 
     71 H71        18.8281  -32.4354  -43.5530 H         1 UNK         0.1346 
     72 H72        16.4853  -29.9583  -40.9566 H         1 UNK         0.1412 
     73 H73        16.5766  -29.1692  -45.1700 H         1 UNK         0.1426 
     74 H74        14.9414  -28.3223  -41.9404 H         1 UNK         0.0716 
     75 H75        14.8264  -28.1670  -43.6736 H         1 UNK         0.0716 
     76 H76        16.5454  -27.3055  -40.4652 H         1 UNK         0.0695 
     77 H77        17.0968  -25.6736  -40.7215 H         1 UNK         0.0695 
     78 H78        18.6817  -28.2245  -41.3183 H         1 UNK         0.0983 
     79 H79        19.0863  -25.7341  -42.4885 H         1 UNK         0.3095 
     80 H80        20.9105  -25.0075  -43.4438 H         1 UNK         0.0454 
     81 H81        23.5279  -26.3688  -42.6277 H         1 UNK         0.0851 
     82 H82        22.9750  -24.7509  -42.2179 H         1 UNK         0.0851 
     83 H83        23.4265  -25.1140  -43.8646 H         1 UNK         0.0851 
     84 H84        21.6723  -27.7617  -44.2952 H         1 UNK         0.2976 
     85 H85        19.4589  -29.0734  -39.5154 H         1 UNK         0.3116 
     86 H86        20.4040  -29.4445  -37.5785 H         1 UNK         0.0646 
     87 H87        18.3096  -28.4470  -36.6203 H         1 UNK         0.0847 
     88 H88        19.6964  -28.2215  -35.5699 H         1 UNK         0.0847 
     89 H89        19.1064  -26.8762  -36.5314 H         1 UNK         0.0847 
     90 H90        21.8501  -27.7779  -39.6213 H         1 UNK         0.3040 
     91 H91        24.0993  -26.8839  -37.8928 H         1 UNK         0.1015 
     92 H92        22.7133  -25.2462  -40.0630 H         1 UNK         0.0786 
     93 H93        24.3017  -24.8499  -39.4058 H         1 UNK         0.0786 
     94 H94        22.8877  -24.8355  -38.3667 H         1 UNK         0.0786 
     95 H95        23.8615  -29.3106  -39.0267 H         1 UNK         0.3172 
     96 H96        25.1336  -30.8636  -39.8498 H         1 UNK         0.0595 
     97 H97        27.2578  -28.7075  -40.2930 H         1 UNK         0.0839 
     98 H98        27.5389  -30.4398  -40.2499 H         1 UNK         0.0839 
     99 H99        26.9892  -29.6117  -38.8031 H         1 UNK         0.0839 
    100 H100       25.0975  -28.1389  -42.1826 H         1 UNK         0.2998 
    101 H101       25.9901  -29.7005  -44.4068 H         1 UNK         0.0822 
    102 H102       25.4503  -27.8169  -45.7788 H         1 UNK         0.0787 
    103 H103       24.2899  -27.1812  -44.6404 H         1 UNK         0.0787 
    104 H104       26.0119  -27.1445  -44.2562 H         1 UNK         0.0787 
    105 H105       24.9822  -31.4429  -45.0451 H         1 UNK         0.3055 
    106 H106       23.5937  -32.9563  -45.7993 H         1 UNK         0.1106 
    107 H107       22.6759  -31.2865  -47.3891 H         1 UNK         0.0828 
    108 H108       21.4271  -32.3982  -46.8548 H         1 UNK         0.0828 
    109 H109       21.4888  -30.7716  -46.1960 H         1 UNK         0.0828 
    110 H110       22.3473  -30.9355  -43.2280 H         1 UNK         0.2931 
    111 H111       20.5227  -32.9127  -42.1840 H         1 UNK         0.0412 
    112 H112       24.0937  -33.7653  -40.4865 H         1 UNK         0.3472 
    113 H113       24.0306  -32.5731  -41.7594 H         1 UNK         0.3472 
    114 H114       21.5844  -30.4600  -40.7059 H         1 UNK         0.0970 
    115 H115       20.3702  -30.3294  -41.9345 H         1 UNK         0.0970 
    116 H116       17.2821  -32.2929  -40.2801 H         1 UNK         0.0612 
    117 H117       18.4557  -33.1215  -41.2587 H         1 UNK         0.0612 
@<TRIPOS>BOND
     1    1    2 1    
     2    1   62 1    
     3    1   63 1    
     4    1   64 1    
     5    2    3 2    
     6    2    4 am   BACKBONE|DICT|INTERRES
     7    4    5 1    
     8    4   65 1    
     9    5    6 1    
    10    5   25 1    
    11    5   66 1    
    12    6    7 1    
    13    6   67 1    
    14    6   68 1    
    15    7    8 1    
    16    8    9 1    
    17    8   69 1    
    18    8   70 1    
    19    9   10 ar   
    20    9   14 ar   
    21   10   11 ar   
    22   10   71 1    
    23   11   12 ar   
    24   11   61 1    
    25   12   13 ar   
    26   12   72 1    
    27   13   14 ar   
    28   13   15 1    
    29   14   73 1    
    30   15   16 1    
    31   15   74 1    
    32   15   75 1    
    33   16   17 1    
    34   17   18 1    
    35   17   76 1    
    36   17   77 1    
    37   18   19 1    
    38   18   27 1    
    39   18   78 1    
    40   19   20 am   BACKBONE|DICT|INTERRES
    41   19   79 1    
    42   20   21 2    
    43   20   22 1    
    44   22   23 1    
    45   22   24 1    
    46   22   80 1    
    47   23   81 1    
    48   23   82 1    
    49   23   83 1    
    50   24   25 am   BACKBONE|DICT|INTERRES
    51   24   84 1    
    52   25   26 2    
    53   27   28 2    
    54   27   29 am   BACKBONE|DICT|INTERRES
    55   29   30 1    
    56   29   85 1    
    57   30   31 1    
    58   30   32 1    
    59   30   86 1    
    60   31   87 1    
    61   31   88 1    
    62   31   89 1    
    63   32   33 2    
    64   32   34 am   BACKBONE|DICT|INTERRES
    65   34   35 1    
    66   34   90 1    
    67   35   36 1    
    68   35   37 1    
    69   35   91 1    
    70   36   92 1    
    71   36   93 1    
    72   36   94 1    
    73   37   38 2    
    74   37   39 am   BACKBONE|DICT|INTERRES
    75   39   40 1    
    76   39   95 1    
    77   40   41 1    
    78   40   42 1    
    79   40   96 1    
    80   41   97 1    
    81   41   98 1    
    82   41   99 1    
    83   42   43 2    
    84   42   44 am   BACKBONE|DICT|INTERRES
    85   44   45 1    
    86   44  100 1    
    87   45   46 1    
    88   45   47 1    
    89   45  101 1    
    90   46  102 1    
    91   46  103 1    
    92   46  104 1    
    93   47   48 2    
    94   47   49 am   BACKBONE|DICT|INTERRES
    95   49   50 1    
    96   49  105 1    
    97   50   51 1    
    98   50   52 1    
    99   50  106 1    
   100   51  107 1    
   101   51  108 1    
   102   51  109 1    
   103   52   53 2    
   104   52   54 am   BACKBONE|DICT|INTERRES
   105   54   55 1    
   106   54  110 1    
   107   55   56 1    
   108   55   59 1    
   109   55  111 1    
   110   56   57 am   BACKBONE|DICT|INTERRES
   111   56   58 2    
   112   57  112 1    
   113   57  113 1    
   114   59   60 1    
   115   59  114 1    
   116   59  115 1    
   117   60   61 1    
   118   61  116 1    
   119   61  117 1    
@<TRIPOS>SUBSTRUCTURE
     1 UNK         1 GROUP             0       ****    0 ROOT    
