@<TRIPOS>MOLECULE
3R8
117   119    1
SMALL
USER_CHARGES


@<TRIPOS>ATOM
      1 CA         17.0620  -22.6447  -44.1224 C.3       0 UNK        -0.2013 
      2 C          16.7196  -23.3681  -45.4241 C.2       0 UNK         0.4866 
      3 O          16.2233  -22.7197  -46.3429 O.2       0 UNK        -0.5176 
      4 N          16.9613  -24.6795  -45.5865 N.am      1 UNK        -0.4884 
      5 CA         17.5282  -25.6645  -44.6504 C.3       1 UNK         0.0853 
      6 C6         16.5415  -26.1120  -43.5323 C.3       10 UNK        -0.0849 
      7 S7         15.1121  -27.0181  -44.2166 S.3       10 UNK        -0.2776 
      8 C8         15.1897  -28.6149  -43.3217 C.3       10 UNK         0.0316 
      9 C9         16.4709  -29.4184  -43.5503 C.ar      10 UNK        -0.0863 
     10 C10        17.0347  -30.1391  -42.4901 C.ar      10 UNK        -0.1009 
     11 C11        18.2120  -30.8733  -42.6712 C.ar      10 UNK        -0.0712 
     12 C12        18.8215  -30.8966  -43.9269 C.ar      10 UNK        -0.0894 
     13 C13        18.2593  -30.2012  -44.9983 C.ar      10 UNK        -0.0745 
     14 C14        17.0821  -29.4724  -44.8080 C.ar      10 UNK        -0.0972 
     15 C15        18.9164  -30.2375  -46.3656 C.3       10 UNK         0.0209 
     16 S16        19.9414  -28.7630  -46.6367 S.3       10 UNK        -0.2568 
     17 C17        21.5114  -29.1999  -45.7966 C.3       10 UNK        -0.0983 
     18 CA         21.9980  -28.1946  -44.7115 C.3       3 UNK         0.0876 
     19 N          21.5604  -26.8292  -44.9898 N.am      3 UNK        -0.4424 
     20 C          22.0058  -25.7097  -44.4119 C.2       2 UNK         0.4918 
     21 O          22.9491  -25.6786  -43.6228 O.2       2 UNK        -0.4875 
     22 CA         21.1967  -24.4314  -44.7133 C.3       2 UNK         0.0481 
     23 CB         21.8213  -23.6624  -45.8866 C.3       2 UNK        -0.1831 
     24 N          19.7780  -24.7075  -45.0005 N.am      2 UNK        -0.4498 
     25 C          18.9318  -25.2832  -44.1306 C.2       1 UNK         0.5027 
     26 O          19.2511  -25.5477  -42.9727 O.2       1 UNK        -0.4969 
     27 C          21.7132  -28.6599  -43.2618 C.2       3 UNK         0.5005 
     28 O          22.4125  -29.5568  -42.7878 O.2       3 UNK        -0.5279 
     29 N          20.7634  -28.0294  -42.5486 N.am      4 UNK        -0.4463 
     30 CA         20.5453  -28.2543  -41.1147 C.3       4 UNK         0.0283 
     31 CB         19.1600  -27.7485  -40.6841 C.3       4 UNK        -0.1875 
     32 C          21.6367  -27.5921  -40.2632 C.2       4 UNK         0.4949 
     33 O          22.0846  -28.1953  -39.2899 O.2       4 UNK        -0.5039 
     34 N          22.0814  -26.3905  -40.6624 N.am      5 UNK        -0.4663 
     35 CA         23.2002  -25.6778  -40.0338 C.3       5 UNK         0.0242 
     36 CB         23.2240  -24.2155  -40.5074 C.3       5 UNK        -0.1982 
     37 C          24.5502  -26.3692  -40.2940 C.2       5 UNK         0.5017 
     38 O          25.4137  -26.3612  -39.4168 O.2       5 UNK        -0.5012 
     39 N          24.6823  -27.0018  -41.4693 N.am      6 UNK        -0.4439 
     40 CA         25.7919  -27.8931  -41.8260 C.3       6 UNK         0.0297 
     41 CB         25.8169  -28.0822  -43.3513 C.3       6 UNK        -0.2006 
     42 C          25.7345  -29.2664  -41.1214 C.2       6 UNK         0.4892 
     43 O          26.7129  -30.0102  -41.1989 O.2       6 UNK        -0.5089 
     44 N          24.6061  -29.5774  -40.4634 N.am      7 UNK        -0.4243 
     45 CA         24.2978  -30.8076  -39.7278 C.3       7 UNK         0.0196 
     46 CB         25.2226  -30.9657  -38.5019 C.3       7 UNK        -0.2007 
     47 C          24.2569  -32.0606  -40.6219 C.2       7 UNK         0.5020 
     48 O          24.6879  -33.1334  -40.1952 O.2       7 UNK        -0.5147 
     49 N          23.7017  -31.9258  -41.8362 N.am      8 UNK        -0.4734 
     50 CA         23.5559  -33.0185  -42.8090 C.3       8 UNK         0.0238 
     51 CB         23.0791  -32.4448  -44.1515 C.3       8 UNK        -0.1912 
     52 C          22.6112  -34.1436  -42.3452 C.2       8 UNK         0.5038 
     53 O          22.7598  -35.2795  -42.7971 O.2       8 UNK        -0.5046 
     54 N          21.6786  -33.8100  -41.4442 N.am      9 UNK        -0.4200 
     55 CA         20.7918  -34.7565  -40.7512 C.3       9 UNK         0.0839 
     56 C          21.4851  -35.5470  -39.6008 C.2       9 UNK         0.5513 
     57 N          22.7299  -35.2611  -39.2337 N.am      9 UNK        -0.7519 
     58 O          20.8785  -36.4503  -39.0310 O.2       9 UNK        -0.4960 
     59 C59        19.4928  -34.0655  -40.2544 C.3       10 UNK        -0.0876 
     60 S60        18.4773  -33.4109  -41.6225 S.3       10 UNK        -0.2414 
     61 C61        18.8429  -31.6340  -41.5161 C.3       10 UNK         0.0169 
     62 H62        17.0869  -23.2950  -43.2526 H         1 UNK         0.0903 
     63 H63        18.0340  -22.1604  -44.2121 H         1 UNK         0.0903 
     64 H64        16.3218  -21.8702  -43.9225 H         1 UNK         0.0903 
     65 H65        16.7003  -25.0771  -46.4786 H         1 UNK         0.3096 
     66 H66        17.7224  -26.5509  -45.2571 H         1 UNK         0.1121 
     67 H67        16.1681  -25.2663  -42.9568 H         1 UNK         0.0849 
     68 H68        17.0381  -26.7619  -42.8112 H         1 UNK         0.0849 
     69 H69        14.3411  -29.2268  -43.6298 H         1 UNK         0.0865 
     70 H70        15.0522  -28.4159  -42.2576 H         1 UNK         0.0865 
     71 H71        16.5638  -30.1212  -41.5167 H         1 UNK         0.1346 
     72 H72        19.7301  -31.4642  -44.0683 H         1 UNK         0.1412 
     73 H73        16.6475  -28.9401  -45.6428 H         1 UNK         0.1426 
     74 H74        18.1462  -30.2748  -47.1375 H         1 UNK         0.0716 
     75 H75        19.5147  -31.1412  -46.4921 H         1 UNK         0.0716 
     76 H76        22.2660  -29.2501  -46.5831 H         1 UNK         0.0695 
     77 H77        21.4541  -30.2155  -45.4056 H         1 UNK         0.0695 
     78 H78        23.0859  -28.1711  -44.7833 H         1 UNK         0.0983 
     79 H79        20.7932  -26.7612  -45.6433 H         1 UNK         0.3095 
     80 H80        21.2417  -23.7973  -43.8254 H         1 UNK         0.0454 
     81 H81        21.7893  -24.2379  -46.8126 H         1 UNK         0.0851 
     82 H82        22.8676  -23.4279  -45.6851 H         1 UNK         0.0851 
     83 H83        21.3077  -22.7166  -46.0600 H         1 UNK         0.0851 
     84 H84        19.4472  -24.5000  -45.9329 H         1 UNK         0.2976 
     85 H85        20.2353  -27.2723  -42.9681 H         1 UNK         0.3116 
     86 H86        20.5818  -29.3283  -40.9282 H         1 UNK         0.0646 
     87 H87        18.3786  -28.1038  -41.3508 H         1 UNK         0.0847 
     88 H88        19.1079  -26.6599  -40.6608 H         1 UNK         0.0847 
     89 H89        18.9172  -28.1009  -39.6810 H         1 UNK         0.0847 
     90 H90        21.6705  -25.9667  -41.4829 H         1 UNK         0.3040 
     91 H91        23.0358  -25.6803  -38.9537 H         1 UNK         0.1015 
     92 H92        24.0101  -23.6570  -39.9974 H         1 UNK         0.0786 
     93 H93        22.2804  -23.7134  -40.2934 H         1 UNK         0.0786 
     94 H94        23.4130  -24.1335  -41.5775 H         1 UNK         0.0786 
     95 H95        23.9492  -26.8741  -42.1577 H         1 UNK         0.3172 
     96 H96        26.7234  -27.4076  -41.5282 H         1 UNK         0.0595 
     97 H97        24.9948  -28.7120  -43.6890 H         1 UNK         0.0839 
     98 H98        26.7404  -28.5718  -43.6630 H         1 UNK         0.0839 
     99 H99        25.7601  -27.1301  -43.8796 H         1 UNK         0.0839 
    100 H100       23.8603  -28.8940  -40.4708 H         1 UNK         0.2998 
    101 H101       23.2818  -30.6826  -39.3510 H         1 UNK         0.0822 
    102 H102       25.2116  -30.0704  -37.8802 H         1 UNK         0.0787 
    103 H103       24.9016  -31.7983  -37.8748 H         1 UNK         0.0787 
    104 H104       26.2550  -31.1595  -38.7944 H         1 UNK         0.0787 
    105 H105       23.3413  -31.0144  -42.1184 H         1 UNK         0.3055 
    106 H106       24.5424  -33.4641  -42.9556 H         1 UNK         0.1106 
    107 H107       22.0769  -32.0263  -44.0669 H         1 UNK         0.0828 
    108 H108       23.0453  -33.2196  -44.9186 H         1 UNK         0.0828 
    109 H109       23.7444  -31.6592  -44.5104 H         1 UNK         0.0828 
    110 H110       21.6491  -32.8532  -41.1297 H         1 UNK         0.2931 
    111 H111       20.4924  -35.5131  -41.4793 H         1 UNK         0.0412 
    112 H112       23.1520  -35.7934  -38.4893 H         1 UNK         0.3472 
    113 H113       23.2670  -34.5350  -39.6932 H         1 UNK         0.3472 
    114 H114       18.8669  -34.7772  -39.7123 H         1 UNK         0.0970 
    115 H115       19.7236  -33.2710  -39.5426 H         1 UNK         0.0970 
    116 H116       19.9233  -31.4886  -41.5366 H         1 UNK         0.0612 
    117 H117       18.4908  -31.2442  -40.5598 H         1 UNK         0.0612 
@<TRIPOS>BOND
     1    1    2 1    
     2    1   62 1    
     3    1   63 1    
     4    1   64 1    
     5    2    3 2    
     6    2    4 am   BACKBONE|DICT|INTERRES
     7    4    5 1    
     8    4   65 1    
     9    5    6 1    
    10    5   25 1    
    11    5   66 1    
    12    6    7 1    
    13    6   67 1    
    14    6   68 1    
    15    7    8 1    
    16    8    9 1    
    17    8   69 1    
    18    8   70 1    
    19    9   10 ar   
    20    9   14 ar   
    21   10   11 ar   
    22   10   71 1    
    23   11   12 ar   
    24   11   61 1    
    25   12   13 ar   
    26   12   72 1    
    27   13   14 ar   
    28   13   15 1    
    29   14   73 1    
    30   15   16 1    
    31   15   74 1    
    32   15   75 1    
    33   16   17 1    
    34   17   18 1    
    35   17   76 1    
    36   17   77 1    
    37   18   19 1    
    38   18   27 1    
    39   18   78 1    
    40   19   20 am   BACKBONE|DICT|INTERRES
    41   19   79 1    
    42   20   21 2    
    43   20   22 1    
    44   22   23 1    
    45   22   24 1    
    46   22   80 1    
    47   23   81 1    
    48   23   82 1    
    49   23   83 1    
    50   24   25 am   BACKBONE|DICT|INTERRES
    51   24   84 1    
    52   25   26 2    
    53   27   28 2    
    54   27   29 am   BACKBONE|DICT|INTERRES
    55   29   30 1    
    56   29   85 1    
    57   30   31 1    
    58   30   32 1    
    59   30   86 1    
    60   31   87 1    
    61   31   88 1    
    62   31   89 1    
    63   32   33 2    
    64   32   34 am   BACKBONE|DICT|INTERRES
    65   34   35 1    
    66   34   90 1    
    67   35   36 1    
    68   35   37 1    
    69   35   91 1    
    70   36   92 1    
    71   36   93 1    
    72   36   94 1    
    73   37   38 2    
    74   37   39 am   BACKBONE|DICT|INTERRES
    75   39   40 1    
    76   39   95 1    
    77   40   41 1    
    78   40   42 1    
    79   40   96 1    
    80   41   97 1    
    81   41   98 1    
    82   41   99 1    
    83   42   43 2    
    84   42   44 am   BACKBONE|DICT|INTERRES
    85   44   45 1    
    86   44  100 1    
    87   45   46 1    
    88   45   47 1    
    89   45  101 1    
    90   46  102 1    
    91   46  103 1    
    92   46  104 1    
    93   47   48 2    
    94   47   49 am   BACKBONE|DICT|INTERRES
    95   49   50 1    
    96   49  105 1    
    97   50   51 1    
    98   50   52 1    
    99   50  106 1    
   100   51  107 1    
   101   51  108 1    
   102   51  109 1    
   103   52   53 2    
   104   52   54 am   BACKBONE|DICT|INTERRES
   105   54   55 1    
   106   54  110 1    
   107   55   56 1    
   108   55   59 1    
   109   55  111 1    
   110   56   57 am   BACKBONE|DICT|INTERRES
   111   56   58 2    
   112   57  112 1    
   113   57  113 1    
   114   59   60 1    
   115   59  114 1    
   116   59  115 1    
   117   60   61 1    
   118   61  116 1    
   119   61  117 1    
@<TRIPOS>SUBSTRUCTURE
     1 UNK         1 GROUP             0       ****    0 ROOT    
