@<TRIPOS>MOLECULE
3R8
117   119    1
SMALL
USER_CHARGES


@<TRIPOS>ATOM
      1 CA         19.2212  -23.0413  -48.3150 C.3       0 UNK        -0.2013 
      2 C          19.7398  -24.2884  -47.6151 C.2       0 UNK         0.4866 
      3 O          20.9207  -24.3517  -47.2731 O.2       0 UNK        -0.5176 
      4 N          18.8658  -25.2813  -47.3974 N.am      1 UNK        -0.4884 
      5 CA         19.1920  -26.5524  -46.7320 C.3       1 UNK         0.0853 
      6 C6         18.1611  -27.6559  -47.0956 C.3       10 UNK        -0.0849 
      7 S7         18.9519  -29.2737  -47.3837 S.3       10 UNK        -0.2776 
      8 C8         17.5258  -30.4017  -47.2753 C.3       10 UNK         0.0316 
      9 C9         17.1377  -30.6677  -45.8295 C.ar      10 UNK        -0.0863 
     10 C10        17.8861  -31.5641  -45.0631 C.ar      10 UNK        -0.1009 
     11 C11        17.5709  -31.7873  -43.7202 C.ar      10 UNK        -0.0712 
     12 C12        16.4717  -31.1361  -43.1534 C.ar      10 UNK        -0.0894 
     13 C13        15.7195  -30.2320  -43.9095 C.ar      10 UNK        -0.0745 
     14 C14        16.0496  -30.0099  -45.2498 C.ar      10 UNK        -0.0972 
     15 C15        14.5711  -29.4643  -43.2761 C.3       10 UNK         0.0209 
     16 S16        15.0749  -27.7662  -42.8530 S.3       10 UNK        -0.2568 
     17 C17        16.0605  -28.0206  -41.3353 C.3       10 UNK        -0.0983 
     18 CA         17.5949  -28.1350  -41.5744 C.3       3 UNK         0.0876 
     19 N          18.1628  -27.0699  -42.4148 N.am      3 UNK        -0.4424 
     20 C          18.1321  -25.7487  -42.2063 C.2       2 UNK         0.4918 
     21 O          17.5993  -25.2204  -41.2310 O.2       2 UNK        -0.4875 
     22 CA         18.8457  -24.8536  -43.2375 C.3       2 UNK         0.0481 
     23 CB         20.2957  -24.5743  -42.7947 C.3       2 UNK        -0.1831 
     24 N          18.7989  -25.3164  -44.6347 N.am      2 UNK        -0.4498 
     25 C          19.3568  -26.4002  -45.2009 C.2       1 UNK         0.5027 
     26 O          19.9689  -27.2599  -44.5653 O.2       1 UNK        -0.4969 
     27 C          18.3638  -28.3476  -40.2472 C.2       3 UNK         0.5005 
     28 O          17.9380  -29.1581  -39.4226 O.2       3 UNK        -0.5279 
     29 N          19.4849  -27.6390  -40.0644 N.am      4 UNK        -0.4463 
     30 CA         20.3643  -27.6810  -38.8977 C.3       4 UNK         0.0283 
     31 CB         19.7256  -26.9304  -37.7102 C.3       4 UNK        -0.1875 
     32 C          21.7425  -27.1243  -39.2891 C.2       4 UNK         0.4949 
     33 O          22.3115  -26.3054  -38.5657 O.2       4 UNK        -0.5039 
     34 N          22.2379  -27.5509  -40.4589 N.am      5 UNK        -0.4663 
     35 CA         23.5522  -27.1840  -40.9918 C.3       5 UNK         0.0242 
     36 CB         23.5993  -27.5596  -42.4835 C.3       5 UNK        -0.1982 
     37 C          24.6915  -27.8779  -40.2243 C.2       5 UNK         0.5017 
     38 O          24.4613  -28.9049  -39.5819 O.2       5 UNK        -0.5012 
     39 N          25.9150  -27.3455  -40.3567 N.am      6 UNK        -0.4439 
     40 CA         27.1378  -27.8648  -39.7241 C.3       6 UNK         0.0297 
     41 CB         28.3052  -26.9075  -40.0138 C.3       6 UNK        -0.2006 
     42 C          27.5108  -29.3042  -40.1342 C.2       6 UNK         0.4892 
     43 O          28.1549  -30.0065  -39.3551 O.2       6 UNK        -0.5089 
     44 N          27.0717  -29.7244  -41.3283 N.am      7 UNK        -0.4243 
     45 CA         27.1931  -31.0887  -41.8503 C.3       7 UNK         0.0196 
     46 CB         27.2147  -31.0181  -43.3882 C.3       7 UNK        -0.2007 
     47 C          26.0758  -32.0352  -41.3585 C.2       7 UNK         0.5020 
     48 O          25.9763  -33.1510  -41.8700 O.2       7 UNK        -0.5147 
     49 N          25.2271  -31.5751  -40.4237 N.am      8 UNK        -0.4734 
     50 CA         24.0272  -32.2424  -39.8948 C.3       8 UNK         0.0238 
     51 CB         24.3950  -33.5310  -39.1277 C.3       8 UNK        -0.1912 
     52 C          22.9504  -32.4645  -40.9757 C.2       8 UNK         0.5038 
     53 O          22.2360  -33.4665  -40.9307 O.2       8 UNK        -0.5046 
     54 N          22.8949  -31.5241  -41.9319 N.am      9 UNK        -0.4200 
     55 CA         22.0553  -31.4829  -43.1429 C.3       9 UNK         0.0839 
     56 C          22.1002  -32.7342  -44.0739 C.2       9 UNK         0.5513 
     57 N          23.1033  -33.5980  -43.9697 N.am      9 UNK        -0.7519 
     58 O          21.2513  -32.8981  -44.9454 O.2       9 UNK        -0.4960 
     59 C59        20.6389  -30.8769  -42.9097 C.3       10 UNK        -0.0876 
     60 S60        19.5394  -31.7790  -41.7599 S.3       10 UNK        -0.2414 
     61 C61        18.4373  -32.7088  -42.8756 C.3       10 UNK         0.0169 
     62 H62        18.1628  -23.1211  -48.5624 H         1 UNK         0.0903 
     63 H63        19.3552  -22.1691  -47.6756 H         1 UNK         0.0903 
     64 H64        19.7731  -22.8736  -49.2396 H         1 UNK         0.0903 
     65 H65        17.9099  -25.1760  -47.7090 H         1 UNK         0.3096 
     66 H66        20.1720  -26.8564  -47.1084 H         1 UNK         0.1121 
     67 H67        17.3821  -27.7449  -46.3363 H         1 UNK         0.0849 
     68 H68        17.6386  -27.4057  -48.0206 H         1 UNK         0.0849 
     69 H69        16.6852  -29.9931  -47.8386 H         1 UNK         0.0865 
     70 H70        17.7848  -31.3449  -47.7588 H         1 UNK         0.0865 
     71 H71        18.7384  -32.0626  -45.5054 H         1 UNK         0.1346 
     72 H72        16.2312  -31.3014  -42.1119 H         1 UNK         0.1412 
     73 H73        15.4717  -29.3050  -45.8321 H         1 UNK         0.1426 
     74 H74        14.1960  -29.9767  -42.3888 H         1 UNK         0.0716 
     75 H75        13.7361  -29.4190  -43.9768 H         1 UNK         0.0716 
     76 H76        15.6876  -28.9110  -40.8263 H         1 UNK         0.0695 
     77 H77        15.8461  -27.1879  -40.6637 H         1 UNK         0.0695 
     78 H78        17.7730  -29.0482  -42.1397 H         1 UNK         0.0983 
     79 H79        18.6839  -27.3845  -43.2297 H         1 UNK         0.3095 
     80 H80        18.3152  -23.9001  -43.2330 H         1 UNK         0.0454 
     81 H81        20.3214  -24.1318  -41.7979 H         1 UNK         0.0851 
     82 H82        20.7878  -23.8750  -43.4706 H         1 UNK         0.0851 
     83 H83        20.8967  -25.4830  -42.7599 H         1 UNK         0.0851 
     84 H84        18.2940  -24.7050  -45.2612 H         1 UNK         0.2976 
     85 H85        19.7533  -26.9881  -40.7889 H         1 UNK         0.3116 
     86 H86        20.5156  -28.7235  -38.6102 H         1 UNK         0.0646 
     87 H87        18.7737  -27.3748  -37.4198 H         1 UNK         0.0847 
     88 H88        19.5460  -25.8817  -37.9496 H         1 UNK         0.0847 
     89 H89        20.3727  -26.9610  -36.8327 H         1 UNK         0.0847 
     90 H90        21.7295  -28.2632  -40.9602 H         1 UNK         0.3040 
     91 H91        23.6757  -26.1030  -40.8923 H         1 UNK         0.1015 
     92 H92        24.5373  -27.2432  -42.9416 H         1 UNK         0.0786 
     93 H93        22.7955  -27.0783  -43.0413 H         1 UNK         0.0786 
     94 H94        23.5099  -28.6349  -42.6356 H         1 UNK         0.0786 
     95 H95        26.0200  -26.5091  -40.9141 H         1 UNK         0.3172 
     96 H96        26.9660  -27.8737  -38.6457 H         1 UNK         0.0595 
     97 H97        29.2216  -27.2526  -39.5325 H         1 UNK         0.0839 
     98 H98        28.1027  -25.9056  -39.6348 H         1 UNK         0.0839 
     99 H99        28.5093  -26.8295  -41.0825 H         1 UNK         0.0839 
    100 H100       26.5622  -29.0668  -41.8999 H         1 UNK         0.2998 
    101 H101       28.1420  -31.5137  -41.5158 H         1 UNK         0.0822 
    102 H102       27.3808  -32.0036  -43.8259 H         1 UNK         0.0787 
    103 H103       28.0173  -30.3721  -43.7447 H         1 UNK         0.0787 
    104 H104       26.2738  -30.6387  -43.7888 H         1 UNK         0.0787 
    105 H105       25.3599  -30.6278  -40.0820 H         1 UNK         0.3055 
    106 H106       23.5855  -31.5497  -39.1762 H         1 UNK         0.1106 
    107 H107       25.1564  -33.3390  -38.3719 H         1 UNK         0.0828 
    108 H108       23.5249  -33.9398  -38.6125 H         1 UNK         0.0828 
    109 H109       24.7702  -34.3086  -39.7934 H         1 UNK         0.0828 
    110 H110       23.5662  -30.7764  -41.8533 H         1 UNK         0.2931 
    111 H111       22.5667  -30.7395  -43.7557 H         1 UNK         0.0412 
    112 H112       23.1348  -34.3923  -44.5889 H         1 UNK         0.3472 
    113 H113       23.8140  -33.4794  -43.2627 H         1 UNK         0.3472 
    114 H114       20.1380  -30.7195  -43.8642 H         1 UNK         0.0970 
    115 H115       20.7548  -29.8724  -42.5020 H         1 UNK         0.0970 
    116 H116       17.7966  -33.3554  -42.2746 H         1 UNK         0.0612 
    117 H117       19.0316  -33.3717  -43.5051 H         1 UNK         0.0612 
@<TRIPOS>BOND
     1    1    2 1    
     2    1   62 1    
     3    1   63 1    
     4    1   64 1    
     5    2    3 2    
     6    2    4 am   BACKBONE|DICT|INTERRES
     7    4    5 1    
     8    4   65 1    
     9    5    6 1    
    10    5   25 1    
    11    5   66 1    
    12    6    7 1    
    13    6   67 1    
    14    6   68 1    
    15    7    8 1    
    16    8    9 1    
    17    8   69 1    
    18    8   70 1    
    19    9   10 ar   
    20    9   14 ar   
    21   10   11 ar   
    22   10   71 1    
    23   11   12 ar   
    24   11   61 1    
    25   12   13 ar   
    26   12   72 1    
    27   13   14 ar   
    28   13   15 1    
    29   14   73 1    
    30   15   16 1    
    31   15   74 1    
    32   15   75 1    
    33   16   17 1    
    34   17   18 1    
    35   17   76 1    
    36   17   77 1    
    37   18   19 1    
    38   18   27 1    
    39   18   78 1    
    40   19   20 am   BACKBONE|DICT|INTERRES
    41   19   79 1    
    42   20   21 2    
    43   20   22 1    
    44   22   23 1    
    45   22   24 1    
    46   22   80 1    
    47   23   81 1    
    48   23   82 1    
    49   23   83 1    
    50   24   25 am   BACKBONE|DICT|INTERRES
    51   24   84 1    
    52   25   26 2    
    53   27   28 2    
    54   27   29 am   BACKBONE|DICT|INTERRES
    55   29   30 1    
    56   29   85 1    
    57   30   31 1    
    58   30   32 1    
    59   30   86 1    
    60   31   87 1    
    61   31   88 1    
    62   31   89 1    
    63   32   33 2    
    64   32   34 am   BACKBONE|DICT|INTERRES
    65   34   35 1    
    66   34   90 1    
    67   35   36 1    
    68   35   37 1    
    69   35   91 1    
    70   36   92 1    
    71   36   93 1    
    72   36   94 1    
    73   37   38 2    
    74   37   39 am   BACKBONE|DICT|INTERRES
    75   39   40 1    
    76   39   95 1    
    77   40   41 1    
    78   40   42 1    
    79   40   96 1    
    80   41   97 1    
    81   41   98 1    
    82   41   99 1    
    83   42   43 2    
    84   42   44 am   BACKBONE|DICT|INTERRES
    85   44   45 1    
    86   44  100 1    
    87   45   46 1    
    88   45   47 1    
    89   45  101 1    
    90   46  102 1    
    91   46  103 1    
    92   46  104 1    
    93   47   48 2    
    94   47   49 am   BACKBONE|DICT|INTERRES
    95   49   50 1    
    96   49  105 1    
    97   50   51 1    
    98   50   52 1    
    99   50  106 1    
   100   51  107 1    
   101   51  108 1    
   102   51  109 1    
   103   52   53 2    
   104   52   54 am   BACKBONE|DICT|INTERRES
   105   54   55 1    
   106   54  110 1    
   107   55   56 1    
   108   55   59 1    
   109   55  111 1    
   110   56   57 am   BACKBONE|DICT|INTERRES
   111   56   58 2    
   112   57  112 1    
   113   57  113 1    
   114   59   60 1    
   115   59  114 1    
   116   59  115 1    
   117   60   61 1    
   118   61  116 1    
   119   61  117 1    
@<TRIPOS>SUBSTRUCTURE
     1 UNK         1 GROUP             0       ****    0 ROOT    
