@<TRIPOS>MOLECULE
3R8
117   119    1
SMALL
USER_CHARGES


@<TRIPOS>ATOM
      1 CA         14.7256  -31.5528  -47.5946 C.3       0 UNK        -0.2013 
      2 C          15.1016  -30.1033  -47.3262 C.2       0 UNK         0.4866 
      3 O          15.0118  -29.2742  -48.2318 O.2       0 UNK        -0.5176 
      4 N          15.5237  -29.8007  -46.0902 N.am      1 UNK        -0.4884 
      5 CA         15.9289  -28.4717  -45.6035 C.3       1 UNK         0.0853 
      6 C6         14.7546  -27.4565  -45.5140 C.3       10 UNK        -0.0849 
      7 S7         13.5408  -27.9707  -44.2495 S.3       10 UNK        -0.2776 
      8 C8         13.9198  -26.8406  -42.8641 C.3       10 UNK         0.0316 
      9 C9         15.3972  -26.8399  -42.4859 C.ar      10 UNK        -0.0863 
     10 C10        16.0020  -27.9971  -41.9849 C.ar      10 UNK        -0.1009 
     11 C11        17.3682  -28.0100  -41.6893 C.ar      10 UNK        -0.0712 
     12 C12        18.1215  -26.8439  -41.8492 C.ar      10 UNK        -0.0894 
     13 C13        17.5274  -25.6781  -42.3388 C.ar      10 UNK        -0.0745 
     14 C14        16.1656  -25.6833  -42.6567 C.ar      10 UNK        -0.0972 
     15 C15        18.3483  -24.4110  -42.5290 C.3       10 UNK         0.0209 
     16 S16        18.9246  -24.2500  -44.2493 S.3       10 UNK        -0.2568 
     17 C17        20.6902  -24.7032  -44.1322 C.3       10 UNK        -0.0983 
     18 CA         20.9632  -26.2203  -44.2911 C.3       3 UNK         0.0876 
     19 N          20.3535  -26.7827  -45.4978 N.am      3 UNK        -0.4424 
     20 C          20.2952  -28.0879  -45.7856 C.2       2 UNK         0.4918 
     21 O          20.7761  -28.9727  -45.0762 O.2       2 UNK        -0.4875 
     22 CA         19.4885  -28.4791  -47.0313 C.3       2 UNK         0.0481 
     23 CB         20.1058  -29.6861  -47.7592 C.3       2 UNK        -0.1831 
     24 N          18.1355  -28.8176  -46.6009 N.am      2 UNK        -0.4498 
     25 C          17.1746  -27.9228  -46.3321 C.2       1 UNK         0.5027 
     26 O          17.2643  -26.7258  -46.6120 O.2       1 UNK        -0.4969 
     27 C          22.4754  -26.5228  -44.2423 C.2       3 UNK         0.5005 
     28 O          23.2294  -25.9956  -45.0640 O.2       3 UNK        -0.5279 
     29 N          22.8810  -27.3764  -43.2963 N.am      4 UNK        -0.4463 
     30 CA         24.2491  -27.8489  -43.1096 C.3       4 UNK         0.0283 
     31 CB         24.5678  -28.9757  -44.1137 C.3       4 UNK        -0.1875 
     32 C          24.3918  -28.2932  -41.6518 C.2       4 UNK         0.4949 
     33 O          24.5423  -29.4838  -41.3801 O.2       4 UNK        -0.5039 
     34 N          24.3036  -27.3202  -40.7332 N.am      5 UNK        -0.4663 
     35 CA         24.2712  -27.5090  -39.2752 C.3       5 UNK         0.0242 
     36 CB         24.1599  -26.1381  -38.5896 C.3       5 UNK        -0.1982 
     37 C          25.4510  -28.3064  -38.6898 C.2       5 UNK         0.5017 
     38 O          25.2676  -28.9978  -37.6879 O.2       5 UNK        -0.5012 
     39 N          26.6161  -28.2488  -39.3509 N.am      6 UNK        -0.4439 
     40 CA         27.8093  -29.0441  -39.0384 C.3       6 UNK         0.0297 
     41 CB         28.9735  -28.5736  -39.9250 C.3       6 UNK        -0.2006 
     42 C          27.6077  -30.5673  -39.1830 C.2       6 UNK         0.4892 
     43 O          28.3309  -31.3279  -38.5390 O.2       6 UNK        -0.5089 
     44 N          26.6302  -30.9806  -40.0004 N.am      7 UNK        -0.4243 
     45 CA         26.1935  -32.3653  -40.1846 C.3       7 UNK         0.0196 
     46 CB         26.4270  -32.7602  -41.6548 C.3       7 UNK        -0.2007 
     47 C          24.7149  -32.5246  -39.7807 C.2       7 UNK         0.5020 
     48 O          24.0538  -33.4477  -40.2571 O.2       7 UNK        -0.5147 
     49 N          24.2077  -31.6091  -38.9399 N.am      8 UNK        -0.4734 
     50 CA         22.8133  -31.4052  -38.5230 C.3       8 UNK         0.0238 
     51 CB         22.2254  -32.6429  -37.8162 C.3       8 UNK        -0.1912 
     52 C          21.9004  -30.9082  -39.6582 C.2       8 UNK         0.5038 
     53 O          21.2579  -29.8708  -39.4953 O.2       8 UNK        -0.5046 
     54 N          21.8646  -31.6366  -40.7772 N.am      9 UNK        -0.4200 
     55 CA         21.1052  -31.3213  -41.9896 C.3       9 UNK         0.0839 
     56 C          21.6756  -32.1208  -43.1881 C.2       9 UNK         0.5513 
     57 N          21.6510  -31.5621  -44.3883 N.am      9 UNK        -0.7519 
     58 O          22.1087  -33.2624  -43.0457 O.2       9 UNK        -0.4960 
     59 C59        19.5767  -31.5577  -41.8028 C.3       10 UNK        -0.0876 
     60 S60        18.5771  -30.2876  -42.6455 S.3       10 UNK        -0.2414 
     61 C61        18.0402  -29.2888  -41.2226 C.3       10 UNK         0.0169 
     62 H62        14.8503  -32.1786  -46.7110 H         1 UNK         0.0903 
     63 H63        13.6847  -31.6173  -47.9105 H         1 UNK         0.0903 
     64 H64        15.3489  -31.9610  -48.3898 H         1 UNK         0.0903 
     65 H65        15.5606  -30.5353  -45.3965 H         1 UNK         0.3096 
     66 H66        16.2891  -28.6370  -44.5885 H         1 UNK         0.1121 
     67 H67        14.2491  -27.3609  -46.4758 H         1 UNK         0.0849 
     68 H68        15.1095  -26.4548  -45.2666 H         1 UNK         0.0849 
     69 H69        13.5882  -25.8358  -43.1309 H         1 UNK         0.0865 
     70 H70        13.3286  -27.1343  -41.9956 H         1 UNK         0.0865 
     71 H71        15.4168  -28.8989  -41.8642 H         1 UNK         0.1346 
     72 H72        19.1728  -26.8501  -41.5997 H         1 UNK         0.1412 
     73 H73        15.7085  -24.7845  -43.0483 H         1 UNK         0.1426 
     74 H74        17.7362  -23.5415  -42.2847 H         1 UNK         0.0716 
     75 H75        19.1893  -24.3893  -41.8348 H         1 UNK         0.0716 
     76 H76        21.0922  -24.3376  -43.1856 H         1 UNK         0.0695 
     77 H77        21.2128  -24.1443  -44.9111 H         1 UNK         0.0695 
     78 H78        20.4931  -26.7261  -43.4479 H         1 UNK         0.0983 
     79 H79        19.8804  -26.1259  -46.1020 H         1 UNK         0.3095 
     80 H80        19.4621  -27.6373  -47.7266 H         1 UNK         0.0454 
     81 H81        21.1303  -29.4717  -48.0656 H         1 UNK         0.0851 
     82 H82        19.5432  -29.9347  -48.6591 H         1 UNK         0.0851 
     83 H83        20.1348  -30.5751  -47.1275 H         1 UNK         0.0851 
     84 H84        17.9811  -29.7757  -46.3215 H         1 UNK         0.2976 
     85 H85        22.1989  -27.7735  -42.6641 H         1 UNK         0.3116 
     86 H86        24.9476  -27.0257  -43.2739 H         1 UNK         0.0646 
     87 H87        25.5783  -29.3580  -43.9646 H         1 UNK         0.0847 
     88 H88        23.8815  -29.8159  -44.0056 H         1 UNK         0.0847 
     89 H89        24.5025  -28.6236  -45.1430 H         1 UNK         0.0847 
     90 H90        24.1795  -26.3724  -41.0611 H         1 UNK         0.3040 
     91 H91        23.3660  -28.0759  -39.0480 H         1 UNK         0.1015 
     92 H92        25.0178  -25.5031  -38.8142 H         1 UNK         0.0786 
     93 H93        24.1093  -26.2462  -37.5050 H         1 UNK         0.0786 
     94 H94        23.2585  -25.6098  -38.9009 H         1 UNK         0.0786 
     95 H95        26.6640  -27.6544  -40.1658 H         1 UNK         0.3172 
     96 H96        28.0716  -28.8487  -37.9966 H         1 UNK         0.0595 
     97 H97        28.7614  -28.7239  -40.9844 H         1 UNK         0.0839 
     98 H98        29.8864  -29.1253  -39.6952 H         1 UNK         0.0839 
     99 H99        29.1904  -27.5165  -39.7705 H         1 UNK         0.0839 
    100 H100       26.0585  -30.2873  -40.4778 H         1 UNK         0.2998 
    101 H101       26.7691  -33.0399  -39.5478 H         1 UNK         0.0822 
    102 H102       26.1701  -33.8059  -41.8286 H         1 UNK         0.0787 
    103 H103       25.8201  -32.1563  -42.3314 H         1 UNK         0.0787 
    104 H104       27.4721  -32.6337  -41.9378 H         1 UNK         0.0787 
    105 H105       24.8426  -30.8902  -38.6113 H         1 UNK         0.3055 
    106 H106       22.8484  -30.6019  -37.7846 H         1 UNK         0.1106 
    107 H107       22.8484  -32.9524  -36.9772 H         1 UNK         0.0828 
    108 H108       21.2329  -32.4253  -37.4195 H         1 UNK         0.0828 
    109 H109       22.1216  -33.4947  -38.4885 H         1 UNK         0.0828 
    110 H110       22.4689  -32.4528  -40.8428 H         1 UNK         0.2931 
    111 H111       21.2901  -30.2635  -42.1914 H         1 UNK         0.0412 
    112 H112       22.0059  -32.0806  -45.1750 H         1 UNK         0.3472 
    113 H113       21.2825  -30.6229  -44.5298 H         1 UNK         0.3472 
    114 H114       19.2734  -32.5422  -42.1645 H         1 UNK         0.0970 
    115 H115       19.3066  -31.5565  -40.7459 H         1 UNK         0.0970 
    116 H116       17.3567  -29.8721  -40.6039 H         1 UNK         0.0612 
    117 H117       18.9025  -29.0509  -40.5980 H         1 UNK         0.0612 
@<TRIPOS>BOND
     1    1    2 1    
     2    1   62 1    
     3    1   63 1    
     4    1   64 1    
     5    2    3 2    
     6    2    4 am   BACKBONE|DICT|INTERRES
     7    4    5 1    
     8    4   65 1    
     9    5    6 1    
    10    5   25 1    
    11    5   66 1    
    12    6    7 1    
    13    6   67 1    
    14    6   68 1    
    15    7    8 1    
    16    8    9 1    
    17    8   69 1    
    18    8   70 1    
    19    9   10 ar   
    20    9   14 ar   
    21   10   11 ar   
    22   10   71 1    
    23   11   12 ar   
    24   11   61 1    
    25   12   13 ar   
    26   12   72 1    
    27   13   14 ar   
    28   13   15 1    
    29   14   73 1    
    30   15   16 1    
    31   15   74 1    
    32   15   75 1    
    33   16   17 1    
    34   17   18 1    
    35   17   76 1    
    36   17   77 1    
    37   18   19 1    
    38   18   27 1    
    39   18   78 1    
    40   19   20 am   BACKBONE|DICT|INTERRES
    41   19   79 1    
    42   20   21 2    
    43   20   22 1    
    44   22   23 1    
    45   22   24 1    
    46   22   80 1    
    47   23   81 1    
    48   23   82 1    
    49   23   83 1    
    50   24   25 am   BACKBONE|DICT|INTERRES
    51   24   84 1    
    52   25   26 2    
    53   27   28 2    
    54   27   29 am   BACKBONE|DICT|INTERRES
    55   29   30 1    
    56   29   85 1    
    57   30   31 1    
    58   30   32 1    
    59   30   86 1    
    60   31   87 1    
    61   31   88 1    
    62   31   89 1    
    63   32   33 2    
    64   32   34 am   BACKBONE|DICT|INTERRES
    65   34   35 1    
    66   34   90 1    
    67   35   36 1    
    68   35   37 1    
    69   35   91 1    
    70   36   92 1    
    71   36   93 1    
    72   36   94 1    
    73   37   38 2    
    74   37   39 am   BACKBONE|DICT|INTERRES
    75   39   40 1    
    76   39   95 1    
    77   40   41 1    
    78   40   42 1    
    79   40   96 1    
    80   41   97 1    
    81   41   98 1    
    82   41   99 1    
    83   42   43 2    
    84   42   44 am   BACKBONE|DICT|INTERRES
    85   44   45 1    
    86   44  100 1    
    87   45   46 1    
    88   45   47 1    
    89   45  101 1    
    90   46  102 1    
    91   46  103 1    
    92   46  104 1    
    93   47   48 2    
    94   47   49 am   BACKBONE|DICT|INTERRES
    95   49   50 1    
    96   49  105 1    
    97   50   51 1    
    98   50   52 1    
    99   50  106 1    
   100   51  107 1    
   101   51  108 1    
   102   51  109 1    
   103   52   53 2    
   104   52   54 am   BACKBONE|DICT|INTERRES
   105   54   55 1    
   106   54  110 1    
   107   55   56 1    
   108   55   59 1    
   109   55  111 1    
   110   56   57 am   BACKBONE|DICT|INTERRES
   111   56   58 2    
   112   57  112 1    
   113   57  113 1    
   114   59   60 1    
   115   59  114 1    
   116   59  115 1    
   117   60   61 1    
   118   61  116 1    
   119   61  117 1    
@<TRIPOS>SUBSTRUCTURE
     1 UNK         1 GROUP             0       ****    0 ROOT    
