@<TRIPOS>MOLECULE
3R8
117   119    1
SMALL
USER_CHARGES


@<TRIPOS>ATOM
      1 CA         17.4828  -22.7477  -40.7428 C.3       0 UNK        -0.2013 
      2 C          17.0744  -23.2756  -42.1103 C.2       0 UNK         0.4866 
      3 O          16.5033  -22.5305  -42.9077 O.2       0 UNK        -0.5176 
      4 N          17.3573  -24.5557  -42.3823 N.am      1 UNK        -0.4884 
      5 CA         17.1236  -25.2096  -43.6748 C.3       1 UNK         0.0853 
      6 C6         16.8536  -26.7273  -43.4873 C.3       10 UNK        -0.0849 
      7 S7         15.7986  -27.4064  -44.8138 S.3       10 UNK        -0.2776 
      8 C8         15.7083  -29.1671  -44.3485 C.3       10 UNK         0.0316 
      9 C9         17.0653  -29.8637  -44.3555 C.ar      10 UNK        -0.0863 
     10 C10        17.4604  -30.6291  -43.2540 C.ar      10 UNK        -0.1009 
     11 C11        18.6895  -31.2933  -43.2573 C.ar      10 UNK        -0.0712 
     12 C12        19.5195  -31.2027  -44.3767 C.ar      10 UNK        -0.0894 
     13 C13        19.1650  -30.3954  -45.4628 C.ar      10 UNK        -0.0745 
     14 C14        17.9230  -29.7528  -45.4559 C.ar      10 UNK        -0.0972 
     15 C15        20.1140  -30.1867  -46.6413 C.3       10 UNK         0.0209 
     16 S16        21.8785  -29.9588  -46.1980 S.3       10 UNK        -0.2568 
     17 C17        21.8639  -28.8868  -44.7165 C.3       10 UNK        -0.0983 
     18 CA         21.8773  -27.3705  -45.0218 C.3       3 UNK         0.0876 
     19 N          20.6659  -26.9375  -45.7133 N.am      3 UNK        -0.4424 
     20 C          20.5997  -25.8930  -46.5474 C.2       2 UNK         0.4918 
     21 O          21.5856  -25.2824  -46.9620 O.2       2 UNK        -0.4875 
     22 CA         19.1907  -25.4142  -46.9420 C.3       2 UNK         0.0481 
     23 CB         18.6857  -26.1811  -48.1742 C.3       2 UNK        -0.1831 
     24 N          18.2049  -25.5241  -45.8591 N.am      2 UNK        -0.4498 
     25 C          18.2823  -24.9234  -44.6615 C.2       1 UNK         0.5027 
     26 O          19.2157  -24.1863  -44.3325 O.2       1 UNK        -0.4969 
     27 C          21.9652  -26.5485  -43.7220 C.2       3 UNK         0.5005 
     28 O          21.5109  -27.0146  -42.6750 O.2       3 UNK        -0.5279 
     29 N          22.5096  -25.3267  -43.8103 N.am      4 UNK        -0.4463 
     30 CA         22.5507  -24.3387  -42.7217 C.3       4 UNK         0.0283 
     31 CB         23.1850  -23.0394  -43.2428 C.3       4 UNK        -0.1875 
     32 C          23.2633  -24.8078  -41.4375 C.2       4 UNK         0.4949 
     33 O          22.9605  -24.2974  -40.3590 O.2       4 UNK        -0.5039 
     34 N          24.1791  -25.7765  -41.5701 N.am      5 UNK        -0.4663 
     35 CA         24.8775  -26.4245  -40.4593 C.3       5 UNK         0.0242 
     36 CB         26.1388  -27.1159  -41.0041 C.3       5 UNK        -0.1982 
     37 C          24.0141  -27.4382  -39.6841 C.2       5 UNK         0.5017 
     38 O          24.4030  -27.8063  -38.5759 O.2       5 UNK        -0.5012 
     39 N          22.9053  -27.9149  -40.2774 N.am      6 UNK        -0.4439 
     40 CA         21.9427  -28.9202  -39.7859 C.3       6 UNK         0.0297 
     41 CB         21.2309  -28.4284  -38.5118 C.3       6 UNK        -0.2006 
     42 C          22.4951  -30.3488  -39.5848 C.2       6 UNK         0.4892 
     43 O          21.7462  -31.3111  -39.7585 O.2       6 UNK        -0.5089 
     44 N          23.7878  -30.4739  -39.2589 N.am      7 UNK        -0.4243 
     45 CA         24.5308  -31.7111  -38.9898 C.3       7 UNK         0.0196 
     46 CB         25.9320  -31.3322  -38.4800 C.3       7 UNK        -0.2007 
     47 C          24.6329  -32.6989  -40.1697 C.2       7 UNK         0.5020 
     48 O          25.1221  -33.8121  -39.9764 O.2       7 UNK        -0.5147 
     49 N          24.1735  -32.2956  -41.3622 N.am      8 UNK        -0.4734 
     50 CA         24.0314  -33.1479  -42.5455 C.3       8 UNK         0.0238 
     51 CB         23.6419  -32.2733  -43.7479 C.3       8 UNK        -0.1912 
     52 C          23.0143  -34.2906  -42.3561 C.2       8 UNK         0.5038 
     53 O          23.1773  -35.3419  -42.9769 O.2       8 UNK        -0.5046 
     54 N          22.0039  -34.0736  -41.5034 N.am      9 UNK        -0.4200 
     55 CA         21.0479  -35.0994  -41.0697 C.3       9 UNK         0.0839 
     56 C          21.6195  -35.8718  -39.8545 C.2       9 UNK         0.5513 
     57 N          21.6081  -37.1968  -39.8955 N.am      9 UNK        -0.7519 
     58 O          22.0313  -35.2795  -38.8594 O.2       9 UNK        -0.4960 
     59 C59        19.6644  -34.4883  -40.7336 C.3       10 UNK        -0.0876 
     60 S60        18.8236  -33.8464  -42.2190 S.3       10 UNK        -0.2414 
     61 C61        19.1498  -32.0710  -42.0373 C.3       10 UNK         0.0169 
     62 H62        17.9655  -23.5139  -40.1363 H         1 UNK         0.0903 
     63 H63        18.1789  -21.9168  -40.8551 H         1 UNK         0.0903 
     64 H64        16.6076  -22.3888  -40.2019 H         1 UNK         0.0903 
     65 H65        17.8641  -25.1034  -41.7014 H         1 UNK         0.3096 
     66 H66        16.2295  -24.7584  -44.1122 H         1 UNK         0.1121 
     67 H67        17.7848  -27.2933  -43.4131 H         1 UNK         0.0849 
     68 H68        16.3242  -26.9015  -42.5487 H         1 UNK         0.0849 
     69 H69        15.2351  -29.2451  -43.3683 H         1 UNK         0.0865 
     70 H70        15.0490  -29.6820  -45.0484 H         1 UNK         0.0865 
     71 H71        16.8143  -30.7080  -42.3902 H         1 UNK         0.1346 
     72 H72        20.4692  -31.7183  -44.3782 H         1 UNK         0.1412 
     73 H73        17.6246  -29.1516  -46.3038 H         1 UNK         0.1426 
     74 H74        19.8052  -29.3178  -47.2236 H         1 UNK         0.0716 
     75 H75        20.0324  -31.0442  -47.3101 H         1 UNK         0.0716 
     76 H76        21.0270  -29.1356  -44.0671 H         1 UNK         0.0695 
     77 H77        22.7552  -29.1485  -44.1432 H         1 UNK         0.0695 
     78 H78        22.7574  -27.1556  -45.6322 H         1 UNK         0.0983 
     79 H79        19.8052  -27.3588  -45.3986 H         1 UNK         0.3095 
     80 H80        19.2664  -24.3577  -47.2068 H         1 UNK         0.0454 
     81 H81        19.3969  -26.1077  -48.9982 H         1 UNK         0.0851 
     82 H82        18.5408  -27.2408  -47.9627 H         1 UNK         0.0851 
     83 H83        17.7380  -25.7781  -48.5316 H         1 UNK         0.0851 
     84 H84        17.4030  -26.1173  -46.0322 H         1 UNK         0.2976 
     85 H85        22.8175  -25.0074  -44.7193 H         1 UNK         0.3116 
     86 H86        21.5152  -24.1234  -42.4490 H         1 UNK         0.0646 
     87 H87        23.2043  -22.2744  -42.4651 H         1 UNK         0.0847 
     88 H88        22.6199  -22.6301  -44.0806 H         1 UNK         0.0847 
     89 H89        24.2131  -23.1952  -43.5719 H         1 UNK         0.0847 
     90 H90        24.3737  -26.1221  -42.4985 H         1 UNK         0.3040 
     91 H91        25.1875  -25.6550  -39.7484 H         1 UNK         0.1015 
     92 H92        26.8014  -26.4031  -41.4955 H         1 UNK         0.0786 
     93 H93        25.8935  -27.8989  -41.7230 H         1 UNK         0.0786 
     94 H94        26.7094  -27.5811  -40.1988 H         1 UNK         0.0786 
     95 H95        22.6564  -27.5239  -41.1832 H         1 UNK         0.3172 
     96 H96        21.1874  -28.9979  -40.5700 H         1 UNK         0.0595 
     97 H97        20.7593  -27.4588  -38.6716 H         1 UNK         0.0839 
     98 H98        21.9182  -28.3333  -37.6707 H         1 UNK         0.0839 
     99 H99        20.4467  -29.1246  -38.2113 H         1 UNK         0.0839 
    100 H100       24.2836  -29.6055  -39.0784 H         1 UNK         0.2998 
    101 H101       24.0043  -32.2363  -38.1903 H         1 UNK         0.0822 
    102 H102       25.8748  -30.7090  -37.5872 H         1 UNK         0.0787 
    103 H103       26.5093  -32.2194  -38.2159 H         1 UNK         0.0787 
    104 H104       26.4991  -30.7857  -39.2348 H         1 UNK         0.0787 
    105 H105       23.7988  -31.3607  -41.4247 H         1 UNK         0.3055 
    106 H106       25.0015  -33.6071  -42.7487 H         1 UNK         0.1106 
    107 H107       22.7025  -31.7481  -43.5752 H         1 UNK         0.0828 
    108 H108       24.4075  -31.5279  -43.9638 H         1 UNK         0.0828 
    109 H109       23.5171  -32.8761  -44.6487 H         1 UNK         0.0828 
    110 H110       21.9788  -33.2002  -40.9919 H         1 UNK         0.2931 
    111 H111       20.9003  -35.8094  -41.8868 H         1 UNK         0.0412 
    112 H112       21.9613  -37.7156  -39.1062 H         1 UNK         0.3472 
    113 H113       21.2640  -37.6898  -40.7055 H         1 UNK         0.3472 
    114 H114       19.7563  -33.7030  -39.9801 H         1 UNK         0.0970 
    115 H115       19.0105  -35.2468  -40.2987 H         1 UNK         0.0970 
    116 H116       20.2183  -31.9099  -41.8928 H         1 UNK         0.0612 
    117 H117       18.6570  -31.7004  -41.1370 H         1 UNK         0.0612 
@<TRIPOS>BOND
     1    1    2 1    
     2    1   62 1    
     3    1   63 1    
     4    1   64 1    
     5    2    3 2    
     6    2    4 am   BACKBONE|DICT|INTERRES
     7    4    5 1    
     8    4   65 1    
     9    5    6 1    
    10    5   25 1    
    11    5   66 1    
    12    6    7 1    
    13    6   67 1    
    14    6   68 1    
    15    7    8 1    
    16    8    9 1    
    17    8   69 1    
    18    8   70 1    
    19    9   10 ar   
    20    9   14 ar   
    21   10   11 ar   
    22   10   71 1    
    23   11   12 ar   
    24   11   61 1    
    25   12   13 ar   
    26   12   72 1    
    27   13   14 ar   
    28   13   15 1    
    29   14   73 1    
    30   15   16 1    
    31   15   74 1    
    32   15   75 1    
    33   16   17 1    
    34   17   18 1    
    35   17   76 1    
    36   17   77 1    
    37   18   19 1    
    38   18   27 1    
    39   18   78 1    
    40   19   20 am   BACKBONE|DICT|INTERRES
    41   19   79 1    
    42   20   21 2    
    43   20   22 1    
    44   22   23 1    
    45   22   24 1    
    46   22   80 1    
    47   23   81 1    
    48   23   82 1    
    49   23   83 1    
    50   24   25 am   BACKBONE|DICT|INTERRES
    51   24   84 1    
    52   25   26 2    
    53   27   28 2    
    54   27   29 am   BACKBONE|DICT|INTERRES
    55   29   30 1    
    56   29   85 1    
    57   30   31 1    
    58   30   32 1    
    59   30   86 1    
    60   31   87 1    
    61   31   88 1    
    62   31   89 1    
    63   32   33 2    
    64   32   34 am   BACKBONE|DICT|INTERRES
    65   34   35 1    
    66   34   90 1    
    67   35   36 1    
    68   35   37 1    
    69   35   91 1    
    70   36   92 1    
    71   36   93 1    
    72   36   94 1    
    73   37   38 2    
    74   37   39 am   BACKBONE|DICT|INTERRES
    75   39   40 1    
    76   39   95 1    
    77   40   41 1    
    78   40   42 1    
    79   40   96 1    
    80   41   97 1    
    81   41   98 1    
    82   41   99 1    
    83   42   43 2    
    84   42   44 am   BACKBONE|DICT|INTERRES
    85   44   45 1    
    86   44  100 1    
    87   45   46 1    
    88   45   47 1    
    89   45  101 1    
    90   46  102 1    
    91   46  103 1    
    92   46  104 1    
    93   47   48 2    
    94   47   49 am   BACKBONE|DICT|INTERRES
    95   49   50 1    
    96   49  105 1    
    97   50   51 1    
    98   50   52 1    
    99   50  106 1    
   100   51  107 1    
   101   51  108 1    
   102   51  109 1    
   103   52   53 2    
   104   52   54 am   BACKBONE|DICT|INTERRES
   105   54   55 1    
   106   54  110 1    
   107   55   56 1    
   108   55   59 1    
   109   55  111 1    
   110   56   57 am   BACKBONE|DICT|INTERRES
   111   56   58 2    
   112   57  112 1    
   113   57  113 1    
   114   59   60 1    
   115   59  114 1    
   116   59  115 1    
   117   60   61 1    
   118   61  116 1    
   119   61  117 1    
@<TRIPOS>SUBSTRUCTURE
     1 UNK         1 GROUP             0       ****    0 ROOT    
