@<TRIPOS>MOLECULE
3R8
117   119    1
SMALL
USER_CHARGES


@<TRIPOS>ATOM
      1 CA         15.6281  -23.0129  -47.8198 C.3       0 UNK        -0.2013 
      2 C          15.6237  -24.3440  -47.0825 C.2       0 UNK         0.4866 
      3 O          15.2825  -25.3673  -47.6755 O.2       0 UNK        -0.5176 
      4 N          16.0069  -24.3323  -45.8019 N.am      1 UNK        -0.4884 
      5 CA         16.1261  -25.5051  -44.9339 C.3       1 UNK         0.0853 
      6 C6         14.8530  -25.7335  -44.0686 C.3       10 UNK        -0.0849 
      7 S7         13.6621  -26.8270  -44.9074 S.3       10 UNK        -0.2776 
      8 C8         13.9698  -28.4245  -44.0729 C.3       10 UNK         0.0316 
      9 C9         15.3933  -28.9547  -44.2453 C.ar      10 UNK        -0.0863 
     10 C10        16.0859  -29.4685  -43.1443 C.ar      10 UNK        -0.1009 
     11 C11        17.3691  -30.0097  -43.2878 C.ar      10 UNK        -0.0712 
     12 C12        17.9687  -30.0155  -44.5535 C.ar      10 UNK        -0.0894 
     13 C13        17.2974  -29.4841  -45.6602 C.ar      10 UNK        -0.0745 
     14 C14        16.0037  -28.9806  -45.5027 C.ar      10 UNK        -0.0972 
     15 C15        17.9446  -29.4722  -47.0377 C.3       10 UNK         0.0209 
     16 S16        18.9731  -27.9875  -47.2928 S.3       10 UNK        -0.2568 
     17 C17        20.5727  -28.5268  -46.5961 C.3       10 UNK        -0.0983 
     18 CA         21.0989  -27.6297  -45.4435 C.3       3 UNK         0.0876 
     19 N          20.0866  -27.4334  -44.4039 N.am      3 UNK        -0.4424 
     20 C          20.1766  -26.6664  -43.3082 C.2       2 UNK         0.4918 
     21 O          21.1829  -26.0344  -42.9808 O.2       2 UNK        -0.4875 
     22 CA         18.8927  -26.5779  -42.4604 C.3       2 UNK         0.0481 
     23 CB         18.9530  -25.4956  -41.3596 C.3       2 UNK        -0.1831 
     24 N          17.7009  -26.4171  -43.3037 N.am      2 UNK        -0.4498 
     25 C          17.3936  -25.3613  -44.0750 C.2       1 UNK         0.5027 
     26 O          18.0574  -24.3217  -44.1288 O.2       1 UNK        -0.4969 
     27 C          22.4005  -28.2129  -44.8566 C.2       3 UNK         0.5005 
     28 O          22.4860  -29.4281  -44.6777 O.2       3 UNK        -0.5279 
     29 N          23.3694  -27.3375  -44.5452 N.am      4 UNK        -0.4463 
     30 CA         24.6418  -27.6382  -43.8740 C.3       4 UNK         0.0283 
     31 CB         25.5637  -28.4772  -44.7854 C.3       4 UNK        -0.1875 
     32 C          24.4438  -28.2739  -42.4827 C.2       4 UNK         0.4949 
     33 O          25.1674  -29.2039  -42.1214 O.2       4 UNK        -0.5039 
     34 N          23.4514  -27.7771  -41.7296 N.am      5 UNK        -0.4663 
     35 CA         23.0853  -28.2858  -40.4063 C.3       5 UNK         0.0242 
     36 CB         21.8731  -27.5151  -39.8670 C.3       5 UNK        -0.1982 
     37 C          24.2495  -28.2543  -39.3998 C.2       5 UNK         0.5017 
     38 O          24.9869  -27.2680  -39.3559 O.2       5 UNK        -0.5012 
     39 N          24.3740  -29.3464  -38.6349 N.am      6 UNK        -0.4439 
     40 CA         25.4252  -29.7130  -37.6754 C.3       6 UNK         0.0297 
     41 CB         25.9732  -28.5336  -36.8462 C.3       6 UNK        -0.2006 
     42 C          26.5451  -30.5473  -38.3178 C.2       6 UNK         0.4892 
     43 O          27.1427  -31.3642  -37.6157 O.2       6 UNK        -0.5089 
     44 N          26.7774  -30.3874  -39.6290 N.am      7 UNK        -0.4243 
     45 CA         27.5211  -31.3553  -40.4405 C.3       7 UNK         0.0196 
     46 CB         28.2595  -30.6412  -41.5855 C.3       7 UNK        -0.2007 
     47 C          26.5440  -32.4169  -40.9699 C.2       7 UNK         0.5020 
     48 O          26.7986  -33.6125  -40.8238 O.2       7 UNK        -0.5147 
     49 N          25.4207  -31.9483  -41.5242 N.am      8 UNK        -0.4734 
     50 CA         24.2370  -32.7280  -41.8766 C.3       8 UNK         0.0238 
     51 CB         23.8845  -32.4235  -43.3432 C.3       8 UNK        -0.1912 
     52 C          23.0835  -32.3715  -40.9171 C.2       8 UNK         0.5038 
     53 O          23.3082  -31.7076  -39.8999 O.2       8 UNK        -0.5046 
     54 N          21.8685  -32.8320  -41.2450 N.am      9 UNK        -0.4200 
     55 CA         20.6288  -32.6486  -40.4639 C.3       9 UNK         0.0839 
     56 C          20.6126  -33.3886  -39.0892 C.2       9 UNK         0.5513 
     57 N          21.4864  -34.3589  -38.8488 N.am      9 UNK        -0.7519 
     58 O          19.7740  -33.1072  -38.2367 O.2       9 UNK        -0.4960 
     59 C59        20.1803  -31.1598  -40.3478 C.3       10 UNK        -0.0876 
     60 S60        19.8468  -30.3716  -41.9627 S.3       10 UNK        -0.2414 
     61 C61        18.0452  -30.6443  -42.0731 C.3       10 UNK         0.0169 
     62 H62        16.3043  -23.0589  -48.6731 H         1 UNK         0.0903 
     63 H63        14.6283  -22.7858  -48.1890 H         1 UNK         0.0903 
     64 H64        15.9468  -22.1914  -47.1783 H         1 UNK         0.0903 
     65 H65        16.3657  -23.4805  -45.3884 H         1 UNK         0.3096 
     66 H66        16.3169  -26.3734  -45.5644 H         1 UNK         0.1121 
     67 H67        14.3615  -24.7842  -43.8484 H         1 UNK         0.0849 
     68 H68        15.0744  -26.1692  -43.0926 H         1 UNK         0.0849 
     69 H69        13.7219  -28.3176  -43.0156 H         1 UNK         0.0865 
     70 H70        13.2759  -29.1646  -44.4735 H         1 UNK         0.0865 
     71 H71        15.6094  -29.4785  -42.1728 H         1 UNK         0.1346 
     72 H72        18.9532  -30.4449  -44.6788 H         1 UNK         0.1412 
     73 H73        15.4719  -28.5951  -46.3627 H         1 UNK         0.1426 
     74 H74        17.1716  -29.4881  -47.8076 H         1 UNK         0.0716 
     75 H75        18.5326  -30.3779  -47.1931 H         1 UNK         0.0716 
     76 H76        21.2970  -28.5424  -47.4125 H         1 UNK         0.0695 
     77 H77        20.4810  -29.5628  -46.2668 H         1 UNK         0.0695 
     78 H78        21.3214  -26.6467  -45.8636 H         1 UNK         0.0983 
     79 H79        19.2152  -27.9149  -44.5702 H         1 UNK         0.3095 
     80 H80        18.7847  -27.5413  -41.9619 H         1 UNK         0.0454 
     81 H81        18.0230  -25.4540  -40.7932 H         1 UNK         0.0851 
     82 H82        19.1412  -24.5032  -41.7693 H         1 UNK         0.0851 
     83 H83        19.7526  -25.6986  -40.6488 H         1 UNK         0.0851 
     84 H84        17.0935  -27.2258  -43.3443 H         1 UNK         0.2976 
     85 H85        23.1730  -26.3542  -44.6782 H         1 UNK         0.3116 
     86 H86        25.1330  -26.6797  -43.7012 H         1 UNK         0.0646 
     87 H87        25.1689  -29.4807  -44.9477 H         1 UNK         0.0847 
     88 H88        26.5537  -28.5887  -44.3415 H         1 UNK         0.0847 
     89 H89        25.6972  -28.0064  -45.7591 H         1 UNK         0.0847 
     90 H90        22.8818  -27.0285  -42.1072 H         1 UNK         0.3040 
     91 H91        22.7818  -29.3207  -40.5574 H         1 UNK         0.1015 
     92 H92        22.0606  -26.4413  -39.8323 H         1 UNK         0.0786 
     93 H93        21.6179  -27.8380  -38.8567 H         1 UNK         0.0786 
     94 H94        20.9963  -27.6919  -40.4883 H         1 UNK         0.0786 
     95 H95        23.7556  -30.1241  -38.8600 H         1 UNK         0.3172 
     96 H96        24.9247  -30.3808  -36.9724 H         1 UNK         0.0595 
     97 H97        26.5993  -27.8696  -37.4427 H         1 UNK         0.0839 
     98 H98        26.5915  -28.8975  -36.0247 H         1 UNK         0.0839 
     99 H99        25.1685  -27.9422  -36.4095 H         1 UNK         0.0839 
    100 H100       26.2353  -29.6977  -40.1341 H         1 UNK         0.2998 
    101 H101       28.2705  -31.8596  -39.8263 H         1 UNK         0.0822 
    102 H102       28.9546  -29.8948  -41.2009 H         1 UNK         0.0787 
    103 H103       28.8405  -31.3533  -42.1728 H         1 UNK         0.0787 
    104 H104       27.5771  -30.1391  -42.2706 H         1 UNK         0.0787 
    105 H105       25.3128  -30.9396  -41.6186 H         1 UNK         0.3055 
    106 H106       24.4384  -33.7962  -41.7714 H         1 UNK         0.1106 
    107 H107       23.0623  -33.0423  -43.7029 H         1 UNK         0.0828 
    108 H108       23.5932  -31.3813  -43.4691 H         1 UNK         0.0828 
    109 H109       24.7339  -32.6100  -44.0005 H         1 UNK         0.0828 
    110 H110       21.7677  -33.3736  -42.0905 H         1 UNK         0.2931 
    111 H111       19.8590  -33.1606  -41.0422 H         1 UNK         0.0412 
    112 H112       22.1732  -34.6140  -39.5397 H         1 UNK         0.3472 
    113 H113       21.4596  -34.8379  -37.9623 H         1 UNK         0.3472 
    114 H114       20.9318  -30.5736  -39.8202 H         1 UNK         0.0970 
    115 H115       19.2793  -31.0757  -39.7381 H         1 UNK         0.0970 
    116 H116       17.5877  -30.2618  -41.1594 H         1 UNK         0.0612 
    117 H117       17.8530  -31.7177  -42.0925 H         1 UNK         0.0612 
@<TRIPOS>BOND
     1    1    2 1    
     2    1   62 1    
     3    1   63 1    
     4    1   64 1    
     5    2    3 2    
     6    2    4 am   BACKBONE|DICT|INTERRES
     7    4    5 1    
     8    4   65 1    
     9    5    6 1    
    10    5   25 1    
    11    5   66 1    
    12    6    7 1    
    13    6   67 1    
    14    6   68 1    
    15    7    8 1    
    16    8    9 1    
    17    8   69 1    
    18    8   70 1    
    19    9   10 ar   
    20    9   14 ar   
    21   10   11 ar   
    22   10   71 1    
    23   11   12 ar   
    24   11   61 1    
    25   12   13 ar   
    26   12   72 1    
    27   13   14 ar   
    28   13   15 1    
    29   14   73 1    
    30   15   16 1    
    31   15   74 1    
    32   15   75 1    
    33   16   17 1    
    34   17   18 1    
    35   17   76 1    
    36   17   77 1    
    37   18   19 1    
    38   18   27 1    
    39   18   78 1    
    40   19   20 am   BACKBONE|DICT|INTERRES
    41   19   79 1    
    42   20   21 2    
    43   20   22 1    
    44   22   23 1    
    45   22   24 1    
    46   22   80 1    
    47   23   81 1    
    48   23   82 1    
    49   23   83 1    
    50   24   25 am   BACKBONE|DICT|INTERRES
    51   24   84 1    
    52   25   26 2    
    53   27   28 2    
    54   27   29 am   BACKBONE|DICT|INTERRES
    55   29   30 1    
    56   29   85 1    
    57   30   31 1    
    58   30   32 1    
    59   30   86 1    
    60   31   87 1    
    61   31   88 1    
    62   31   89 1    
    63   32   33 2    
    64   32   34 am   BACKBONE|DICT|INTERRES
    65   34   35 1    
    66   34   90 1    
    67   35   36 1    
    68   35   37 1    
    69   35   91 1    
    70   36   92 1    
    71   36   93 1    
    72   36   94 1    
    73   37   38 2    
    74   37   39 am   BACKBONE|DICT|INTERRES
    75   39   40 1    
    76   39   95 1    
    77   40   41 1    
    78   40   42 1    
    79   40   96 1    
    80   41   97 1    
    81   41   98 1    
    82   41   99 1    
    83   42   43 2    
    84   42   44 am   BACKBONE|DICT|INTERRES
    85   44   45 1    
    86   44  100 1    
    87   45   46 1    
    88   45   47 1    
    89   45  101 1    
    90   46  102 1    
    91   46  103 1    
    92   46  104 1    
    93   47   48 2    
    94   47   49 am   BACKBONE|DICT|INTERRES
    95   49   50 1    
    96   49  105 1    
    97   50   51 1    
    98   50   52 1    
    99   50  106 1    
   100   51  107 1    
   101   51  108 1    
   102   51  109 1    
   103   52   53 2    
   104   52   54 am   BACKBONE|DICT|INTERRES
   105   54   55 1    
   106   54  110 1    
   107   55   56 1    
   108   55   59 1    
   109   55  111 1    
   110   56   57 am   BACKBONE|DICT|INTERRES
   111   56   58 2    
   112   57  112 1    
   113   57  113 1    
   114   59   60 1    
   115   59  114 1    
   116   59  115 1    
   117   60   61 1    
   118   61  116 1    
   119   61  117 1    
@<TRIPOS>SUBSTRUCTURE
     1 UNK         1 GROUP             0       ****    0 ROOT    
