@<TRIPOS>MOLECULE
3R8
117   119    1
SMALL
USER_CHARGES


@<TRIPOS>ATOM
      1 CA         15.5994  -25.5226  -39.3279 C.3       0 UNK        -0.2013 
      2 C          16.2934  -25.2769  -40.6595 C.2       0 UNK         0.4866 
      3 O          16.8571  -24.2021  -40.8638 O.2       0 UNK        -0.5176 
      4 N          16.2451  -26.2615  -41.5666 N.am      1 UNK        -0.4884 
      5 CA         16.9041  -26.2363  -42.8756 C.3       1 UNK         0.0853 
      6 C6         16.2415  -27.2522  -43.8433 C.3       10 UNK        -0.0849 
      7 S7         16.9513  -27.2688  -45.5266 S.3       10 UNK        -0.2776 
      8 C8         16.8105  -29.0336  -45.9623 C.3       10 UNK         0.0316 
      9 C9         17.9745  -29.8467  -45.4136 C.ar      10 UNK        -0.0863 
     10 C10        17.8603  -30.5349  -44.2022 C.ar      10 UNK        -0.1009 
     11 C11        18.9338  -31.2824  -43.7089 C.ar      10 UNK        -0.0712 
     12 C12        20.1286  -31.3350  -44.4326 C.ar      10 UNK        -0.0894 
     13 C13        20.2536  -30.6654  -45.6540 C.ar      10 UNK        -0.0745 
     14 C14        19.1638  -29.9329  -46.1419 C.ar      10 UNK        -0.0972 
     15 C15        21.5525  -30.7927  -46.4485 C.3       10 UNK         0.0209 
     16 S16        22.0006  -29.3083  -47.4122 S.3       10 UNK        -0.2568 
     17 C17        22.5873  -28.1608  -46.1245 C.3       10 UNK        -0.0983 
     18 CA         21.4798  -27.1541  -45.6792 C.3       3 UNK         0.0876 
     19 N          20.7525  -27.6247  -44.4891 N.am      3 UNK        -0.4424 
     20 C          21.2244  -27.7494  -43.2383 C.2       2 UNK         0.4918 
     21 O          22.3924  -27.5061  -42.9233 O.2       2 UNK        -0.4875 
     22 CA         20.2020  -28.1387  -42.1478 C.3       2 UNK         0.0481 
     23 CB         20.6327  -27.6600  -40.7479 C.3       2 UNK        -0.1831 
     24 N          18.8280  -27.6888  -42.4174 N.am      2 UNK        -0.4498 
     25 C          18.4227  -26.4388  -42.6975 C.2       1 UNK         0.5027 
     26 O          19.1874  -25.4793  -42.8173 O.2       1 UNK        -0.4969 
     27 C          22.0060  -25.6996  -45.5480 C.2       3 UNK         0.5005 
     28 O          22.8259  -25.2789  -46.3660 O.2       3 UNK        -0.5279 
     29 N          21.5573  -24.9608  -44.5164 N.am      4 UNK        -0.4463 
     30 CA         22.1142  -23.6945  -44.0200 C.3       4 UNK         0.0283 
     31 CB         21.8633  -22.5488  -45.0228 C.3       4 UNK        -0.1875 
     32 C          23.5989  -23.8058  -43.5990 C.2       4 UNK         0.4949 
     33 O          24.3090  -22.7992  -43.6000 O.2       4 UNK        -0.5039 
     34 N          24.0440  -25.0242  -43.2586 N.am      5 UNK        -0.4663 
     35 CA         25.4433  -25.3766  -43.0023 C.3       5 UNK         0.0242 
     36 CB         26.0048  -26.0760  -44.2548 C.3       5 UNK        -0.1982 
     37 C          25.6064  -26.2553  -41.7502 C.2       5 UNK         0.5017 
     38 O          26.6935  -26.7935  -41.5363 O.2       5 UNK        -0.5012 
     39 N          24.5334  -26.3955  -40.9561 N.am      6 UNK        -0.4439 
     40 CA         24.4157  -27.2437  -39.7631 C.3       6 UNK         0.0297 
     41 CB         25.3479  -26.7497  -38.6353 C.3       6 UNK        -0.2006 
     42 C          24.5813  -28.7487  -40.0682 C.2       6 UNK         0.4892 
     43 O          25.1428  -29.4809  -39.2506 O.2       6 UNK        -0.5089 
     44 N          24.0863  -29.1876  -41.2354 N.am      7 UNK        -0.4243 
     45 CA         24.0537  -30.5927  -41.6444 C.3       7 UNK         0.0196 
     46 CB         23.7501  -30.6803  -43.1476 C.3       7 UNK        -0.2007 
     47 C          23.0070  -31.3756  -40.8356 C.2       7 UNK         0.5020 
     48 O          21.9085  -30.8674  -40.6030 O.2       7 UNK        -0.5147 
     49 N          23.3616  -32.5978  -40.4272 N.am      8 UNK        -0.4734 
     50 CA         22.4987  -33.4760  -39.6374 C.3       8 UNK         0.0238 
     51 CB         23.3782  -34.4607  -38.8484 C.3       8 UNK        -0.1912 
     52 C          21.5047  -34.2418  -40.5248 C.2       8 UNK         0.5038 
     53 O          21.8651  -34.6513  -41.6311 O.2       8 UNK        -0.5046 
     54 N          20.3019  -34.4650  -39.9859 N.am      9 UNK        -0.4200 
     55 CA         19.2406  -35.3138  -40.5533 C.3       9 UNK         0.0839 
     56 C          18.7669  -36.4148  -39.5570 C.2       9 UNK         0.5513 
     57 N          19.4278  -36.6247  -38.4234 N.am      9 UNK        -0.7519 
     58 O          17.7922  -37.1136  -39.8228 O.2       9 UNK        -0.4960 
     59 C59        18.0594  -34.4605  -41.0979 C.3       10 UNK        -0.0876 
     60 S60        18.3946  -33.7959  -42.7609 S.3       10 UNK        -0.2414 
     61 C61        18.7952  -32.0594  -42.4096 C.3       10 UNK         0.0169 
     62 H62        16.3184  -25.4527  -38.5121 H         1 UNK         0.0903 
     63 H63        14.8252  -24.7733  -39.1645 H         1 UNK         0.0903 
     64 H64        15.1327  -26.5065  -39.2847 H         1 UNK         0.0903 
     65 H65        15.7622  -27.1172  -41.3312 H         1 UNK         0.3096 
     66 H66        16.7673  -25.2405  -43.3047 H         1 UNK         0.1121 
     67 H67        15.1819  -27.0116  -43.9453 H         1 UNK         0.0849 
     68 H68        16.2687  -28.2564  -43.4211 H         1 UNK         0.0849 
     69 H69        16.7851  -29.1233  -47.0495 H         1 UNK         0.0865 
     70 H70        15.8578  -29.4318  -45.6092 H         1 UNK         0.0865 
     71 H71        16.9312  -30.5065  -43.6502 H         1 UNK         0.1346 
     72 H72        20.9514  -31.9255  -44.0525 H         1 UNK         0.1412 
     73 H73        19.2371  -29.4237  -47.0929 H         1 UNK         0.1426 
     74 H74        21.4420  -31.6276  -47.1412 H         1 UNK         0.0716 
     75 H75        22.3844  -31.0493  -45.7916 H         1 UNK         0.0716 
     76 H76        23.4569  -27.6626  -46.5551 H         1 UNK         0.0695 
     77 H77        22.9855  -28.7243  -45.2812 H         1 UNK         0.0695 
     78 H78        20.7320  -27.0857  -46.4709 H         1 UNK         0.0983 
     79 H79        19.7814  -27.8591  -44.6434 H         1 UNK         0.3095 
     80 H80        20.1741  -29.2281  -42.1308 H         1 UNK         0.0454 
     81 H81        20.7986  -26.5825  -40.7192 H         1 UNK         0.0851 
     82 H82        21.5556  -28.1482  -40.4411 H         1 UNK         0.0851 
     83 H83        19.8830  -27.9051  -39.9960 H         1 UNK         0.0851 
     84 H84        18.1233  -28.4092  -42.3594 H         1 UNK         0.2976 
     85 H85        20.8264  -25.3575  -43.9312 H         1 UNK         0.3116 
     86 H86        21.5603  -23.4621  -43.1092 H         1 UNK         0.0646 
     87 H87        22.1358  -21.5848  -44.5918 H         1 UNK         0.0847 
     88 H88        20.8119  -22.4903  -45.3034 H         1 UNK         0.0847 
     89 H89        22.4484  -22.6719  -45.9345 H         1 UNK         0.0847 
     90 H90        23.3919  -25.8030  -43.2881 H         1 UNK         0.3040 
     91 H91        26.0300  -24.4744  -42.8163 H         1 UNK         0.1015 
     92 H92        25.9113  -25.4422  -45.1371 H         1 UNK         0.0786 
     93 H93        25.4806  -27.0107  -44.4593 H         1 UNK         0.0786 
     94 H94        27.0635  -26.3110  -44.1377 H         1 UNK         0.0786 
     95 H95        23.6919  -25.9109  -41.2344 H         1 UNK         0.3172 
     96 H96        23.3932  -27.1198  -39.4058 H         1 UNK         0.0595 
     97 H97        26.3993  -26.9051  -38.8790 H         1 UNK         0.0839 
     98 H98        25.1506  -27.2826  -37.7044 H         1 UNK         0.0839 
     99 H99        25.2027  -25.6881  -38.4354 H         1 UNK         0.0839 
    100 H100       23.6000  -28.5293  -41.8370 H         1 UNK         0.2998 
    101 H101       25.0419  -31.0219  -41.4651 H         1 UNK         0.0822 
    102 H102       22.7598  -30.2882  -43.3775 H         1 UNK         0.0787 
    103 H103       24.4790  -30.1212  -43.7346 H         1 UNK         0.0787 
    104 H104       23.7780  -31.7150  -43.4917 H         1 UNK         0.0787 
    105 H105       24.2585  -32.9715  -40.7030 H         1 UNK         0.3055 
    106 H106       21.9401  -32.8662  -38.9228 H         1 UNK         0.1106 
    107 H107       22.7714  -35.1116  -38.2178 H         1 UNK         0.0828 
    108 H108       23.9618  -35.1022  -39.5104 H         1 UNK         0.0828 
    109 H109       24.0727  -33.9350  -38.1927 H         1 UNK         0.0828 
    110 H110       20.0995  -34.0870  -39.0714 H         1 UNK         0.2931 
    111 H111       19.6532  -35.8881  -41.3850 H         1 UNK         0.0412 
    112 H112       20.2623  -36.1079  -38.2007 H         1 UNK         0.3472 
    113 H113       19.1060  -37.3482  -37.7989 H         1 UNK         0.3472 
    114 H114       17.1509  -35.0570  -41.1988 H         1 UNK         0.0970 
    115 H115       17.8043  -33.6565  -40.4058 H         1 UNK         0.0970 
    116 H116       18.0161  -31.6200  -41.7850 H         1 UNK         0.0612 
    117 H117       19.7231  -32.0069  -41.8388 H         1 UNK         0.0612 
@<TRIPOS>BOND
     1    1    2 1    
     2    1   62 1    
     3    1   63 1    
     4    1   64 1    
     5    2    3 2    
     6    2    4 am   BACKBONE|DICT|INTERRES
     7    4    5 1    
     8    4   65 1    
     9    5    6 1    
    10    5   25 1    
    11    5   66 1    
    12    6    7 1    
    13    6   67 1    
    14    6   68 1    
    15    7    8 1    
    16    8    9 1    
    17    8   69 1    
    18    8   70 1    
    19    9   10 ar   
    20    9   14 ar   
    21   10   11 ar   
    22   10   71 1    
    23   11   12 ar   
    24   11   61 1    
    25   12   13 ar   
    26   12   72 1    
    27   13   14 ar   
    28   13   15 1    
    29   14   73 1    
    30   15   16 1    
    31   15   74 1    
    32   15   75 1    
    33   16   17 1    
    34   17   18 1    
    35   17   76 1    
    36   17   77 1    
    37   18   19 1    
    38   18   27 1    
    39   18   78 1    
    40   19   20 am   BACKBONE|DICT|INTERRES
    41   19   79 1    
    42   20   21 2    
    43   20   22 1    
    44   22   23 1    
    45   22   24 1    
    46   22   80 1    
    47   23   81 1    
    48   23   82 1    
    49   23   83 1    
    50   24   25 am   BACKBONE|DICT|INTERRES
    51   24   84 1    
    52   25   26 2    
    53   27   28 2    
    54   27   29 am   BACKBONE|DICT|INTERRES
    55   29   30 1    
    56   29   85 1    
    57   30   31 1    
    58   30   32 1    
    59   30   86 1    
    60   31   87 1    
    61   31   88 1    
    62   31   89 1    
    63   32   33 2    
    64   32   34 am   BACKBONE|DICT|INTERRES
    65   34   35 1    
    66   34   90 1    
    67   35   36 1    
    68   35   37 1    
    69   35   91 1    
    70   36   92 1    
    71   36   93 1    
    72   36   94 1    
    73   37   38 2    
    74   37   39 am   BACKBONE|DICT|INTERRES
    75   39   40 1    
    76   39   95 1    
    77   40   41 1    
    78   40   42 1    
    79   40   96 1    
    80   41   97 1    
    81   41   98 1    
    82   41   99 1    
    83   42   43 2    
    84   42   44 am   BACKBONE|DICT|INTERRES
    85   44   45 1    
    86   44  100 1    
    87   45   46 1    
    88   45   47 1    
    89   45  101 1    
    90   46  102 1    
    91   46  103 1    
    92   46  104 1    
    93   47   48 2    
    94   47   49 am   BACKBONE|DICT|INTERRES
    95   49   50 1    
    96   49  105 1    
    97   50   51 1    
    98   50   52 1    
    99   50  106 1    
   100   51  107 1    
   101   51  108 1    
   102   51  109 1    
   103   52   53 2    
   104   52   54 am   BACKBONE|DICT|INTERRES
   105   54   55 1    
   106   54  110 1    
   107   55   56 1    
   108   55   59 1    
   109   55  111 1    
   110   56   57 am   BACKBONE|DICT|INTERRES
   111   56   58 2    
   112   57  112 1    
   113   57  113 1    
   114   59   60 1    
   115   59  114 1    
   116   59  115 1    
   117   60   61 1    
   118   61  116 1    
   119   61  117 1    
@<TRIPOS>SUBSTRUCTURE
     1 UNK         1 GROUP             0       ****    0 ROOT    
