@<TRIPOS>MOLECULE
3R8
117   119    1
SMALL
USER_CHARGES


@<TRIPOS>ATOM
      1 CA         15.2041  -23.1435  -42.6631 C.3       0 UNK        -0.2013 
      2 C          15.9496  -23.4327  -43.9575 C.2       0 UNK         0.4866 
      3 O          16.0086  -22.5715  -44.8362 O.2       0 UNK        -0.5176 
      4 N          16.5107  -24.6411  -44.0860 N.am      1 UNK        -0.4884 
      5 CA         17.3086  -25.0717  -45.2384 C.3       1 UNK         0.0853 
      6 C6         17.5357  -26.6025  -45.2403 C.3       10 UNK        -0.0849 
      7 S7         16.0032  -27.5675  -45.4563 S.3       10 UNK        -0.2776 
      8 C8         16.1137  -28.7741  -44.0831 C.3       10 UNK         0.0316 
      9 C9         17.3384  -29.6984  -44.0771 C.ar      10 UNK        -0.0863 
     10 C10        17.5637  -30.4870  -42.9436 C.ar      10 UNK        -0.1009 
     11 C11        18.6683  -31.3413  -42.8674 C.ar      10 UNK        -0.0712 
     12 C12        19.5786  -31.3808  -43.9272 C.ar      10 UNK        -0.0894 
     13 C13        19.3811  -30.5900  -45.0624 C.ar      10 UNK        -0.0745 
     14 C14        18.2398  -29.7870  -45.1474 C.ar      10 UNK        -0.0972 
     15 C15        20.4097  -30.5917  -46.1890 C.3       10 UNK         0.0209 
     16 S16        21.0303  -28.9204  -46.5992 S.3       10 UNK        -0.2568 
     17 C17        21.4896  -28.2640  -44.9584 C.3       10 UNK        -0.0983 
     18 CA         22.1653  -26.8686  -45.0077 C.3       3 UNK         0.0876 
     19 N          21.3677  -25.9067  -45.7746 N.am      3 UNK        -0.4424 
     20 C          21.7187  -24.6540  -46.0989 C.2       2 UNK         0.4918 
     21 O          22.8347  -24.1786  -45.8910 O.2       2 UNK        -0.4875 
     22 CA         20.6219  -23.7663  -46.7250 C.3       2 UNK         0.0481 
     23 CB         20.8437  -23.6320  -48.2399 C.3       2 UNK        -0.1831 
     24 N          19.2515  -24.2397  -46.4764 N.am      2 UNK        -0.4498 
     25 C          18.6811  -24.3700  -45.2681 C.2       1 UNK         0.5027 
     26 O          19.2435  -24.0692  -44.2112 O.2       1 UNK        -0.4969 
     27 C          22.4476  -26.3975  -43.5622 C.2       3 UNK         0.5005 
     28 O          23.3829  -26.9079  -42.9444 O.2       3 UNK        -0.5279 
     29 N          21.6128  -25.4871  -43.0244 N.am      4 UNK        -0.4463 
     30 CA         21.6882  -24.8793  -41.6855 C.3       4 UNK         0.0283 
     31 CB         22.9113  -23.9426  -41.5987 C.3       4 UNK        -0.1875 
     32 C          21.6521  -25.8946  -40.5230 C.2       4 UNK         0.4949 
     33 O          22.1407  -25.5936  -39.4335 O.2       4 UNK        -0.5039 
     34 N          21.1081  -27.0910  -40.7947 N.am      5 UNK        -0.4663 
     35 CA         21.1230  -28.3000  -39.9611 C.3       5 UNK         0.0242 
     36 CB         20.2829  -28.1008  -38.6822 C.3       5 UNK        -0.1982 
     37 C          22.5396  -28.8440  -39.6614 C.2       5 UNK         0.5017 
     38 O          22.6957  -29.6364  -38.7314 O.2       5 UNK        -0.5012 
     39 N          23.5466  -28.4256  -40.4443 N.am      6 UNK        -0.4439 
     40 CA         24.9466  -28.8264  -40.2851 C.3       6 UNK         0.0297 
     41 CB         25.8548  -27.6697  -40.7330 C.3       6 UNK        -0.2006 
     42 C          25.2888  -30.1071  -41.0629 C.2       6 UNK         0.4892 
     43 O          26.3046  -30.7359  -40.7620 O.2       6 UNK        -0.5089 
     44 N          24.4494  -30.4860  -42.0372 N.am      7 UNK        -0.4243 
     45 CA         24.6029  -31.6632  -42.8990 C.3       7 UNK         0.0196 
     46 CB         23.7874  -31.4392  -44.1852 C.3       7 UNK        -0.2007 
     47 C          24.2266  -32.9759  -42.1804 C.2       7 UNK         0.5020 
     48 O          23.3835  -33.7297  -42.6709 O.2       7 UNK        -0.5147 
     49 N          24.8557  -33.2141  -41.0217 N.am      8 UNK        -0.4734 
     50 CA         24.6709  -34.3156  -40.0679 C.3       8 UNK         0.0238 
     51 CB         25.0072  -35.6831  -40.6975 C.3       8 UNK        -0.1912 
     52 C          23.2872  -34.3178  -39.3951 C.2       8 UNK         0.5038 
     53 O          23.2139  -34.1539  -38.1764 O.2       8 UNK        -0.5046 
     54 N          22.2317  -34.4897  -40.1998 N.am      9 UNK        -0.4200 
     55 CA         20.8153  -34.5417  -39.8061 C.3       9 UNK         0.0839 
     56 C          20.4983  -35.6781  -38.7831 C.2       9 UNK         0.5513 
     57 N          19.4320  -35.5706  -38.0003 N.am      9 UNK        -0.7519 
     58 O          21.1803  -36.7003  -38.7334 O.2       9 UNK        -0.4960 
     59 C59        20.2637  -33.1383  -39.4141 C.3       10 UNK        -0.0876 
     60 S60        20.4111  -31.9277  -40.7730 S.3       10 UNK        -0.2414 
     61 C61        18.8541  -32.2490  -41.6590 C.3       10 UNK         0.0169 
     62 H62        14.1641  -22.8975  -42.8758 H         1 UNK         0.0903 
     63 H63        15.2186  -23.9960  -41.9843 H         1 UNK         0.0903 
     64 H64        15.6575  -22.2950  -42.1513 H         1 UNK         0.0903 
     65 H65        16.4400  -25.3059  -43.3296 H         1 UNK         0.3096 
     66 H66        16.7661  -24.7947  -46.1456 H         1 UNK         0.1121 
     67 H67        18.0409  -26.9121  -44.3227 H         1 UNK         0.0849 
     68 H68        18.1977  -26.8886  -46.0598 H         1 UNK         0.0849 
     69 H69        16.0795  -28.2218  -43.1427 H         1 UNK         0.0865 
     70 H70        15.2164  -29.3940  -44.1052 H         1 UNK         0.0865 
     71 H71        16.8647  -30.4447  -42.1190 H         1 UNK         0.1346 
     72 H72        20.4406  -32.0305  -43.8609 H         1 UNK         0.1412 
     73 H73        18.0867  -29.2109  -46.0472 H         1 UNK         0.1426 
     74 H74        19.9581  -31.0284  -47.0805 H         1 UNK         0.0716 
     75 H75        21.2608  -31.2248  -45.9357 H         1 UNK         0.0716 
     76 H76        22.1486  -28.9871  -44.4762 H         1 UNK         0.0695 
     77 H77        20.5853  -28.2205  -44.3483 H         1 UNK         0.0695 
     78 H78        23.1309  -26.9668  -45.5080 H         1 UNK         0.0983 
     79 H79        20.4531  -26.2264  -46.0515 H         1 UNK         0.3095 
     80 H80        20.7137  -22.7748  -46.2769 H         1 UNK         0.0454 
     81 H81        20.7448  -24.5909  -48.7503 H         1 UNK         0.0851 
     82 H82        21.8428  -23.2507  -48.4559 H         1 UNK         0.0851 
     83 H83        20.1325  -22.9370  -48.6866 H         1 UNK         0.0851 
     84 H84        18.7255  -24.5192  -47.2930 H         1 UNK         0.2976 
     85 H85        20.8550  -25.1328  -43.6010 H         1 UNK         0.3116 
     86 H86        20.7917  -24.2665  -41.5802 H         1 UNK         0.0646 
     87 H87        22.9196  -23.2245  -42.4187 H         1 UNK         0.0847 
     88 H88        23.8484  -24.4995  -41.6312 H         1 UNK         0.0847 
     89 H89        22.9049  -23.3706  -40.6701 H         1 UNK         0.0847 
     90 H90        20.7273  -27.2123  -41.7222 H         1 UNK         0.3040 
     91 H91        20.6302  -29.0688  -40.5559 H         1 UNK         0.1015 
     92 H92        20.7516  -27.3963  -37.9947 H         1 UNK         0.0786 
     93 H93        20.1580  -29.0429  -38.1467 H         1 UNK         0.0786 
     94 H94        19.2851  -27.7300  -38.9165 H         1 UNK         0.0786 
     95 H95        23.3493  -27.7794  -41.2054 H         1 UNK         0.3172 
     96 H96        25.1482  -29.0187  -39.2291 H         1 UNK         0.0595 
     97 H97        25.7432  -27.4543  -41.7963 H         1 UNK         0.0839 
     98 H98        26.9048  -27.9090  -40.5591 H         1 UNK         0.0839 
     99 H99        25.6350  -26.7555  -40.1812 H         1 UNK         0.0839 
    100 H100       23.6262  -29.9224  -42.1874 H         1 UNK         0.2998 
    101 H101       25.6536  -31.7485  -43.1845 H         1 UNK         0.0822 
    102 H102       23.9017  -32.2764  -44.8751 H         1 UNK         0.0787 
    103 H103       22.7246  -31.3372  -43.9674 H         1 UNK         0.0787 
    104 H104       24.1128  -30.5421  -44.7124 H         1 UNK         0.0787 
    105 H105       25.5088  -32.4928  -40.7242 H         1 UNK         0.3055 
    106 H106       25.3984  -34.1414  -39.2730 H         1 UNK         0.1106 
    107 H107       24.3402  -35.9373  -41.5213 H         1 UNK         0.0828 
    108 H108       24.9234  -36.4805  -39.9579 H         1 UNK         0.0828 
    109 H109       26.0283  -35.7013  -41.0782 H         1 UNK         0.0828 
    110 H110       22.4203  -34.5360  -41.1963 H         1 UNK         0.2931 
    111 H111       20.2905  -34.8521  -40.7099 H         1 UNK         0.0412 
    112 H112       19.2223  -36.3208  -37.3597 H         1 UNK         0.3472 
    113 H113       18.8329  -34.7615  -38.0322 H         1 UNK         0.3472 
    114 H114       20.7981  -32.7495  -38.5456 H         1 UNK         0.0970 
    115 H115       19.2140  -33.1871  -39.1238 H         1 UNK         0.0970 
    116 H116       18.8393  -33.2869  -41.9939 H         1 UNK         0.0612 
    117 H117       18.0213  -32.1346  -40.9636 H         1 UNK         0.0612 
@<TRIPOS>BOND
     1    1    2 1    
     2    1   62 1    
     3    1   63 1    
     4    1   64 1    
     5    2    3 2    
     6    2    4 am   BACKBONE|DICT|INTERRES
     7    4    5 1    
     8    4   65 1    
     9    5    6 1    
    10    5   25 1    
    11    5   66 1    
    12    6    7 1    
    13    6   67 1    
    14    6   68 1    
    15    7    8 1    
    16    8    9 1    
    17    8   69 1    
    18    8   70 1    
    19    9   10 ar   
    20    9   14 ar   
    21   10   11 ar   
    22   10   71 1    
    23   11   12 ar   
    24   11   61 1    
    25   12   13 ar   
    26   12   72 1    
    27   13   14 ar   
    28   13   15 1    
    29   14   73 1    
    30   15   16 1    
    31   15   74 1    
    32   15   75 1    
    33   16   17 1    
    34   17   18 1    
    35   17   76 1    
    36   17   77 1    
    37   18   19 1    
    38   18   27 1    
    39   18   78 1    
    40   19   20 am   BACKBONE|DICT|INTERRES
    41   19   79 1    
    42   20   21 2    
    43   20   22 1    
    44   22   23 1    
    45   22   24 1    
    46   22   80 1    
    47   23   81 1    
    48   23   82 1    
    49   23   83 1    
    50   24   25 am   BACKBONE|DICT|INTERRES
    51   24   84 1    
    52   25   26 2    
    53   27   28 2    
    54   27   29 am   BACKBONE|DICT|INTERRES
    55   29   30 1    
    56   29   85 1    
    57   30   31 1    
    58   30   32 1    
    59   30   86 1    
    60   31   87 1    
    61   31   88 1    
    62   31   89 1    
    63   32   33 2    
    64   32   34 am   BACKBONE|DICT|INTERRES
    65   34   35 1    
    66   34   90 1    
    67   35   36 1    
    68   35   37 1    
    69   35   91 1    
    70   36   92 1    
    71   36   93 1    
    72   36   94 1    
    73   37   38 2    
    74   37   39 am   BACKBONE|DICT|INTERRES
    75   39   40 1    
    76   39   95 1    
    77   40   41 1    
    78   40   42 1    
    79   40   96 1    
    80   41   97 1    
    81   41   98 1    
    82   41   99 1    
    83   42   43 2    
    84   42   44 am   BACKBONE|DICT|INTERRES
    85   44   45 1    
    86   44  100 1    
    87   45   46 1    
    88   45   47 1    
    89   45  101 1    
    90   46  102 1    
    91   46  103 1    
    92   46  104 1    
    93   47   48 2    
    94   47   49 am   BACKBONE|DICT|INTERRES
    95   49   50 1    
    96   49  105 1    
    97   50   51 1    
    98   50   52 1    
    99   50  106 1    
   100   51  107 1    
   101   51  108 1    
   102   51  109 1    
   103   52   53 2    
   104   52   54 am   BACKBONE|DICT|INTERRES
   105   54   55 1    
   106   54  110 1    
   107   55   56 1    
   108   55   59 1    
   109   55  111 1    
   110   56   57 am   BACKBONE|DICT|INTERRES
   111   56   58 2    
   112   57  112 1    
   113   57  113 1    
   114   59   60 1    
   115   59  114 1    
   116   59  115 1    
   117   60   61 1    
   118   61  116 1    
   119   61  117 1    
@<TRIPOS>SUBSTRUCTURE
     1 UNK         1 GROUP             0       ****    0 ROOT    
