@<TRIPOS>MOLECULE
3R8
117   119    1
SMALL
USER_CHARGES


@<TRIPOS>ATOM
      1 CA         18.0280  -29.0467  -41.2598 C.3       0 UNK        -0.2013 
      2 C          17.9540  -27.6310  -41.8009 C.2       0 UNK         0.4866 
      3 O          18.3728  -26.6863  -41.1323 O.2       0 UNK        -0.5176 
      4 N          17.4328  -27.4767  -43.0220 N.am      1 UNK        -0.4884 
      5 CA         17.1430  -26.1946  -43.6781 C.3       1 UNK         0.0853 
      6 C6         16.0239  -26.3533  -44.7418 C.3       10 UNK        -0.0849 
      7 S7         14.5377  -27.1875  -44.0796 S.3       10 UNK        -0.2776 
      8 C8         14.3709  -28.6238  -45.1903 C.3       10 UNK         0.0316 
      9 C9         15.4536  -29.6817  -44.9941 C.ar      10 UNK        -0.0863 
     10 C10        15.3383  -30.6316  -43.9726 C.ar      10 UNK        -0.1009 
     11 C11        16.2609  -31.6794  -43.8651 C.ar      10 UNK        -0.0712 
     12 C12        17.3078  -31.7656  -44.7865 C.ar      10 UNK        -0.0894 
     13 C13        17.4676  -30.7948  -45.7792 C.ar      10 UNK        -0.0745 
     14 C14        16.5312  -29.7609  -45.8827 C.ar      10 UNK        -0.0972 
     15 C15        18.6422  -30.8663  -46.7515 C.3       10 UNK         0.0209 
     16 S16        20.2631  -30.9232  -45.9109 S.3       10 UNK        -0.2568 
     17 C17        20.1473  -29.4939  -44.7867 C.3       10 UNK        -0.0983 
     18 CA         21.4076  -28.6049  -44.7708 C.3       3 UNK         0.0876 
     19 N          21.0918  -27.3561  -44.0954 N.am      3 UNK        -0.4424 
     20 C          21.5030  -26.1343  -44.4472 C.2       2 UNK         0.4918 
     21 O          22.3237  -25.9108  -45.3381 O.2       2 UNK        -0.4875 
     22 CA         20.8155  -24.9755  -43.6915 C.3       2 UNK         0.0481 
     23 CB         20.9477  -23.6189  -44.4140 C.3       2 UNK        -0.1831 
     24 N          19.4081  -25.2886  -43.3860 N.am      2 UNK        -0.4498 
     25 C          18.4287  -25.5667  -44.2639 C.2       1 UNK         0.5027 
     26 O          18.5400  -25.4166  -45.4819 O.2       1 UNK        -0.4969 
     27 C          22.6016  -29.2455  -44.0438 C.2       3 UNK         0.5005 
     28 O          22.4490  -29.6973  -42.9021 O.2       3 UNK        -0.5279 
     29 N          23.7627  -29.2195  -44.7152 N.am      4 UNK        -0.4463 
     30 CA         25.1188  -29.4753  -44.2106 C.3       4 UNK         0.0283 
     31 CB         25.2316  -30.8360  -43.4917 C.3       4 UNK        -0.1875 
     32 C          25.6288  -28.3205  -43.3300 C.2       4 UNK         0.4949 
     33 O          24.8494  -27.4718  -42.8935 O.2       4 UNK        -0.5039 
     34 N          26.9434  -28.3094  -43.0693 N.am      5 UNK        -0.4663 
     35 CA         27.6318  -27.2750  -42.2816 C.3       5 UNK         0.0242 
     36 CB         29.1469  -27.5324  -42.3210 C.3       5 UNK        -0.1982 
     37 C          27.1427  -27.1606  -40.8252 C.2       5 UNK         0.5017 
     38 O          27.2212  -26.0791  -40.2421 O.2       5 UNK        -0.5012 
     39 N          26.6298  -28.2708  -40.2798 N.am      6 UNK        -0.4439 
     40 CA         25.9995  -28.3456  -38.9625 C.3       6 UNK         0.0297 
     41 CB         26.0266  -29.8085  -38.4871 C.3       6 UNK        -0.2006 
     42 C          24.5548  -27.8087  -38.9356 C.2       6 UNK         0.4892 
     43 O          24.0470  -27.5728  -37.8389 O.2       6 UNK        -0.5089 
     44 N          23.9153  -27.6592  -40.1110 N.am      7 UNK        -0.4243 
     45 CA         22.4920  -27.3524  -40.3176 C.3       7 UNK         0.0196 
     46 CB         22.1799  -25.8923  -39.9303 C.3       7 UNK        -0.2007 
     47 C          21.5927  -28.3790  -39.6022 C.2       7 UNK         0.5020 
     48 O          20.7960  -28.0165  -38.7351 O.2       7 UNK        -0.5147 
     49 N          21.7944  -29.6589  -39.9384 N.am      8 UNK        -0.4734 
     50 CA         21.2573  -30.8036  -39.1968 C.3       8 UNK         0.0238 
     51 CB         22.2690  -31.2254  -38.1116 C.3       8 UNK        -0.1912 
     52 C          20.8645  -31.9606  -40.1284 C.2       8 UNK         0.5038 
     53 O          21.0106  -33.1239  -39.7492 O.2       8 UNK        -0.5046 
     54 N          20.3714  -31.6204  -41.3258 N.am      9 UNK        -0.4200 
     55 CA         19.9449  -32.5578  -42.3796 C.3       9 UNK         0.0839 
     56 C          21.1302  -33.3419  -43.0165 C.2       9 UNK         0.5513 
     57 N          22.3078  -32.7398  -43.1290 N.am      9 UNK        -0.7519 
     58 O          20.9875  -34.4925  -43.4229 O.2       9 UNK        -0.4960 
     59 C59        18.7443  -33.4651  -41.9738 C.3       10 UNK        -0.0876 
     60 S60        17.2756  -32.5321  -41.4082 S.3       10 UNK        -0.2414 
     61 C61        16.0991  -32.7436  -42.7862 C.3       10 UNK         0.0169 
     62 H62        18.0980  -29.7746  -42.0671 H         1 UNK         0.0903 
     63 H63        18.8930  -29.1644  -40.6104 H         1 UNK         0.0903 
     64 H64        17.1359  -29.2706  -40.6755 H         1 UNK         0.0903 
     65 H65        17.0915  -28.2893  -43.5187 H         1 UNK         0.3096 
     66 H66        16.7725  -25.5002  -42.9201 H         1 UNK         0.1121 
     67 H67        16.3900  -26.9031  -45.6095 H         1 UNK         0.0849 
     68 H68        15.7214  -25.3738  -45.1167 H         1 UNK         0.0849 
     69 H69        13.3944  -29.0793  -45.0188 H         1 UNK         0.0865 
     70 H70        14.3555  -28.2784  -46.2254 H         1 UNK         0.0865 
     71 H71        14.5077  -30.5735  -43.2821 H         1 UNK         0.1346 
     72 H72        18.0096  -32.5851  -44.7278 H         1 UNK         0.1412 
     73 H73        16.6281  -29.0306  -46.6746 H         1 UNK         0.1426 
     74 H74        18.6352  -30.0119  -47.4302 H         1 UNK         0.0716 
     75 H75        18.5352  -31.7554  -47.3740 H         1 UNK         0.0716 
     76 H76        19.8926  -29.8330  -43.7841 H         1 UNK         0.0695 
     77 H77        19.3015  -28.8850  -45.1101 H         1 UNK         0.0695 
     78 H78        21.6824  -28.3913  -45.8066 H         1 UNK         0.0983 
     79 H79        20.4469  -27.4286  -43.3249 H         1 UNK         0.3095 
     80 H80        21.3265  -24.8897  -42.7318 H         1 UNK         0.0454 
     81 H81        20.5240  -23.6482  -45.4181 H         1 UNK         0.0851 
     82 H82        21.9953  -23.3329  -44.5146 H         1 UNK         0.0851 
     83 H83        20.4473  -22.8243  -43.8611 H         1 UNK         0.0851 
     84 H84        19.2004  -25.4933  -42.4108 H         1 UNK         0.2976 
     85 H85        23.7428  -28.7978  -45.6335 H         1 UNK         0.3116 
     86 H86        25.7594  -29.5090  -45.0932 H         1 UNK         0.0646 
     87 H87        24.7191  -30.8399  -42.5295 H         1 UNK         0.0847 
     88 H88        26.2733  -31.0926  -43.2977 H         1 UNK         0.0847 
     89 H89        24.8158  -31.6382  -44.1006 H         1 UNK         0.0847 
     90 H90        27.5243  -29.0350  -43.4661 H         1 UNK         0.3040 
     91 H91        27.4348  -26.3125  -42.7593 H         1 UNK         0.1015 
     92 H92        29.4050  -28.4967  -41.8811 H         1 UNK         0.0786 
     93 H93        29.6879  -26.7655  -41.7645 H         1 UNK         0.0786 
     94 H94        29.5270  -27.5153  -43.3427 H         1 UNK         0.0786 
     95 H95        26.6262  -29.1111  -40.8392 H         1 UNK         0.3172 
     96 H96        26.5852  -27.7483  -38.2603 H         1 UNK         0.0595 
     97 H97        25.4641  -30.4617  -39.1553 H         1 UNK         0.0839 
     98 H98        25.5866  -29.9053  -37.4933 H         1 UNK         0.0839 
     99 H99        27.0467  -30.1879  -38.4245 H         1 UNK         0.0839 
    100 H100       24.4372  -27.8179  -40.9670 H         1 UNK         0.2998 
    101 H101       22.3026  -27.4558  -41.3862 H         1 UNK         0.0822 
    102 H102       22.8039  -25.1940  -40.4879 H         1 UNK         0.0787 
    103 H103       21.1395  -25.6473  -40.1485 H         1 UNK         0.0787 
    104 H104       22.3400  -25.7102  -38.8672 H         1 UNK         0.0787 
    105 H105       22.4108  -29.8645  -40.7183 H         1 UNK         0.3055 
    106 H106       20.3314  -30.5107  -38.6965 H         1 UNK         0.1106 
    107 H107       21.8687  -32.0260  -37.4883 H         1 UNK         0.0828 
    108 H108       23.1995  -31.5857  -38.5510 H         1 UNK         0.0828 
    109 H109       22.5116  -30.3941  -37.4492 H         1 UNK         0.0828 
    110 H110       20.3598  -30.6429  -41.5722 H         1 UNK         0.2931 
    111 H111       19.5826  -31.9284  -43.1857 H         1 UNK         0.0412 
    112 H112       23.0767  -33.2420  -43.5413 H         1 UNK         0.3472 
    113 H113       22.4140  -31.7679  -42.8652 H         1 UNK         0.3472 
    114 H114       18.4549  -34.1045  -42.8088 H         1 UNK         0.0970 
    115 H115       19.0388  -34.1492  -41.1770 H         1 UNK         0.0970 
    116 H116       15.0893  -32.7024  -42.3754 H         1 UNK         0.0612 
    117 H117       16.2004  -33.7383  -43.2222 H         1 UNK         0.0612 
@<TRIPOS>BOND
     1    1    2 1    
     2    1   62 1    
     3    1   63 1    
     4    1   64 1    
     5    2    3 2    
     6    2    4 am   BACKBONE|DICT|INTERRES
     7    4    5 1    
     8    4   65 1    
     9    5    6 1    
    10    5   25 1    
    11    5   66 1    
    12    6    7 1    
    13    6   67 1    
    14    6   68 1    
    15    7    8 1    
    16    8    9 1    
    17    8   69 1    
    18    8   70 1    
    19    9   10 ar   
    20    9   14 ar   
    21   10   11 ar   
    22   10   71 1    
    23   11   12 ar   
    24   11   61 1    
    25   12   13 ar   
    26   12   72 1    
    27   13   14 ar   
    28   13   15 1    
    29   14   73 1    
    30   15   16 1    
    31   15   74 1    
    32   15   75 1    
    33   16   17 1    
    34   17   18 1    
    35   17   76 1    
    36   17   77 1    
    37   18   19 1    
    38   18   27 1    
    39   18   78 1    
    40   19   20 am   BACKBONE|DICT|INTERRES
    41   19   79 1    
    42   20   21 2    
    43   20   22 1    
    44   22   23 1    
    45   22   24 1    
    46   22   80 1    
    47   23   81 1    
    48   23   82 1    
    49   23   83 1    
    50   24   25 am   BACKBONE|DICT|INTERRES
    51   24   84 1    
    52   25   26 2    
    53   27   28 2    
    54   27   29 am   BACKBONE|DICT|INTERRES
    55   29   30 1    
    56   29   85 1    
    57   30   31 1    
    58   30   32 1    
    59   30   86 1    
    60   31   87 1    
    61   31   88 1    
    62   31   89 1    
    63   32   33 2    
    64   32   34 am   BACKBONE|DICT|INTERRES
    65   34   35 1    
    66   34   90 1    
    67   35   36 1    
    68   35   37 1    
    69   35   91 1    
    70   36   92 1    
    71   36   93 1    
    72   36   94 1    
    73   37   38 2    
    74   37   39 am   BACKBONE|DICT|INTERRES
    75   39   40 1    
    76   39   95 1    
    77   40   41 1    
    78   40   42 1    
    79   40   96 1    
    80   41   97 1    
    81   41   98 1    
    82   41   99 1    
    83   42   43 2    
    84   42   44 am   BACKBONE|DICT|INTERRES
    85   44   45 1    
    86   44  100 1    
    87   45   46 1    
    88   45   47 1    
    89   45  101 1    
    90   46  102 1    
    91   46  103 1    
    92   46  104 1    
    93   47   48 2    
    94   47   49 am   BACKBONE|DICT|INTERRES
    95   49   50 1    
    96   49  105 1    
    97   50   51 1    
    98   50   52 1    
    99   50  106 1    
   100   51  107 1    
   101   51  108 1    
   102   51  109 1    
   103   52   53 2    
   104   52   54 am   BACKBONE|DICT|INTERRES
   105   54   55 1    
   106   54  110 1    
   107   55   56 1    
   108   55   59 1    
   109   55  111 1    
   110   56   57 am   BACKBONE|DICT|INTERRES
   111   56   58 2    
   112   57  112 1    
   113   57  113 1    
   114   59   60 1    
   115   59  114 1    
   116   59  115 1    
   117   60   61 1    
   118   61  116 1    
   119   61  117 1    
@<TRIPOS>SUBSTRUCTURE
     1 UNK         1 GROUP             0       ****    0 ROOT    
