@<TRIPOS>MOLECULE
3R8
117   119    1
SMALL
USER_CHARGES


@<TRIPOS>ATOM
      1 CA         14.8496  -23.5233  -44.0551 C.3       0 UNK        -0.2013 
      2 C          15.9846  -24.5341  -44.1097 C.2       0 UNK         0.4866 
      3 O          16.8428  -24.4465  -44.9884 O.2       0 UNK        -0.5176 
      4 N          16.0123  -25.4833  -43.1658 N.am      1 UNK        -0.4884 
      5 CA         16.9820  -26.5860  -43.0627 C.3       1 UNK         0.0853 
      6 C6         16.3978  -27.7725  -42.2480 C.3       10 UNK        -0.0849 
      7 S7         14.9268  -28.4945  -43.0565 S.3       10 UNK        -0.2776 
      8 C8         15.3925  -30.2555  -43.2272 C.3       10 UNK         0.0316 
      9 C9         16.6975  -30.5037  -43.9839 C.ar      10 UNK        -0.0863 
     10 C10        17.5415  -31.5414  -43.5741 C.ar      10 UNK        -0.1009 
     11 C11        18.7409  -31.7947  -44.2462 C.ar      10 UNK        -0.0712 
     12 C12        19.1093  -30.9881  -45.3272 C.ar      10 UNK        -0.0894 
     13 C13        18.2682  -29.9589  -45.7587 C.ar      10 UNK        -0.0745 
     14 C14        17.0590  -29.7327  -45.0946 C.ar      10 UNK        -0.0972 
     15 C15        18.6428  -29.1039  -46.9588 C.3       10 UNK         0.0209 
     16 S16        19.1215  -27.4231  -46.4579 S.3       10 UNK        -0.2568 
     17 C17        20.8714  -27.6431  -45.9840 C.3       10 UNK        -0.0983 
     18 CA         21.6008  -26.2726  -45.9598 C.3       3 UNK         0.0876 
     19 N          21.0089  -25.3656  -44.9641 N.am      3 UNK        -0.4424 
     20 C          21.2310  -25.3318  -43.6408 C.2       2 UNK         0.4918 
     21 O          22.1327  -25.9347  -43.0621 O.2       2 UNK        -0.4875 
     22 CA         20.2291  -24.5094  -42.8187 C.3       2 UNK         0.0481 
     23 CB         20.3135  -23.0101  -43.1504 C.3       2 UNK        -0.1831 
     24 N          18.8715  -25.0014  -43.0533 N.am      2 UNK        -0.4498 
     25 C          18.3618  -26.1253  -42.5305 C.2       1 UNK         0.5027 
     26 O          18.9371  -26.7825  -41.6615 O.2       1 UNK        -0.4969 
     27 C          23.1396  -26.3863  -45.8630 C.2       3 UNK         0.5005 
     28 O          23.6774  -27.4916  -45.7797 O.2       3 UNK        -0.5279 
     29 N          23.8092  -25.2218  -45.8676 N.am      4 UNK        -0.4463 
     30 CA         25.2619  -25.0320  -45.7447 C.3       4 UNK         0.0283 
     31 CB         26.0110  -25.6454  -46.9481 C.3       4 UNK        -0.1875 
     32 C          25.8116  -25.5022  -44.3825 C.2       4 UNK         0.4949 
     33 O          26.8377  -26.1822  -44.3298 O.2       4 UNK        -0.5039 
     34 N          25.1108  -25.1070  -43.3090 N.am      5 UNK        -0.4663 
     35 CA         25.3853  -25.4081  -41.8975 C.3       5 UNK         0.0242 
     36 CB         26.7100  -24.7597  -41.4391 C.3       5 UNK        -0.1982 
     37 C          25.3025  -26.9143  -41.5823 C.2       5 UNK         0.5017 
     38 O          26.1839  -27.4600  -40.9144 O.2       5 UNK        -0.5012 
     39 N          24.2349  -27.5564  -42.0705 N.am      6 UNK        -0.4439 
     40 CA         23.8928  -28.9467  -41.7791 C.3       6 UNK         0.0297 
     41 CB         22.8941  -29.4457  -42.8353 C.3       6 UNK        -0.2006 
     42 C          23.2929  -29.0777  -40.3695 C.2       6 UNK         0.4892 
     43 O          22.6172  -28.1586  -39.8995 O.2       6 UNK        -0.5089 
     44 N          23.5218  -30.2309  -39.7356 N.am      7 UNK        -0.4243 
     45 CA         22.9734  -30.5988  -38.4343 C.3       7 UNK         0.0196 
     46 CB         23.8022  -29.9645  -37.3019 C.3       7 UNK        -0.2007 
     47 C          22.9785  -32.1253  -38.3275 C.2       7 UNK         0.5020 
     48 O          23.8899  -32.7634  -38.8593 O.2       7 UNK        -0.5147 
     49 N          21.9643  -32.6750  -37.6435 N.am      8 UNK        -0.4734 
     50 CA         21.7478  -34.1051  -37.3593 C.3       8 UNK         0.0238 
     51 CB         22.8355  -34.6313  -36.3978 C.3       8 UNK        -0.1912 
     52 C          21.5940  -35.0031  -38.6079 C.2       8 UNK         0.5038 
     53 O          21.7499  -36.2210  -38.5005 O.2       8 UNK        -0.5046 
     54 N          21.2893  -34.3979  -39.7624 N.am      9 UNK        -0.4200 
     55 CA         21.1516  -35.0677  -41.0631 C.3       9 UNK         0.0839 
     56 C          19.7729  -35.7457  -41.3125 C.2       9 UNK         0.5513 
     57 N          18.7876  -35.5962  -40.4351 N.am      9 UNK        -0.7519 
     58 O          19.6002  -36.4325  -42.3160 O.2       9 UNK        -0.4960 
     59 C59        21.5825  -34.1311  -42.2225 C.3       10 UNK        -0.0876 
     60 S60        20.6031  -32.5925  -42.3527 S.3       10 UNK        -0.2414 
     61 C61        19.6151  -32.9674  -43.8313 C.3       10 UNK         0.0169 
     62 H62        14.1665  -23.7207  -43.2293 H         1 UNK         0.0903 
     63 H63        15.2489  -22.5169  -43.9326 H         1 UNK         0.0903 
     64 H64        14.2778  -23.5526  -44.9822 H         1 UNK         0.0903 
     65 H65        15.2875  -25.4902  -42.4619 H         1 UNK         0.3096 
     66 H66        17.1767  -26.9514  -44.0734 H         1 UNK         0.1121 
     67 H67        16.1229  -27.4502  -41.2422 H         1 UNK         0.0849 
     68 H68        17.1451  -28.5572  -42.1159 H         1 UNK         0.0849 
     69 H69        15.4487  -30.6881  -42.2269 H         1 UNK         0.0865 
     70 H70        14.5877  -30.7808  -43.7430 H         1 UNK         0.0865 
     71 H71        17.2645  -32.1634  -42.7335 H         1 UNK         0.1346 
     72 H72        20.0396  -31.1755  -45.8458 H         1 UNK         0.1412 
     73 H73        16.4060  -28.9429  -45.4398 H         1 UNK         0.1426 
     74 H74        17.7840  -29.0363  -47.6282 H         1 UNK         0.0716 
     75 H75        19.4437  -29.5640  -47.5394 H         1 UNK         0.0716 
     76 H76        21.3392  -28.3177  -46.7033 H         1 UNK         0.0695 
     77 H77        20.9232  -28.1341  -45.0107 H         1 UNK         0.0695 
     78 H78        21.4252  -25.8041  -46.9301 H         1 UNK         0.0983 
     79 H79        20.2353  -24.8188  -45.3131 H         1 UNK         0.3095 
     80 H80        20.4734  -24.6331  -41.7614 H         1 UNK         0.0454 
     81 H81        20.0317  -22.7969  -44.1820 H         1 UNK         0.0851 
     82 H82        21.3272  -22.6350  -43.0034 H         1 UNK         0.0851 
     83 H83        19.6585  -22.4281  -42.5020 H         1 UNK         0.0851 
     84 H84        18.3203  -24.5457  -43.7757 H         1 UNK         0.2976 
     85 H85        23.2633  -24.3728  -45.9290 H         1 UNK         0.3116 
     86 H86        25.4301  -23.9544  -45.7781 H         1 UNK         0.0646 
     87 H87        25.6144  -25.2768  -47.8938 H         1 UNK         0.0847 
     88 H88        25.9457  -26.7338  -46.9575 H         1 UNK         0.0847 
     89 H89        27.0702  -25.3870  -46.9196 H         1 UNK         0.0847 
     90 H90        24.2521  -24.6023  -43.4796 H         1 UNK         0.3040 
     91 H91        24.5810  -24.9428  -41.3248 H         1 UNK         0.1015 
     92 H92        27.5744  -25.2087  -41.9292 H         1 UNK         0.0786 
     93 H93        26.8500  -24.8787  -40.3640 H         1 UNK         0.0786 
     94 H94        26.7223  -23.6903  -41.6497 H         1 UNK         0.0786 
     95 H95        23.5210  -27.0067  -42.5466 H         1 UNK         0.3172 
     96 H96        24.8000  -29.5516  -41.8418 H         1 UNK         0.0595 
     97 H97        21.9553  -28.8908  -42.7971 H         1 UNK         0.0839 
     98 H98        22.6592  -30.4986  -42.6819 H         1 UNK         0.0839 
     99 H99        23.2988  -29.3503  -43.8426 H         1 UNK         0.0839 
    100 H100       24.0605  -30.9631  -40.1827 H         1 UNK         0.2998 
    101 H101       21.9414  -30.2458  -38.3720 H         1 UNK         0.0822 
    102 H102       23.7793  -28.8757  -37.3528 H         1 UNK         0.0787 
    103 H103       23.4128  -30.2506  -36.3241 H         1 UNK         0.0787 
    104 H104       24.8457  -30.2793  -37.3439 H         1 UNK         0.0787 
    105 H105       21.2651  -32.0532  -37.2584 H         1 UNK         0.3055 
    106 H106       20.7920  -34.1698  -36.8366 H         1 UNK         0.1106 
    107 H107       22.9151  -34.0070  -35.5079 H         1 UNK         0.0828 
    108 H108       23.8158  -34.6623  -36.8745 H         1 UNK         0.0828 
    109 H109       22.6076  -35.6429  -36.0596 H         1 UNK         0.0828 
    110 H110       21.1590  -33.3975  -39.7665 H         1 UNK         0.2931 
    111 H111       21.8668  -35.8926  -41.0700 H         1 UNK         0.0412 
    112 H112       17.9017  -36.0463  -40.6047 H         1 UNK         0.3472 
    113 H113       18.9201  -35.0361  -39.6088 H         1 UNK         0.3472 
    114 H114       21.5671  -34.6691  -43.1722 H         1 UNK         0.0970 
    115 H115       22.6249  -33.8423  -42.0786 H         1 UNK         0.0970 
    116 H116       20.2821  -33.2458  -44.6488 H         1 UNK         0.0612 
    117 H117       18.9876  -33.8381  -43.6353 H         1 UNK         0.0612 
@<TRIPOS>BOND
     1    1    2 1    
     2    1   62 1    
     3    1   63 1    
     4    1   64 1    
     5    2    3 2    
     6    2    4 am   BACKBONE|DICT|INTERRES
     7    4    5 1    
     8    4   65 1    
     9    5    6 1    
    10    5   25 1    
    11    5   66 1    
    12    6    7 1    
    13    6   67 1    
    14    6   68 1    
    15    7    8 1    
    16    8    9 1    
    17    8   69 1    
    18    8   70 1    
    19    9   10 ar   
    20    9   14 ar   
    21   10   11 ar   
    22   10   71 1    
    23   11   12 ar   
    24   11   61 1    
    25   12   13 ar   
    26   12   72 1    
    27   13   14 ar   
    28   13   15 1    
    29   14   73 1    
    30   15   16 1    
    31   15   74 1    
    32   15   75 1    
    33   16   17 1    
    34   17   18 1    
    35   17   76 1    
    36   17   77 1    
    37   18   19 1    
    38   18   27 1    
    39   18   78 1    
    40   19   20 am   BACKBONE|DICT|INTERRES
    41   19   79 1    
    42   20   21 2    
    43   20   22 1    
    44   22   23 1    
    45   22   24 1    
    46   22   80 1    
    47   23   81 1    
    48   23   82 1    
    49   23   83 1    
    50   24   25 am   BACKBONE|DICT|INTERRES
    51   24   84 1    
    52   25   26 2    
    53   27   28 2    
    54   27   29 am   BACKBONE|DICT|INTERRES
    55   29   30 1    
    56   29   85 1    
    57   30   31 1    
    58   30   32 1    
    59   30   86 1    
    60   31   87 1    
    61   31   88 1    
    62   31   89 1    
    63   32   33 2    
    64   32   34 am   BACKBONE|DICT|INTERRES
    65   34   35 1    
    66   34   90 1    
    67   35   36 1    
    68   35   37 1    
    69   35   91 1    
    70   36   92 1    
    71   36   93 1    
    72   36   94 1    
    73   37   38 2    
    74   37   39 am   BACKBONE|DICT|INTERRES
    75   39   40 1    
    76   39   95 1    
    77   40   41 1    
    78   40   42 1    
    79   40   96 1    
    80   41   97 1    
    81   41   98 1    
    82   41   99 1    
    83   42   43 2    
    84   42   44 am   BACKBONE|DICT|INTERRES
    85   44   45 1    
    86   44  100 1    
    87   45   46 1    
    88   45   47 1    
    89   45  101 1    
    90   46  102 1    
    91   46  103 1    
    92   46  104 1    
    93   47   48 2    
    94   47   49 am   BACKBONE|DICT|INTERRES
    95   49   50 1    
    96   49  105 1    
    97   50   51 1    
    98   50   52 1    
    99   50  106 1    
   100   51  107 1    
   101   51  108 1    
   102   51  109 1    
   103   52   53 2    
   104   52   54 am   BACKBONE|DICT|INTERRES
   105   54   55 1    
   106   54  110 1    
   107   55   56 1    
   108   55   59 1    
   109   55  111 1    
   110   56   57 am   BACKBONE|DICT|INTERRES
   111   56   58 2    
   112   57  112 1    
   113   57  113 1    
   114   59   60 1    
   115   59  114 1    
   116   59  115 1    
   117   60   61 1    
   118   61  116 1    
   119   61  117 1    
@<TRIPOS>SUBSTRUCTURE
     1 UNK         1 GROUP             0       ****    0 ROOT    
