@<TRIPOS>MOLECULE
3R8
117   119    1
SMALL
USER_CHARGES


@<TRIPOS>ATOM
      1 CA         22.2445  -23.3735  -46.1816 C.3       0 UNK        -0.2013 
      2 C          22.1924  -24.8932  -46.2341 C.2       0 UNK         0.4866 
      3 O          22.6966  -25.4919  -47.1840 O.2       0 UNK        -0.5176 
      4 N          21.5926  -25.5192  -45.2171 N.am      1 UNK        -0.4884 
      5 CA         21.5010  -26.9674  -45.0419 C.3       1 UNK         0.0853 
      6 C6         20.4255  -27.6108  -45.9556 C.3       10 UNK        -0.0849 
      7 S7         20.8460  -29.3308  -46.3847 S.3       10 UNK        -0.2776 
      8 C8         19.2076  -29.9903  -46.8111 C.3       10 UNK         0.0316 
      9 C9         18.4011  -30.3498  -45.5725 C.ar      10 UNK        -0.0863 
     10 C10        18.7009  -31.5187  -44.8692 C.ar      10 UNK        -0.1009 
     11 C11        17.9241  -31.9170  -43.7760 C.ar      10 UNK        -0.0712 
     12 C12        16.8500  -31.1128  -43.3778 C.ar      10 UNK        -0.0894 
     13 C13        16.5530  -29.9246  -44.0576 C.ar      10 UNK        -0.0745 
     14 C14        17.3335  -29.5490  -45.1555 C.ar      10 UNK        -0.0972 
     15 C15        15.3434  -29.0883  -43.6552 C.3       10 UNK         0.0209 
     16 S16        15.4209  -28.4914  -41.9350 S.3       10 UNK        -0.2568 
     17 C17        16.3350  -26.9158  -42.0646 C.3       10 UNK        -0.0983 
     18 CA         17.5850  -26.9236  -41.1513 C.3       3 UNK         0.0876 
     19 N          18.6419  -27.7779  -41.7024 N.am      3 UNK        -0.4424 
     20 C          19.6979  -28.2237  -41.0124 C.2       2 UNK         0.4918 
     21 O          19.8730  -28.0066  -39.8146 O.2       2 UNK        -0.4875 
     22 CA         20.7809  -28.9664  -41.8077 C.3       2 UNK         0.0481 
     23 CB         20.4916  -30.4692  -41.7908 C.3       2 UNK        -0.1831 
     24 N          20.9343  -28.5005  -43.1926 N.am      2 UNK        -0.4498 
     25 C          21.3012  -27.2599  -43.5426 C.2       1 UNK         0.5027 
     26 O          21.4778  -26.3575  -42.7185 O.2       1 UNK        -0.4969 
     27 C          18.0725  -25.4931  -40.8057 C.2       3 UNK         0.5005 
     28 O          17.3754  -24.7901  -40.0724 O.2       3 UNK        -0.5279 
     29 N          19.2617  -25.0996  -41.2879 N.am      4 UNK        -0.4463 
     30 CA         19.9854  -23.8840  -40.9017 C.3       4 UNK         0.0283 
     31 CB         20.3378  -23.0912  -42.1738 C.3       4 UNK        -0.1875 
     32 C          21.2560  -24.2132  -40.0874 C.2       4 UNK         0.4949 
     33 O          22.0800  -23.3218  -39.8831 O.2       4 UNK        -0.5039 
     34 N          21.4067  -25.4773  -39.6549 N.am      5 UNK        -0.4663 
     35 CA         22.5403  -26.0571  -38.9197 C.3       5 UNK         0.0242 
     36 CB         22.6689  -25.4191  -37.5197 C.3       5 UNK        -0.1982 
     37 C          23.8736  -26.0581  -39.6985 C.2       5 UNK         0.5017 
     38 O          24.9361  -26.1001  -39.0759 O.2       5 UNK        -0.5012 
     39 N          23.8061  -26.0253  -41.0367 N.am      6 UNK        -0.4439 
     40 CA         24.9656  -25.9615  -41.9330 C.3       6 UNK         0.0297 
     41 CB         24.6740  -24.9289  -43.0351 C.3       6 UNK        -0.2006 
     42 C          25.3387  -27.3244  -42.5482 C.2       6 UNK         0.4892 
     43 O          26.3028  -27.3849  -43.3125 O.2       6 UNK        -0.5089 
     44 N          24.5879  -28.3856  -42.2295 N.am      7 UNK        -0.4243 
     45 CA         24.7844  -29.7518  -42.7158 C.3       7 UNK         0.0196 
     46 CB         24.2508  -29.8884  -44.1596 C.3       7 UNK        -0.2007 
     47 C          24.1069  -30.7308  -41.7435 C.2       7 UNK         0.5020 
     48 O          23.7205  -30.3295  -40.6432 O.2       7 UNK        -0.5147 
     49 N          23.9512  -31.9893  -42.1667 N.am      8 UNK        -0.4734 
     50 CA         23.2139  -33.0344  -41.4600 C.3       8 UNK         0.0238 
     51 CB         24.1351  -33.7371  -40.4465 C.3       8 UNK        -0.1912 
     52 C          22.6696  -34.0325  -42.4897 C.2       8 UNK         0.5038 
     53 O          23.3323  -34.2682  -43.5037 O.2       8 UNK        -0.5046 
     54 N          21.5005  -34.6150  -42.1999 N.am      9 UNK        -0.4200 
     55 CA         20.9404  -35.7610  -42.9332 C.3       9 UNK         0.0839 
     56 C          21.5296  -37.0909  -42.3915 C.2       9 UNK         0.5513 
     57 N          21.6835  -38.0929  -43.2456 N.am      9 UNK        -0.7519 
     58 O          21.8113  -37.2346  -41.2030 O.2       9 UNK        -0.4960 
     59 C59        19.3875  -35.7775  -42.8781 C.3       10 UNK        -0.0876 
     60 S60        18.6478  -34.6043  -44.0625 S.3       10 UNK        -0.2414 
     61 C61        18.2727  -33.1805  -42.9907 C.3       10 UNK         0.0169 
     62 H62        21.7755  -22.9512  -47.0699 H         1 UNK         0.0903 
     63 H63        21.7305  -22.9763  -45.3065 H         1 UNK         0.0903 
     64 H64        23.2799  -23.0354  -46.1491 H         1 UNK         0.0903 
     65 H65        21.2485  -24.9942  -44.4239 H         1 UNK         0.3096 
     66 H66        22.4814  -27.3778  -45.2965 H         1 UNK         0.1121 
     67 H67        19.4327  -27.5499  -45.5067 H         1 UNK         0.0849 
     68 H68        20.3524  -27.0681  -46.8994 H         1 UNK         0.0849 
     69 H69        18.6714  -29.2742  -47.4362 H         1 UNK         0.0865 
     70 H70        19.3387  -30.8838  -47.4234 H         1 UNK         0.0865 
     71 H71        19.5376  -32.1272  -45.1847 H         1 UNK         0.1346 
     72 H72        16.2416  -31.4071  -42.5334 H         1 UNK         0.1412 
     73 H73        17.0913  -28.6492  -45.7048 H         1 UNK         0.1426 
     74 H74        14.4522  -29.7085  -43.7604 H         1 UNK         0.0716 
     75 H75        15.2005  -28.2427  -44.3297 H         1 UNK         0.0716 
     76 H76        15.6405  -26.1258  -41.7716 H         1 UNK         0.0695 
     77 H77        16.6088  -26.7111  -43.1010 H         1 UNK         0.0695 
     78 H78        17.2914  -27.3551  -40.1911 H         1 UNK         0.0983 
     79 H79        18.5576  -28.0288  -42.6762 H         1 UNK         0.3095 
     80 H80        21.7313  -28.7887  -41.3045 H         1 UNK         0.0454 
     81 H81        19.4549  -30.6630  -42.0525 H         1 UNK         0.0851 
     82 H82        20.6498  -30.8778  -40.7922 H         1 UNK         0.0851 
     83 H83        21.1275  -31.0201  -42.4827 H         1 UNK         0.0851 
     84 H84        20.7771  -29.1781  -43.9285 H         1 UNK         0.2976 
     85 H85        19.7872  -25.7389  -41.8744 H         1 UNK         0.3116 
     86 H86        19.3585  -23.2521  -40.2698 H         1 UNK         0.0646 
     87 H87        21.0612  -23.6223  -42.7918 H         1 UNK         0.0847 
     88 H88        20.7766  -22.1247  -41.9224 H         1 UNK         0.0847 
     89 H89        19.4531  -22.8945  -42.7794 H         1 UNK         0.0847 
     90 H90        20.6608  -26.1360  -39.8495 H         1 UNK         0.3040 
     91 H91        22.2921  -27.1096  -38.7725 H         1 UNK         0.1015 
     92 H92        21.7210  -25.4475  -36.9825 H         1 UNK         0.0786 
     93 H93        22.9924  -24.3794  -37.5762 H         1 UNK         0.0786 
     94 H94        23.3992  -25.9528  -36.9101 H         1 UNK         0.0786 
     95 H95        22.8915  -26.0135  -41.4814 H         1 UNK         0.3172 
     96 H96        25.8413  -25.6134  -41.3816 H         1 UNK         0.0595 
     97 H97        23.8519  -25.2464  -43.6733 H         1 UNK         0.0839 
     98 H98        25.5441  -24.7814  -43.6761 H         1 UNK         0.0839 
     99 H99        24.4155  -23.9577  -42.6123 H         1 UNK         0.0839 
    100 H100       23.8749  -28.2912  -41.5183 H         1 UNK         0.2998 
    101 H101       25.8535  -29.9743  -42.7053 H         1 UNK         0.0822 
    102 H102       24.6548  -29.1161  -44.8141 H         1 UNK         0.0787 
    103 H103       24.5314  -30.8462  -44.5984 H         1 UNK         0.0787 
    104 H104       23.1643  -29.8203  -44.1968 H         1 UNK         0.0787 
    105 H105       24.2632  -32.2553  -43.0930 H         1 UNK         0.3055 
    106 H106       22.3729  -32.5883  -40.9260 H         1 UNK         0.1106 
    107 H107       23.6064  -34.5352  -39.9236 H         1 UNK         0.0828 
    108 H108       25.0020  -34.1844  -40.9343 H         1 UNK         0.0828 
    109 H109       24.4985  -33.0406  -39.6907 H         1 UNK         0.0828 
    110 H110       21.0563  -34.4043  -41.3188 H         1 UNK         0.2931 
    111 H111       21.2385  -35.6823  -43.9813 H         1 UNK         0.0412 
    112 H112       21.4464  -37.9880  -44.2204 H         1 UNK         0.3472 
    113 H113       22.0512  -38.9707  -42.9118 H         1 UNK         0.3472 
    114 H114       19.0025  -36.7629  -43.1486 H         1 UNK         0.0970 
    115 H115       19.0216  -35.5859  -41.8678 H         1 UNK         0.0970 
    116 H116       19.1383  -32.9750  -42.3621 H         1 UNK         0.0612 
    117 H117       17.4568  -33.4558  -42.3208 H         1 UNK         0.0612 
@<TRIPOS>BOND
     1    1    2 1    
     2    1   62 1    
     3    1   63 1    
     4    1   64 1    
     5    2    3 2    
     6    2    4 am   BACKBONE|DICT|INTERRES
     7    4    5 1    
     8    4   65 1    
     9    5    6 1    
    10    5   25 1    
    11    5   66 1    
    12    6    7 1    
    13    6   67 1    
    14    6   68 1    
    15    7    8 1    
    16    8    9 1    
    17    8   69 1    
    18    8   70 1    
    19    9   10 ar   
    20    9   14 ar   
    21   10   11 ar   
    22   10   71 1    
    23   11   12 ar   
    24   11   61 1    
    25   12   13 ar   
    26   12   72 1    
    27   13   14 ar   
    28   13   15 1    
    29   14   73 1    
    30   15   16 1    
    31   15   74 1    
    32   15   75 1    
    33   16   17 1    
    34   17   18 1    
    35   17   76 1    
    36   17   77 1    
    37   18   19 1    
    38   18   27 1    
    39   18   78 1    
    40   19   20 am   BACKBONE|DICT|INTERRES
    41   19   79 1    
    42   20   21 2    
    43   20   22 1    
    44   22   23 1    
    45   22   24 1    
    46   22   80 1    
    47   23   81 1    
    48   23   82 1    
    49   23   83 1    
    50   24   25 am   BACKBONE|DICT|INTERRES
    51   24   84 1    
    52   25   26 2    
    53   27   28 2    
    54   27   29 am   BACKBONE|DICT|INTERRES
    55   29   30 1    
    56   29   85 1    
    57   30   31 1    
    58   30   32 1    
    59   30   86 1    
    60   31   87 1    
    61   31   88 1    
    62   31   89 1    
    63   32   33 2    
    64   32   34 am   BACKBONE|DICT|INTERRES
    65   34   35 1    
    66   34   90 1    
    67   35   36 1    
    68   35   37 1    
    69   35   91 1    
    70   36   92 1    
    71   36   93 1    
    72   36   94 1    
    73   37   38 2    
    74   37   39 am   BACKBONE|DICT|INTERRES
    75   39   40 1    
    76   39   95 1    
    77   40   41 1    
    78   40   42 1    
    79   40   96 1    
    80   41   97 1    
    81   41   98 1    
    82   41   99 1    
    83   42   43 2    
    84   42   44 am   BACKBONE|DICT|INTERRES
    85   44   45 1    
    86   44  100 1    
    87   45   46 1    
    88   45   47 1    
    89   45  101 1    
    90   46  102 1    
    91   46  103 1    
    92   46  104 1    
    93   47   48 2    
    94   47   49 am   BACKBONE|DICT|INTERRES
    95   49   50 1    
    96   49  105 1    
    97   50   51 1    
    98   50   52 1    
    99   50  106 1    
   100   51  107 1    
   101   51  108 1    
   102   51  109 1    
   103   52   53 2    
   104   52   54 am   BACKBONE|DICT|INTERRES
   105   54   55 1    
   106   54  110 1    
   107   55   56 1    
   108   55   59 1    
   109   55  111 1    
   110   56   57 am   BACKBONE|DICT|INTERRES
   111   56   58 2    
   112   57  112 1    
   113   57  113 1    
   114   59   60 1    
   115   59  114 1    
   116   59  115 1    
   117   60   61 1    
   118   61  116 1    
   119   61  117 1    
@<TRIPOS>SUBSTRUCTURE
     1 UNK         1 GROUP             0       ****    0 ROOT    
