@<TRIPOS>MOLECULE
3R8
117   119    1
SMALL
USER_CHARGES


@<TRIPOS>ATOM
      1 CA         14.3550  -23.6635  -45.2452 C.3       0 UNK        -0.2013 
      2 C          15.6127  -24.5132  -45.3429 C.2       0 UNK         0.4866 
      3 O          16.3916  -24.3528  -46.2839 O.2       0 UNK        -0.5176 
      4 N          15.8268  -25.4139  -44.3755 N.am      1 UNK        -0.4884 
      5 CA         16.9712  -26.3298  -44.3013 C.3       1 UNK         0.0853 
      6 C6         16.6654  -27.5715  -43.4212 C.3       10 UNK        -0.0849 
      7 S7         15.2149  -28.5475  -43.9473 S.3       10 UNK        -0.2776 
      8 C8         15.8285  -29.4695  -45.3980 C.3       10 UNK         0.0316 
      9 C9         17.1565  -30.1767  -45.1535 C.ar      10 UNK        -0.0863 
     10 C10        17.2225  -31.3210  -44.3521 C.ar      10 UNK        -0.1009 
     11 C11        18.4403  -31.9822  -44.1587 C.ar      10 UNK        -0.0712 
     12 C12        19.5931  -31.4820  -44.7730 C.ar      10 UNK        -0.0894 
     13 C13        19.5526  -30.3270  -45.5585 C.ar      10 UNK        -0.0745 
     14 C14        18.3209  -29.6887  -45.7532 C.ar      10 UNK        -0.0972 
     15 C15        20.8555  -29.8304  -46.1891 C.3       10 UNK         0.0209 
     16 S16        20.8153  -28.1042  -46.7851 S.3       10 UNK        -0.2568 
     17 C17        22.4342  -27.4638  -46.2279 C.3       10 UNK        -0.0983 
     18 CA         22.3733  -26.6913  -44.8828 C.3       3 UNK         0.0876 
     19 N          21.2817  -25.7166  -44.8813 N.am      3 UNK        -0.4424 
     20 C          21.2086  -24.6045  -44.1429 C.2       2 UNK         0.4918 
     21 O          22.0940  -24.2324  -43.3731 O.2       2 UNK        -0.4875 
     22 CA         19.9045  -23.7898  -44.2664 C.3       2 UNK         0.0481 
     23 CB         20.0591  -22.6882  -45.3261 C.3       2 UNK        -0.1831 
     24 N          18.7162  -24.5999  -44.5778 N.am      2 UNK        -0.4498 
     25 C          18.2470  -25.6001  -43.8187 C.2       1 UNK         0.5027 
     26 O          18.7936  -25.9472  -42.7720 O.2       1 UNK        -0.4969 
     27 C          22.3551  -27.6531  -43.6723 C.2       3 UNK         0.5005 
     28 O          23.3156  -28.4104  -43.5155 O.2       3 UNK        -0.5279 
     29 N          21.3074  -27.6285  -42.8284 N.am      4 UNK        -0.4463 
     30 CA         21.1394  -28.5335  -41.6808 C.3       4 UNK         0.0283 
     31 CB         19.7986  -28.2691  -40.9813 C.3       4 UNK        -0.1875 
     32 C          22.2730  -28.4795  -40.6458 C.2       4 UNK         0.4949 
     33 O          22.5325  -29.4920  -39.9979 O.2       4 UNK        -0.5039 
     34 N          22.9405  -27.3246  -40.5256 N.am      5 UNK        -0.4663 
     35 CA         24.1144  -27.1343  -39.6708 C.3       5 UNK         0.0242 
     36 CB         24.4034  -25.6303  -39.5404 C.3       5 UNK        -0.1982 
     37 C          25.3631  -27.8809  -40.1760 C.2       5 UNK         0.5017 
     38 O          26.2040  -28.2574  -39.3595 O.2       5 UNK        -0.5012 
     39 N          25.4624  -28.0823  -41.4976 N.am      6 UNK        -0.4439 
     40 CA         26.5449  -28.8233  -42.1465 C.3       6 UNK         0.0297 
     41 CB         26.8242  -28.2192  -43.5329 C.3       6 UNK        -0.2006 
     42 C          26.2010  -30.3149  -42.2646 C.2       6 UNK         0.4892 
     43 O          27.0683  -31.1561  -42.0280 O.2       6 UNK        -0.5089 
     44 N          24.9429  -30.6146  -42.6176 N.am      7 UNK        -0.4243 
     45 CA         24.4192  -31.9748  -42.7724 C.3       7 UNK         0.0196 
     46 CB         23.1328  -31.9122  -43.6085 C.3       7 UNK        -0.2007 
     47 C          24.1598  -32.7055  -41.4412 C.2       7 UNK         0.5020 
     48 O          23.9989  -33.9258  -41.4570 O.2       7 UNK        -0.5147 
     49 N          24.1098  -31.9557  -40.3302 N.am      8 UNK        -0.4734 
     50 CA         23.7718  -32.3889  -38.9677 C.3       8 UNK         0.0238 
     51 CB         24.7827  -33.4266  -38.4330 C.3       8 UNK        -0.1912 
     52 C          22.3026  -32.8391  -38.8361 C.2       8 UNK         0.5038 
     53 O          22.0074  -33.7707  -38.0846 O.2       8 UNK        -0.5046 
     54 N          21.4113  -32.1502  -39.5596 N.am      9 UNK        -0.4200 
     55 CA         19.9509  -32.3257  -39.4992 C.3       9 UNK         0.0839 
     56 C          19.2750  -31.4523  -38.4038 C.2       9 UNK         0.5513 
     57 N          19.9759  -30.5233  -37.7627 N.am      9 UNK        -0.7519 
     58 O          18.0927  -31.6291  -38.1231 O.2       9 UNK        -0.4960 
     59 C59        19.2802  -32.1067  -40.8821 C.3       10 UNK        -0.0876 
     60 S60        19.8658  -33.2990  -42.1293 S.3       10 UNK        -0.2414 
     61 C61        18.4967  -33.2663  -43.3356 C.3       10 UNK         0.0169 
     62 H62        13.7593  -23.9157  -44.3681 H         1 UNK         0.0903 
     63 H63        14.6194  -22.6081  -45.1842 H         1 UNK         0.0903 
     64 H64        13.7351  -23.8091  -46.1294 H         1 UNK         0.0903 
     65 H65        15.1586  -25.4986  -43.6221 H         1 UNK         0.3096 
     66 H66        17.1859  -26.6903  -45.3096 H         1 UNK         0.1121 
     67 H67        17.5298  -28.2342  -43.3848 H         1 UNK         0.0849 
     68 H68        16.4895  -27.2652  -42.3881 H         1 UNK         0.0849 
     69 H69        15.0783  -30.2069  -45.6872 H         1 UNK         0.0865 
     70 H70        15.9085  -28.7813  -46.2410 H         1 UNK         0.0865 
     71 H71        16.3206  -31.7024  -43.8929 H         1 UNK         0.1346 
     72 H72        20.5300  -32.0035  -44.6420 H         1 UNK         0.1412 
     73 H73        18.2545  -28.8113  -46.3795 H         1 UNK         0.1426 
     74 H74        21.1162  -30.4812  -47.0245 H         1 UNK         0.0716 
     75 H75        21.6552  -29.9348  -45.4558 H         1 UNK         0.0716 
     76 H76        23.1720  -28.2685  -46.2020 H         1 UNK         0.0695 
     77 H77        22.7863  -26.7837  -47.0050 H         1 UNK         0.0695 
     78 H78        23.3090  -26.1351  -44.7908 H         1 UNK         0.0983 
     79 H79        20.5079  -25.9401  -45.4907 H         1 UNK         0.3095 
     80 H80        19.7284  -23.3108  -43.3012 H         1 UNK         0.0454 
     81 H81        20.9188  -22.0531  -45.1073 H         1 UNK         0.0851 
     82 H82        20.2065  -23.1045  -46.3234 H         1 UNK         0.0851 
     83 H83        19.1817  -22.0421  -45.3583 H         1 UNK         0.0851 
     84 H84        18.1758  -24.3468  -45.4005 H         1 UNK         0.2976 
     85 H85        20.5552  -26.9668  -42.9902 H         1 UNK         0.3116 
     86 H86        21.1188  -29.5493  -42.0783 H         1 UNK         0.0646 
     87 H87        19.6779  -28.9011  -40.1016 H         1 UNK         0.0847 
     88 H88        18.9592  -28.4804  -41.6399 H         1 UNK         0.0847 
     89 H89        19.7161  -27.2355  -40.6437 H         1 UNK         0.0847 
     90 H90        22.6469  -26.5397  -41.0899 H         1 UNK         0.3040 
     91 H91        23.8795  -27.5271  -38.6786 H         1 UNK         0.1015 
     92 H92        23.5558  -25.0996  -39.1064 H         1 UNK         0.0786 
     93 H93        24.6260  -25.1757  -40.5068 H         1 UNK         0.0786 
     94 H94        25.2618  -25.4527  -38.8908 H         1 UNK         0.0786 
     95 H95        24.6884  -27.8039  -42.0899 H         1 UNK         0.3172 
     96 H96        27.4575  -28.7324  -41.5533 H         1 UNK         0.0595 
     97 H97        27.6437  -28.7432  -44.0269 H         1 UNK         0.0839 
     98 H98        27.1108  -27.1702  -43.4569 H         1 UNK         0.0839 
     99 H99        25.9559  -28.2820  -44.1899 H         1 UNK         0.0839 
    100 H100       24.3095  -29.8525  -42.8495 H         1 UNK         0.2998 
    101 H101       25.1551  -32.5635  -43.3243 H         1 UNK         0.0822 
    102 H102       23.3227  -31.4823  -44.5918 H         1 UNK         0.0787 
    103 H103       22.7183  -32.9092  -43.7645 H         1 UNK         0.0787 
    104 H104       22.3659  -31.3121  -43.1187 H         1 UNK         0.0787 
    105 H105       24.1956  -30.9538  -40.4478 H         1 UNK         0.3055 
    106 H106       23.8617  -31.4991  -38.3421 H         1 UNK         0.1106 
    107 H107       24.6972  -34.3831  -38.9491 H         1 UNK         0.0828 
    108 H108       25.8084  -33.0749  -38.5438 H         1 UNK         0.0828 
    109 H109       24.6194  -33.6178  -37.3718 H         1 UNK         0.0828 
    110 H110       21.7506  -31.3528  -40.0841 H         1 UNK         0.2931 
    111 H111       19.7459  -33.3586  -39.2109 H         1 UNK         0.0412 
    112 H112       20.9429  -30.3589  -37.9953 H         1 UNK         0.3472 
    113 H113       19.5267  -29.9718  -37.0486 H         1 UNK         0.3472 
    114 H114       18.1965  -32.2085  -40.7974 H         1 UNK         0.0970 
    115 H115       19.4618  -31.0988  -41.2531 H         1 UNK         0.0970 
    116 H116       18.6225  -34.1057  -44.0204 H         1 UNK         0.0612 
    117 H117       17.5553  -33.4371  -42.8112 H         1 UNK         0.0612 
@<TRIPOS>BOND
     1    1    2 1    
     2    1   62 1    
     3    1   63 1    
     4    1   64 1    
     5    2    3 2    
     6    2    4 am   BACKBONE|DICT|INTERRES
     7    4    5 1    
     8    4   65 1    
     9    5    6 1    
    10    5   25 1    
    11    5   66 1    
    12    6    7 1    
    13    6   67 1    
    14    6   68 1    
    15    7    8 1    
    16    8    9 1    
    17    8   69 1    
    18    8   70 1    
    19    9   10 ar   
    20    9   14 ar   
    21   10   11 ar   
    22   10   71 1    
    23   11   12 ar   
    24   11   61 1    
    25   12   13 ar   
    26   12   72 1    
    27   13   14 ar   
    28   13   15 1    
    29   14   73 1    
    30   15   16 1    
    31   15   74 1    
    32   15   75 1    
    33   16   17 1    
    34   17   18 1    
    35   17   76 1    
    36   17   77 1    
    37   18   19 1    
    38   18   27 1    
    39   18   78 1    
    40   19   20 am   BACKBONE|DICT|INTERRES
    41   19   79 1    
    42   20   21 2    
    43   20   22 1    
    44   22   23 1    
    45   22   24 1    
    46   22   80 1    
    47   23   81 1    
    48   23   82 1    
    49   23   83 1    
    50   24   25 am   BACKBONE|DICT|INTERRES
    51   24   84 1    
    52   25   26 2    
    53   27   28 2    
    54   27   29 am   BACKBONE|DICT|INTERRES
    55   29   30 1    
    56   29   85 1    
    57   30   31 1    
    58   30   32 1    
    59   30   86 1    
    60   31   87 1    
    61   31   88 1    
    62   31   89 1    
    63   32   33 2    
    64   32   34 am   BACKBONE|DICT|INTERRES
    65   34   35 1    
    66   34   90 1    
    67   35   36 1    
    68   35   37 1    
    69   35   91 1    
    70   36   92 1    
    71   36   93 1    
    72   36   94 1    
    73   37   38 2    
    74   37   39 am   BACKBONE|DICT|INTERRES
    75   39   40 1    
    76   39   95 1    
    77   40   41 1    
    78   40   42 1    
    79   40   96 1    
    80   41   97 1    
    81   41   98 1    
    82   41   99 1    
    83   42   43 2    
    84   42   44 am   BACKBONE|DICT|INTERRES
    85   44   45 1    
    86   44  100 1    
    87   45   46 1    
    88   45   47 1    
    89   45  101 1    
    90   46  102 1    
    91   46  103 1    
    92   46  104 1    
    93   47   48 2    
    94   47   49 am   BACKBONE|DICT|INTERRES
    95   49   50 1    
    96   49  105 1    
    97   50   51 1    
    98   50   52 1    
    99   50  106 1    
   100   51  107 1    
   101   51  108 1    
   102   51  109 1    
   103   52   53 2    
   104   52   54 am   BACKBONE|DICT|INTERRES
   105   54   55 1    
   106   54  110 1    
   107   55   56 1    
   108   55   59 1    
   109   55  111 1    
   110   56   57 am   BACKBONE|DICT|INTERRES
   111   56   58 2    
   112   57  112 1    
   113   57  113 1    
   114   59   60 1    
   115   59  114 1    
   116   59  115 1    
   117   60   61 1    
   118   61  116 1    
   119   61  117 1    
@<TRIPOS>SUBSTRUCTURE
     1 UNK         1 GROUP             0       ****    0 ROOT    
