@<TRIPOS>MOLECULE
3R8
117   119    1
SMALL
USER_CHARGES


@<TRIPOS>ATOM
      1 CA         15.1549  -24.8915  -48.0023 C.3       0 UNK        -0.2013 
      2 C          16.3329  -24.2431  -47.2901 C.2       0 UNK         0.4866 
      3 O          16.3246  -23.0307  -47.0723 O.2       0 UNK        -0.5176 
      4 N          17.3490  -25.0399  -46.9349 N.am      1 UNK        -0.4884 
      5 CA         18.5294  -24.6063  -46.1784 C.3       1 UNK         0.0853 
      6 C6         19.7617  -25.5126  -46.4873 C.3       10 UNK        -0.0849 
      7 S7         20.0300  -26.9621  -45.4051 S.3       10 UNK        -0.2776 
      8 C8         18.9415  -28.2040  -46.1655 C.3       10 UNK         0.0316 
      9 C9         18.7804  -29.3941  -45.2358 C.ar      10 UNK        -0.0863 
     10 C10        19.4716  -30.5862  -45.4749 C.ar      10 UNK        -0.1009 
     11 C11        19.3483  -31.6616  -44.5898 C.ar      10 UNK        -0.0712 
     12 C12        18.5481  -31.5308  -43.4515 C.ar      10 UNK        -0.0894 
     13 C13        17.8590  -30.3414  -43.2009 C.ar      10 UNK        -0.0745 
     14 C14        17.9550  -29.2869  -44.1122 C.ar      10 UNK        -0.0972 
     15 C15        17.0378  -30.1921  -41.9302 C.3       10 UNK         0.0209 
     16 S16        18.0808  -29.6603  -40.5333 S.3       10 UNK        -0.2568 
     17 C17        18.2232  -27.8625  -40.8157 C.3       10 UNK        -0.0983 
     18 CA         19.5054  -27.4438  -41.5858 C.3       3 UNK         0.0876 
     19 N          19.4071  -26.1132  -42.2028 N.am      3 UNK        -0.4424 
     20 C          19.1270  -24.9474  -41.6006 C.2       2 UNK         0.4918 
     21 O          18.9446  -24.8413  -40.3872 O.2       2 UNK        -0.4875 
     22 CA         19.0757  -23.6715  -42.4684 C.3       2 UNK         0.0481 
     23 CB         20.1852  -22.6931  -42.0478 C.3       2 UNK        -0.1831 
     24 N          19.1685  -23.8999  -43.9156 N.am      2 UNK        -0.4498 
     25 C          18.2060  -24.4465  -44.6721 C.2       1 UNK         0.5027 
     26 O          17.1309  -24.8455  -44.2151 O.2       1 UNK        -0.4969 
     27 C          20.7994  -27.6089  -40.7682 C.2       3 UNK         0.5005 
     28 O          21.6050  -28.4857  -41.0831 O.2       3 UNK        -0.5279 
     29 N          21.0305  -26.7137  -39.7986 N.am      4 UNK        -0.4463 
     30 CA         22.2612  -26.6242  -39.0041 C.3       4 UNK         0.0283 
     31 CB         22.0701  -25.5814  -37.8919 C.3       4 UNK        -0.1875 
     32 C          23.5109  -26.2938  -39.8431 C.2       4 UNK         0.4949 
     33 O          24.6175  -26.6589  -39.4486 O.2       4 UNK        -0.5039 
     34 N          23.3093  -25.6311  -40.9915 N.am      5 UNK        -0.4663 
     35 CA         24.3440  -25.3550  -41.9905 C.3       5 UNK         0.0242 
     36 CB         23.8377  -24.2702  -42.9551 C.3       5 UNK        -0.1982 
     37 C          24.7795  -26.6070  -42.7742 C.2       5 UNK         0.5017 
     38 O          25.9139  -26.6432  -43.2520 O.2       5 UNK        -0.5012 
     39 N          23.8833  -27.5967  -42.8985 N.am      6 UNK        -0.4439 
     40 CA         24.1631  -28.8921  -43.5164 C.3       6 UNK         0.0297 
     41 CB         22.8924  -29.4410  -44.1910 C.3       6 UNK        -0.2006 
     42 C          24.7160  -29.8634  -42.4636 C.2       6 UNK         0.4892 
     43 O          25.8268  -30.3659  -42.6396 O.2       6 UNK        -0.5089 
     44 N          23.9428  -30.0503  -41.3810 N.am      7 UNK        -0.4243 
     45 CA         24.1762  -30.8980  -40.2052 C.3       7 UNK         0.0196 
     46 CB         25.4551  -30.4670  -39.4594 C.3       7 UNK        -0.2007 
     47 C          24.1899  -32.4103  -40.5028 C.2       7 UNK         0.5020 
     48 O          24.4707  -32.8379  -41.6226 O.2       7 UNK        -0.5147 
     49 N          23.8820  -33.2036  -39.4660 N.am      8 UNK        -0.4734 
     50 CA         23.8943  -34.6769  -39.3823 C.3       8 UNK         0.0238 
     51 CB         25.3185  -35.2269  -39.5965 C.3       8 UNK        -0.1912 
     52 C          22.8850  -35.4275  -40.2762 C.2       8 UNK         0.5038 
     53 O          22.4028  -36.4835  -39.8646 O.2       8 UNK        -0.5046 
     54 N          22.5842  -34.8940  -41.4639 N.am      9 UNK        -0.4200 
     55 CA         21.6573  -35.4559  -42.4572 C.3       9 UNK         0.0839 
     56 C          20.1502  -35.4306  -42.0635 C.2       9 UNK         0.5513 
     57 N          19.7441  -34.7187  -41.0188 N.am      9 UNK        -0.7519 
     58 O          19.3371  -36.0794  -42.7166 O.2       9 UNK        -0.4960 
     59 C59        21.9108  -34.8500  -43.8637 C.3       10 UNK        -0.0876 
     60 S60        21.6443  -33.0430  -43.9381 S.3       10 UNK        -0.2414 
     61 C61        20.0747  -32.9695  -44.8513 C.3       10 UNK         0.0169 
     62 H62        14.2427  -24.7480  -47.4237 H         1 UNK         0.0903 
     63 H63        15.0120  -24.4367  -48.9822 H         1 UNK         0.0903 
     64 H64        15.3014  -25.9622  -48.1438 H         1 UNK         0.0903 
     65 H65        17.2821  -26.0301  -47.1151 H         1 UNK         0.3096 
     66 H66        18.7803  -23.6044  -46.5362 H         1 UNK         0.1121 
     67 H67        20.6656  -24.9069  -46.4030 H         1 UNK         0.0849 
     68 H68        19.7495  -25.8398  -47.5286 H         1 UNK         0.0849 
     69 H69        17.9608  -27.7719  -46.3640 H         1 UNK         0.0865 
     70 H70        19.3518  -28.5106  -47.1290 H         1 UNK         0.0865 
     71 H71        20.1113  -30.6756  -46.3423 H         1 UNK         0.1346 
     72 H72        18.4763  -32.3520  -42.7509 H         1 UNK         0.1412 
     73 H73        17.4285  -28.3612  -43.9208 H         1 UNK         0.1426 
     74 H74        16.5782  -31.1491  -41.6786 H         1 UNK         0.0716 
     75 H75        16.2146  -29.4912  -42.0774 H         1 UNK         0.0716 
     76 H76        17.3395  -27.5306  -41.3626 H         1 UNK         0.0695 
     77 H77        18.1700  -27.3628  -39.8472 H         1 UNK         0.0695 
     78 H78        19.6196  -28.1241  -42.4286 H         1 UNK         0.0983 
     79 H79        19.5637  -26.0973  -43.2024 H         1 UNK         0.3095 
     80 H80        18.1151  -23.1931  -42.2669 H         1 UNK         0.0454 
     81 H81        21.1776  -23.1052  -42.2267 H         1 UNK         0.0851 
     82 H82        20.1101  -21.7501  -42.5896 H         1 UNK         0.0851 
     83 H83        20.1191  -22.4553  -40.9851 H         1 UNK         0.0851 
     84 H84        20.0290  -23.6121  -44.3597 H         1 UNK         0.2976 
     85 H85        20.3216  -26.0008  -39.6472 H         1 UNK         0.3116 
     86 H86        22.4284  -27.5983  -38.5396 H         1 UNK         0.0646 
     87 H87        22.9625  -25.5072  -37.2687 H         1 UNK         0.0847 
     88 H88        21.2409  -25.8473  -37.2362 H         1 UNK         0.0847 
     89 H89        21.8726  -24.5885  -38.2982 H         1 UNK         0.0847 
     90 H90        22.3673  -25.3503  -41.2164 H         1 UNK         0.3040 
     91 H91        25.2267  -24.9711  -41.4736 H         1 UNK         0.1015 
     92 H92        23.6193  -23.3418  -42.4274 H         1 UNK         0.0786 
     93 H93        22.9358  -24.5842  -43.4822 H         1 UNK         0.0786 
     94 H94        24.5906  -24.0385  -43.7101 H         1 UNK         0.0786 
     95 H95        23.0032  -27.5162  -42.4061 H         1 UNK         0.3172 
     96 H96        24.9187  -28.7690  -44.2955 H         1 UNK         0.0595 
     97 H97        22.5356  -28.7674  -44.9699 H         1 UNK         0.0839 
     98 H98        22.0747  -29.5940  -43.4860 H         1 UNK         0.0839 
     99 H99        23.0923  -30.4027  -44.6648 H         1 UNK         0.0839 
    100 H100       23.0515  -29.5565  -41.3627 H         1 UNK         0.2998 
    101 H101       23.3257  -30.7065  -39.5487 H         1 UNK         0.0822 
    102 H102       25.4403  -29.4007  -39.2322 H         1 UNK         0.0787 
    103 H103       25.5564  -30.9980  -38.5123 H         1 UNK         0.0787 
    104 H104       26.3540  -30.6731  -40.0412 H         1 UNK         0.0787 
    105 H105       23.6313  -32.7446  -38.6002 H         1 UNK         0.3055 
    106 H106       23.6097  -34.9113  -38.3549 H         1 UNK         0.1106 
    107 H107       25.3483  -36.3057  -39.4366 H         1 UNK         0.0828 
    108 H108       25.6796  -35.0408  -40.6084 H         1 UNK         0.0828 
    109 H109       26.0264  -34.7778  -38.9000 H         1 UNK         0.0828 
    110 H110       23.0698  -34.0411  -41.7303 H         1 UNK         0.2931 
    111 H111       21.9087  -36.5156  -42.5328 H         1 UNK         0.0412 
    112 H112       18.7685  -34.7200  -40.7671 H         1 UNK         0.3472 
    113 H113       20.4058  -34.1821  -40.4821 H         1 UNK         0.3472 
    114 H114       21.2997  -35.3525  -44.6158 H         1 UNK         0.0970 
    115 H115       22.9431  -35.0433  -44.1593 H         1 UNK         0.0970 
    116 H116       20.2716  -33.0961  -45.9169 H         1 UNK         0.0612 
    117 H117       19.4318  -33.7997  -44.5551 H         1 UNK         0.0612 
@<TRIPOS>BOND
     1    1    2 1    
     2    1   62 1    
     3    1   63 1    
     4    1   64 1    
     5    2    3 2    
     6    2    4 am   BACKBONE|DICT|INTERRES
     7    4    5 1    
     8    4   65 1    
     9    5    6 1    
    10    5   25 1    
    11    5   66 1    
    12    6    7 1    
    13    6   67 1    
    14    6   68 1    
    15    7    8 1    
    16    8    9 1    
    17    8   69 1    
    18    8   70 1    
    19    9   10 ar   
    20    9   14 ar   
    21   10   11 ar   
    22   10   71 1    
    23   11   12 ar   
    24   11   61 1    
    25   12   13 ar   
    26   12   72 1    
    27   13   14 ar   
    28   13   15 1    
    29   14   73 1    
    30   15   16 1    
    31   15   74 1    
    32   15   75 1    
    33   16   17 1    
    34   17   18 1    
    35   17   76 1    
    36   17   77 1    
    37   18   19 1    
    38   18   27 1    
    39   18   78 1    
    40   19   20 am   BACKBONE|DICT|INTERRES
    41   19   79 1    
    42   20   21 2    
    43   20   22 1    
    44   22   23 1    
    45   22   24 1    
    46   22   80 1    
    47   23   81 1    
    48   23   82 1    
    49   23   83 1    
    50   24   25 am   BACKBONE|DICT|INTERRES
    51   24   84 1    
    52   25   26 2    
    53   27   28 2    
    54   27   29 am   BACKBONE|DICT|INTERRES
    55   29   30 1    
    56   29   85 1    
    57   30   31 1    
    58   30   32 1    
    59   30   86 1    
    60   31   87 1    
    61   31   88 1    
    62   31   89 1    
    63   32   33 2    
    64   32   34 am   BACKBONE|DICT|INTERRES
    65   34   35 1    
    66   34   90 1    
    67   35   36 1    
    68   35   37 1    
    69   35   91 1    
    70   36   92 1    
    71   36   93 1    
    72   36   94 1    
    73   37   38 2    
    74   37   39 am   BACKBONE|DICT|INTERRES
    75   39   40 1    
    76   39   95 1    
    77   40   41 1    
    78   40   42 1    
    79   40   96 1    
    80   41   97 1    
    81   41   98 1    
    82   41   99 1    
    83   42   43 2    
    84   42   44 am   BACKBONE|DICT|INTERRES
    85   44   45 1    
    86   44  100 1    
    87   45   46 1    
    88   45   47 1    
    89   45  101 1    
    90   46  102 1    
    91   46  103 1    
    92   46  104 1    
    93   47   48 2    
    94   47   49 am   BACKBONE|DICT|INTERRES
    95   49   50 1    
    96   49  105 1    
    97   50   51 1    
    98   50   52 1    
    99   50  106 1    
   100   51  107 1    
   101   51  108 1    
   102   51  109 1    
   103   52   53 2    
   104   52   54 am   BACKBONE|DICT|INTERRES
   105   54   55 1    
   106   54  110 1    
   107   55   56 1    
   108   55   59 1    
   109   55  111 1    
   110   56   57 am   BACKBONE|DICT|INTERRES
   111   56   58 2    
   112   57  112 1    
   113   57  113 1    
   114   59   60 1    
   115   59  114 1    
   116   59  115 1    
   117   60   61 1    
   118   61  116 1    
   119   61  117 1    
@<TRIPOS>SUBSTRUCTURE
     1 UNK         1 GROUP             0       ****    0 ROOT    
