@<TRIPOS>MOLECULE
3R8
117   119    1
SMALL
USER_CHARGES


@<TRIPOS>ATOM
      1 CA         14.3629  -23.4610  -42.5586 C.3       0 UNK        -0.2013 
      2 C          15.4407  -23.6045  -43.6224 C.2       0 UNK         0.4866 
      3 O          16.3928  -22.8246  -43.6351 O.2       0 UNK        -0.5176 
      4 N          15.2881  -24.5905  -44.5166 N.am      1 UNK        -0.4884 
      5 CA         16.2147  -24.9279  -45.6053 C.3       1 UNK         0.0853 
      6 C6         15.6484  -25.9854  -46.5996 C.3       10 UNK        -0.0849 
      7 S7         14.2061  -26.9956  -46.0668 S.3       10 UNK        -0.2776 
      8 C8         14.7402  -27.9115  -44.5699 C.3       10 UNK         0.0316 
      9 C9         15.9252  -28.8658  -44.7266 C.ar      10 UNK        -0.0863 
     10 C10        16.4935  -29.4180  -43.5729 C.ar      10 UNK        -0.1009 
     11 C11        17.5791  -30.2966  -43.6543 C.ar      10 UNK        -0.0712 
     12 C12        18.1149  -30.6096  -44.9067 C.ar      10 UNK        -0.0894 
     13 C13        17.5664  -30.0546  -46.0667 C.ar      10 UNK        -0.0745 
     14 C14        16.4569  -29.2151  -45.9720 C.ar      10 UNK        -0.0972 
     15 C15        18.1714  -30.3270  -47.4329 C.3       10 UNK         0.0209 
     16 S16        19.2901  -28.9728  -47.9201 S.3       10 UNK        -0.2568 
     17 C17        20.7560  -29.3688  -46.9140 C.3       10 UNK        -0.0983 
     18 CA         21.1772  -28.2671  -45.9034 C.3       3 UNK         0.0876 
     19 N          20.0846  -27.8371  -45.0152 N.am      3 UNK        -0.4424 
     20 C          20.1644  -26.8537  -44.1035 C.2       2 UNK         0.4918 
     21 O          21.1884  -26.1992  -43.8933 O.2       2 UNK        -0.4875 
     22 CA         18.8818  -26.5272  -43.3060 C.3       2 UNK         0.0481 
     23 CB         19.0908  -25.3844  -42.2880 C.3       2 UNK        -0.1831 
     24 N          17.7140  -26.1999  -44.1332 N.am      2 UNK        -0.4498 
     25 C          17.6343  -25.2829  -45.1105 C.2       1 UNK         0.5027 
     26 O          18.6004  -24.6861  -45.5880 O.2       1 UNK        -0.4969 
     27 C          22.4057  -28.7539  -45.1032 C.2       3 UNK         0.5005 
     28 O          22.4150  -29.9032  -44.6612 O.2       3 UNK        -0.5279 
     29 N          23.4066  -27.8759  -44.9288 N.am      4 UNK        -0.4463 
     30 CA         24.6480  -28.0941  -44.1720 C.3       4 UNK         0.0283 
     31 CB         25.5636  -29.0984  -44.9049 C.3       4 UNK        -0.1875 
     32 C          24.3986  -28.4876  -42.7015 C.2       4 UNK         0.4949 
     33 O          25.0952  -29.3541  -42.1698 O.2       4 UNK        -0.5039 
     34 N          23.3929  -27.8629  -42.0722 N.am      5 UNK        -0.4663 
     35 CA         22.9660  -28.1622  -40.7036 C.3       5 UNK         0.0242 
     36 CB         21.7464  -27.3070  -40.3395 C.3       5 UNK        -0.1982 
     37 C          24.0881  -27.9897  -39.6641 C.2       5 UNK         0.5017 
     38 O          24.8499  -27.0248  -39.7476 O.2       5 UNK        -0.5012 
     39 N          24.1507  -28.9435  -38.7263 N.am      6 UNK        -0.4439 
     40 CA         25.1505  -29.1666  -37.6724 C.3       6 UNK         0.0297 
     41 CB         25.6795  -27.8771  -37.0118 C.3       6 UNK        -0.2006 
     42 C          26.2847  -30.1009  -38.1236 C.2       6 UNK         0.4892 
     43 O          26.8293  -30.8119  -37.2779 O.2       6 UNK        -0.5089 
     44 N          26.5862  -30.1401  -39.4298 N.am      7 UNK        -0.4243 
     45 CA         27.3494  -31.2273  -40.0493 C.3       7 UNK         0.0196 
     46 CB         28.1491  -30.7025  -41.2540 C.3       7 UNK        -0.2007 
     47 C          26.3801  -32.3484  -40.4560 C.2       7 UNK         0.5020 
     48 O          26.6077  -33.5098  -40.1166 O.2       7 UNK        -0.5147 
     49 N          25.2917  -31.9598  -41.1291 N.am      8 UNK        -0.4734 
     50 CA         24.1140  -32.7734  -41.4185 C.3       8 UNK         0.0238 
     51 CB         23.8373  -32.6917  -42.9303 C.3       8 UNK        -0.1912 
     52 C          22.9217  -32.2686  -40.5803 C.2       8 UNK         0.5038 
     53 O          23.1083  -31.4704  -39.6562 O.2       8 UNK        -0.5046 
     54 N          21.7165  -32.7574  -40.9025 N.am      9 UNK        -0.4200 
     55 CA         20.4440  -32.4635  -40.2138 C.3       9 UNK         0.0839 
     56 C          20.3479  -33.0258  -38.7607 C.2       9 UNK         0.5513 
     57 N          21.1966  -33.9629  -38.3551 N.am      9 UNK        -0.7519 
     58 O          19.4696  -32.6354  -37.9958 O.2       9 UNK        -0.4960 
     59 C59        20.0103  -30.9681  -40.3028 C.3       10 UNK        -0.0876 
     60 S60        19.8286  -30.3464  -42.0108 S.3       10 UNK        -0.2414 
     61 C61        18.1465  -30.9311  -42.3916 C.3       10 UNK         0.0169 
     62 H62        13.5785  -24.2099  -42.6673 H         1 UNK         0.0903 
     63 H63        14.7996  -23.5695  -41.5661 H         1 UNK         0.0903 
     64 H64        13.9018  -22.4757  -42.6221 H         1 UNK         0.0903 
     65 H65        14.4569  -25.1648  -44.4836 H         1 UNK         0.3096 
     66 H66        16.3418  -24.0018  -46.1718 H         1 UNK         0.1121 
     67 H67        16.4330  -26.6394  -46.9823 H         1 UNK         0.0849 
     68 H68        15.3057  -25.4529  -47.4883 H         1 UNK         0.0849 
     69 H69        14.9447  -27.2031  -43.7676 H         1 UNK         0.0865 
     70 H70        13.8872  -28.5001  -44.2289 H         1 UNK         0.0865 
     71 H71        16.0795  -29.1721  -42.6040 H         1 UNK         0.1346 
     72 H72        18.9631  -31.2776  -44.9712 H         1 UNK         0.1412 
     73 H73        16.0274  -28.8289  -46.8843 H         1 UNK         0.1426 
     74 H74        17.3778  -30.4133  -48.1767 H         1 UNK         0.0716 
     75 H75        18.7014  -31.2808  -47.4447 H         1 UNK         0.0716 
     76 H76        21.5753  -29.5612  -47.6094 H         1 UNK         0.0695 
     77 H77        20.5855  -30.3164  -46.4016 H         1 UNK         0.0695 
     78 H78        21.4738  -27.3906  -46.4831 H         1 UNK         0.0983 
     79 H79        19.2112  -28.3346  -45.1214 H         1 UNK         0.3095 
     80 H80        18.6306  -27.4291  -42.7464 H         1 UNK         0.0454 
     81 H81        18.2048  -25.2375  -41.6705 H         1 UNK         0.0851 
     82 H82        19.3083  -24.4385  -42.7856 H         1 UNK         0.0851 
     83 H83        19.9205  -25.5864  -41.6144 H         1 UNK         0.0851 
     84 H84        16.8561  -26.6566  -43.8633 H         1 UNK         0.2976 
     85 H85        23.2704  -26.9355  -45.2758 H         1 UNK         0.3116 
     86 H86        25.1656  -27.1342  -44.1445 H         1 UNK         0.0646 
     87 H87        25.1342  -30.1009  -44.9183 H         1 UNK         0.0847 
     88 H88        26.5358  -29.1702  -44.4156 H         1 UNK         0.0847 
     89 H89        25.7428  -28.7954  -45.9362 H         1 UNK         0.0847 
     90 H90        22.8580  -27.1714  -42.5822 H         1 UNK         0.3040 
     91 H91        22.6506  -29.2051  -40.7084 H         1 UNK         0.1015 
     92 H92        21.9587  -26.2417  -40.4365 H         1 UNK         0.0786 
     93 H93        21.4317  -27.4875  -39.3107 H         1 UNK         0.0786 
     94 H94        20.8998  -27.5530  -40.9794 H         1 UNK         0.0786 
     95 H95        23.5232  -29.7361  -38.8505 H         1 UNK         0.3172 
     96 H96        24.6073  -29.7118  -36.8988 H         1 UNK         0.0595 
     97 H97        26.3435  -27.3205  -37.6735 H         1 UNK         0.0839 
     98 H98        26.2529  -28.1138  -36.1147 H         1 UNK         0.0839 
     99 H99        24.8655  -27.2172  -36.7121 H         1 UNK         0.0839 
    100 H100       26.0847  -29.5256  -40.0584 H         1 UNK         0.2998 
    101 H101       28.0626  -31.6384  -39.3313 H         1 UNK         0.0822 
    102 H102       28.8408  -29.9150  -40.9548 H         1 UNK         0.0787 
    103 H103       28.7413  -31.5016  -41.7015 H         1 UNK         0.0787 
    104 H104       27.5057  -30.3009  -42.0364 H         1 UNK         0.0787 
    105 H105       25.2054  -30.9769  -41.3836 H         1 UNK         0.3055 
    106 H106       24.2940  -33.8150  -41.1444 H         1 UNK         0.1106 
    107 H107       23.0232  -33.3503  -43.2331 H         1 UNK         0.0828 
    108 H108       23.5702  -31.6781  -43.2276 H         1 UNK         0.0828 
    109 H109       24.7141  -32.9841  -43.5082 H         1 UNK         0.0828 
    110 H110       21.6492  -33.4103  -41.6690 H         1 UNK         0.2931 
    111 H111       19.6965  -33.0371  -40.7624 H         1 UNK         0.0412 
    112 H112       21.9153  -34.3064  -38.9712 H         1 UNK         0.3472 
    113 H113       21.1180  -34.3270  -37.4184 H         1 UNK         0.3472 
    114 H114       20.7253  -30.3337  -39.7790 H         1 UNK         0.0970 
    115 H115       19.0610  -30.8104  -39.7882 H         1 UNK         0.0970 
    116 H116       17.4924  -30.7254  -41.5431 H         1 UNK         0.0612 
    117 H117       18.1643  -32.0152  -42.5109 H         1 UNK         0.0612 
@<TRIPOS>BOND
     1    1    2 1    
     2    1   62 1    
     3    1   63 1    
     4    1   64 1    
     5    2    3 2    
     6    2    4 am   BACKBONE|DICT|INTERRES
     7    4    5 1    
     8    4   65 1    
     9    5    6 1    
    10    5   25 1    
    11    5   66 1    
    12    6    7 1    
    13    6   67 1    
    14    6   68 1    
    15    7    8 1    
    16    8    9 1    
    17    8   69 1    
    18    8   70 1    
    19    9   10 ar   
    20    9   14 ar   
    21   10   11 ar   
    22   10   71 1    
    23   11   12 ar   
    24   11   61 1    
    25   12   13 ar   
    26   12   72 1    
    27   13   14 ar   
    28   13   15 1    
    29   14   73 1    
    30   15   16 1    
    31   15   74 1    
    32   15   75 1    
    33   16   17 1    
    34   17   18 1    
    35   17   76 1    
    36   17   77 1    
    37   18   19 1    
    38   18   27 1    
    39   18   78 1    
    40   19   20 am   BACKBONE|DICT|INTERRES
    41   19   79 1    
    42   20   21 2    
    43   20   22 1    
    44   22   23 1    
    45   22   24 1    
    46   22   80 1    
    47   23   81 1    
    48   23   82 1    
    49   23   83 1    
    50   24   25 am   BACKBONE|DICT|INTERRES
    51   24   84 1    
    52   25   26 2    
    53   27   28 2    
    54   27   29 am   BACKBONE|DICT|INTERRES
    55   29   30 1    
    56   29   85 1    
    57   30   31 1    
    58   30   32 1    
    59   30   86 1    
    60   31   87 1    
    61   31   88 1    
    62   31   89 1    
    63   32   33 2    
    64   32   34 am   BACKBONE|DICT|INTERRES
    65   34   35 1    
    66   34   90 1    
    67   35   36 1    
    68   35   37 1    
    69   35   91 1    
    70   36   92 1    
    71   36   93 1    
    72   36   94 1    
    73   37   38 2    
    74   37   39 am   BACKBONE|DICT|INTERRES
    75   39   40 1    
    76   39   95 1    
    77   40   41 1    
    78   40   42 1    
    79   40   96 1    
    80   41   97 1    
    81   41   98 1    
    82   41   99 1    
    83   42   43 2    
    84   42   44 am   BACKBONE|DICT|INTERRES
    85   44   45 1    
    86   44  100 1    
    87   45   46 1    
    88   45   47 1    
    89   45  101 1    
    90   46  102 1    
    91   46  103 1    
    92   46  104 1    
    93   47   48 2    
    94   47   49 am   BACKBONE|DICT|INTERRES
    95   49   50 1    
    96   49  105 1    
    97   50   51 1    
    98   50   52 1    
    99   50  106 1    
   100   51  107 1    
   101   51  108 1    
   102   51  109 1    
   103   52   53 2    
   104   52   54 am   BACKBONE|DICT|INTERRES
   105   54   55 1    
   106   54  110 1    
   107   55   56 1    
   108   55   59 1    
   109   55  111 1    
   110   56   57 am   BACKBONE|DICT|INTERRES
   111   56   58 2    
   112   57  112 1    
   113   57  113 1    
   114   59   60 1    
   115   59  114 1    
   116   59  115 1    
   117   60   61 1    
   118   61  116 1    
   119   61  117 1    
@<TRIPOS>SUBSTRUCTURE
     1 UNK         1 GROUP             0       ****    0 ROOT    
