@<TRIPOS>MOLECULE
3R8
117   119    1
SMALL
USER_CHARGES


@<TRIPOS>ATOM
      1 CA         14.6650  -23.3694  -46.8684 C.3       0 UNK        -0.2013 
      2 C          15.3623  -24.6981  -47.1179 C.2       0 UNK         0.4866 
      3 O          16.0027  -24.8687  -48.1554 O.2       0 UNK        -0.5176 
      4 N          15.2438  -25.6416  -46.1746 N.am      1 UNK        -0.4884 
      5 CA         15.8607  -26.9744  -46.2334 C.3       1 UNK         0.0853 
      6 C6         15.1433  -27.9847  -45.3045 C.3       10 UNK        -0.0849 
      7 S7         14.9655  -27.4208  -43.5754 S.3       10 UNK        -0.2776 
      8 C8         14.7455  -29.0074  -42.7114 C.3       10 UNK         0.0316 
      9 C9         16.0779  -29.5871  -42.2617 C.ar      10 UNK        -0.0863 
     10 C10        16.7876  -30.4701  -43.0813 C.ar      10 UNK        -0.1009 
     11 C11        18.0101  -31.0002  -42.6583 C.ar      10 UNK        -0.0712 
     12 C12        18.5062  -30.6659  -41.3951 C.ar      10 UNK        -0.0894 
     13 C13        17.8185  -29.7644  -40.5777 C.ar      10 UNK        -0.0745 
     14 C14        16.6019  -29.2335  -41.0153 C.ar      10 UNK        -0.0972 
     15 C15        18.3897  -29.3477  -39.2283 C.3       10 UNK         0.0209 
     16 S16        20.0140  -28.5280  -39.3638 S.3       10 UNK        -0.2568 
     17 C17        19.7108  -27.1938  -40.5705 C.3       10 UNK        -0.0983 
     18 CA         20.3565  -27.4659  -41.9563 C.3       3 UNK         0.0876 
     19 N          19.7355  -26.6259  -42.9921 N.am      3 UNK        -0.4424 
     20 C          20.0394  -26.6307  -44.2989 C.2       2 UNK         0.4918 
     21 O          20.8553  -27.3924  -44.8192 O.2       2 UNK        -0.4875 
     22 CA         19.3176  -25.5707  -45.1519 C.3       2 UNK         0.0481 
     23 CB         20.0388  -25.2949  -46.4885 C.3       2 UNK        -0.1831 
     24 N          17.9037  -25.8857  -45.3833 N.am      2 UNK        -0.4498 
     25 C          17.3899  -26.9584  -46.0090 C.2       1 UNK         0.5027 
     26 O          18.0597  -27.8967  -46.4413 O.2       1 UNK        -0.4969 
     27 C          21.8970  -27.3122  -41.9106 C.2       3 UNK         0.5005 
     28 O          22.6125  -28.3106  -41.7915 O.2       3 UNK        -0.5279 
     29 N          22.3670  -26.0625  -42.0581 N.am      4 UNK        -0.4463 
     30 CA         23.7672  -25.6494  -42.1845 C.3       4 UNK         0.0283 
     31 CB         24.3288  -26.0919  -43.5553 C.3       4 UNK        -0.1875 
     32 C          24.6194  -26.0800  -40.9741 C.2       4 UNK         0.4949 
     33 O          24.2471  -25.7739  -39.8392 O.2       4 UNK        -0.5039 
     34 N          25.7491  -26.7544  -41.2238 N.am      5 UNK        -0.4663 
     35 CA         26.7255  -27.2045  -40.2295 C.3       5 UNK         0.0242 
     36 CB         28.0562  -27.5002  -40.9478 C.3       5 UNK        -0.1982 
     37 C          26.2239  -28.4014  -39.3959 C.2       5 UNK         0.5017 
     38 O          26.7865  -29.4932  -39.4921 O.2       5 UNK        -0.5012 
     39 N          25.1822  -28.1565  -38.5881 N.am      6 UNK        -0.4439 
     40 CA         24.5448  -29.0722  -37.6344 C.3       6 UNK         0.0297 
     41 CB         25.5002  -29.3845  -36.4625 C.3       6 UNK        -0.2006 
     42 C          23.9926  -30.3388  -38.3140 C.2       6 UNK         0.4892 
     43 O          24.4213  -31.4495  -37.9948 O.2       6 UNK        -0.5089 
     44 N          23.0519  -30.1241  -39.2440 N.am      7 UNK        -0.4243 
     45 CA         22.3947  -31.1190  -40.0963 C.3       7 UNK         0.0196 
     46 CB         21.5928  -32.1483  -39.2706 C.3       7 UNK        -0.2007 
     47 C          23.3874  -31.7538  -41.0778 C.2       7 UNK         0.5020 
     48 O          23.5792  -32.9707  -41.0754 O.2       7 UNK        -0.5147 
     49 N          23.9870  -30.9064  -41.9253 N.am      8 UNK        -0.4734 
     50 CA         24.9235  -31.3108  -42.9831 C.3       8 UNK         0.0238 
     51 CB         25.5213  -30.0560  -43.6368 C.3       8 UNK        -0.1912 
     52 C          24.2765  -32.2217  -44.0445 C.2       8 UNK         0.5038 
     53 O          24.9520  -33.0846  -44.6059 O.2       8 UNK        -0.5046 
     54 N          22.9726  -32.0237  -44.2636 N.am      9 UNK        -0.4200 
     55 CA         22.0716  -32.8794  -45.0454 C.3       9 UNK         0.0839 
     56 C          21.6444  -34.2009  -44.3390 C.2       9 UNK         0.5513 
     57 N          22.0204  -34.4617  -43.0924 N.am      9 UNK        -0.7519 
     58 O          20.9608  -35.0210  -44.9461 O.2       9 UNK        -0.4960 
     59 C59        20.8492  -32.0771  -45.5777 C.3       10 UNK        -0.0876 
     60 S60        20.1269  -30.9029  -44.3769 S.3       10 UNK        -0.2414 
     61 C61        18.8238  -31.8889  -43.5846 C.3       10 UNK         0.0169 
     62 H62        13.9421  -23.1711  -47.6592 H         1 UNK         0.0903 
     63 H63        14.1362  -23.3585  -45.9155 H         1 UNK         0.0903 
     64 H64        15.3934  -22.5589  -46.8615 H         1 UNK         0.0903 
     65 H65        14.7023  -25.4573  -45.3404 H         1 UNK         0.3096 
     66 H66        15.7274  -27.3412  -47.2543 H         1 UNK         0.1121 
     67 H67        14.1408  -28.1764  -45.6905 H         1 UNK         0.0849 
     68 H68        15.6526  -28.9488  -45.3313 H         1 UNK         0.0849 
     69 H69        14.1042  -28.8462  -41.8434 H         1 UNK         0.0865 
     70 H70        14.2121  -29.7149  -43.3483 H         1 UNK         0.0865 
     71 H71        16.3996  -30.7340  -44.0550 H         1 UNK         0.1346 
     72 H72        19.4505  -31.0737  -41.0664 H         1 UNK         0.1412 
     73 H73        16.0620  -28.5368  -40.3883 H         1 UNK         0.1426 
     74 H74        18.4934  -30.2316  -38.5978 H         1 UNK         0.0716 
     75 H75        17.7050  -28.6773  -38.7065 H         1 UNK         0.0716 
     76 H76        20.0717  -26.2545  -40.1474 H         1 UNK         0.0695 
     77 H77        18.6321  -27.0690  -40.6753 H         1 UNK         0.0695 
     78 H78        20.1487  -28.4988  -42.2421 H         1 UNK         0.0983 
     79 H79        19.0320  -25.9770  -42.6715 H         1 UNK         0.3095 
     80 H80        19.3351  -24.6403  -44.5822 H         1 UNK         0.0454 
     81 H81        21.0717  -24.9895  -46.3170 H         1 UNK         0.0851 
     82 H82        19.5512  -24.4941  -47.0444 H         1 UNK         0.0851 
     83 H83        20.0656  -26.1773  -47.1287 H         1 UNK         0.0851 
     84 H84        17.2421  -25.1934  -45.0615 H         1 UNK         0.2976 
     85 H85        21.6896  -25.3151  -42.1083 H         1 UNK         0.3116 
     86 H86        23.7648  -24.5586  -42.1712 H         1 UNK         0.0646 
     87 H87        24.3668  -27.1766  -43.6508 H         1 UNK         0.0847 
     88 H88        23.7063  -25.7186  -44.3688 H         1 UNK         0.0847 
     89 H89        25.3331  -25.7009  -43.7231 H         1 UNK         0.0847 
     90 H90        25.9568  -26.9820  -42.1848 H         1 UNK         0.3040 
     91 H91        26.9063  -26.3843  -39.5307 H         1 UNK         0.1015 
     92 H92        28.8243  -27.8056  -40.2359 H         1 UNK         0.0786 
     93 H93        28.4326  -26.6182  -41.4664 H         1 UNK         0.0786 
     94 H94        27.9536  -28.3023  -41.6797 H         1 UNK         0.0786 
     95 H95        24.7564  -27.2367  -38.6780 H         1 UNK         0.3172 
     96 H96        23.6854  -28.5406  -37.2224 H         1 UNK         0.0595 
     97 H97        26.3869  -29.9263  -36.7934 H         1 UNK         0.0839 
     98 H98        25.0056  -30.0013  -35.7112 H         1 UNK         0.0839 
     99 H99        25.8308  -28.4725  -35.9657 H         1 UNK         0.0839 
    100 H100       22.8075  -29.1654  -39.4550 H         1 UNK         0.2998 
    101 H101       21.6795  -30.5718  -40.7097 H         1 UNK         0.0822 
    102 H102       21.0321  -32.8164  -39.9254 H         1 UNK         0.0787 
    103 H103       20.8739  -31.6555  -38.6162 H         1 UNK         0.0787 
    104 H104       22.2383  -32.7724  -38.6523 H         1 UNK         0.0787 
    105 H105       23.7274  -29.9231  -41.8786 H         1 UNK         0.3055 
    106 H106       25.7311  -31.8765  -42.5131 H         1 UNK         0.1106 
    107 H107       26.0120  -29.4209  -42.8995 H         1 UNK         0.0828 
    108 H108       26.2696  -30.3247  -44.3836 H         1 UNK         0.0828 
    109 H109       24.7561  -29.4644  -44.1403 H         1 UNK         0.0828 
    110 H110       22.5147  -31.2810  -43.7550 H         1 UNK         0.2931 
    111 H111       22.6332  -33.2075  -45.9221 H         1 UNK         0.0412 
    112 H112       22.6067  -33.8251  -42.5638 H         1 UNK         0.3472 
    113 H113       21.7315  -35.3302  -42.6715 H         1 UNK         0.3472 
    114 H114       21.1747  -31.4800  -46.4307 H         1 UNK         0.0970 
    115 H115       20.0704  -32.7307  -45.9756 H         1 UNK         0.0970 
    116 H116       19.2724  -32.7087  -43.0217 H         1 UNK         0.0612 
    117 H117       18.1856  -32.3376  -44.3473 H         1 UNK         0.0612 
@<TRIPOS>BOND
     1    1    2 1    
     2    1   62 1    
     3    1   63 1    
     4    1   64 1    
     5    2    3 2    
     6    2    4 am   BACKBONE|DICT|INTERRES
     7    4    5 1    
     8    4   65 1    
     9    5    6 1    
    10    5   25 1    
    11    5   66 1    
    12    6    7 1    
    13    6   67 1    
    14    6   68 1    
    15    7    8 1    
    16    8    9 1    
    17    8   69 1    
    18    8   70 1    
    19    9   10 ar   
    20    9   14 ar   
    21   10   11 ar   
    22   10   71 1    
    23   11   12 ar   
    24   11   61 1    
    25   12   13 ar   
    26   12   72 1    
    27   13   14 ar   
    28   13   15 1    
    29   14   73 1    
    30   15   16 1    
    31   15   74 1    
    32   15   75 1    
    33   16   17 1    
    34   17   18 1    
    35   17   76 1    
    36   17   77 1    
    37   18   19 1    
    38   18   27 1    
    39   18   78 1    
    40   19   20 am   BACKBONE|DICT|INTERRES
    41   19   79 1    
    42   20   21 2    
    43   20   22 1    
    44   22   23 1    
    45   22   24 1    
    46   22   80 1    
    47   23   81 1    
    48   23   82 1    
    49   23   83 1    
    50   24   25 am   BACKBONE|DICT|INTERRES
    51   24   84 1    
    52   25   26 2    
    53   27   28 2    
    54   27   29 am   BACKBONE|DICT|INTERRES
    55   29   30 1    
    56   29   85 1    
    57   30   31 1    
    58   30   32 1    
    59   30   86 1    
    60   31   87 1    
    61   31   88 1    
    62   31   89 1    
    63   32   33 2    
    64   32   34 am   BACKBONE|DICT|INTERRES
    65   34   35 1    
    66   34   90 1    
    67   35   36 1    
    68   35   37 1    
    69   35   91 1    
    70   36   92 1    
    71   36   93 1    
    72   36   94 1    
    73   37   38 2    
    74   37   39 am   BACKBONE|DICT|INTERRES
    75   39   40 1    
    76   39   95 1    
    77   40   41 1    
    78   40   42 1    
    79   40   96 1    
    80   41   97 1    
    81   41   98 1    
    82   41   99 1    
    83   42   43 2    
    84   42   44 am   BACKBONE|DICT|INTERRES
    85   44   45 1    
    86   44  100 1    
    87   45   46 1    
    88   45   47 1    
    89   45  101 1    
    90   46  102 1    
    91   46  103 1    
    92   46  104 1    
    93   47   48 2    
    94   47   49 am   BACKBONE|DICT|INTERRES
    95   49   50 1    
    96   49  105 1    
    97   50   51 1    
    98   50   52 1    
    99   50  106 1    
   100   51  107 1    
   101   51  108 1    
   102   51  109 1    
   103   52   53 2    
   104   52   54 am   BACKBONE|DICT|INTERRES
   105   54   55 1    
   106   54  110 1    
   107   55   56 1    
   108   55   59 1    
   109   55  111 1    
   110   56   57 am   BACKBONE|DICT|INTERRES
   111   56   58 2    
   112   57  112 1    
   113   57  113 1    
   114   59   60 1    
   115   59  114 1    
   116   59  115 1    
   117   60   61 1    
   118   61  116 1    
   119   61  117 1    
@<TRIPOS>SUBSTRUCTURE
     1 UNK         1 GROUP             0       ****    0 ROOT    
