@<TRIPOS>MOLECULE
3R8
117   119    1
SMALL
USER_CHARGES


@<TRIPOS>ATOM
      1 CA         16.8987  -25.5101  -48.6475 C.3       0 UNK        -0.2013 
      2 C          18.2627  -25.8390  -48.0592 C.2       0 UNK         0.4866 
      3 O          19.2639  -25.7920  -48.7744 O.2       0 UNK        -0.5176 
      4 N          18.3037  -26.1685  -46.7645 N.am      1 UNK        -0.4884 
      5 CA         19.5153  -26.4659  -45.9979 C.3       1 UNK         0.0853 
      6 C6         19.6503  -27.9721  -45.6247 C.3       10 UNK        -0.0849 
      7 S7         19.4939  -29.1555  -47.0070 S.3       10 UNK        -0.2776 
      8 C8         17.7163  -29.5802  -46.9779 C.3       10 UNK         0.0316 
      9 C9         17.2599  -30.1795  -45.6522 C.ar      10 UNK        -0.0863 
     10 C10        17.4870  -31.5287  -45.3655 C.ar      10 UNK        -0.1009 
     11 C11        17.0528  -32.0801  -44.1550 C.ar      10 UNK        -0.0712 
     12 C12        16.4051  -31.2675  -43.2184 C.ar      10 UNK        -0.0894 
     13 C13        16.1645  -29.9190  -43.4967 C.ar      10 UNK        -0.0745 
     14 C14        16.5811  -29.3871  -44.7207 C.ar      10 UNK        -0.0972 
     15 C15        15.4021  -29.0476  -42.5075 C.3       10 UNK         0.0209 
     16 S16        16.3673  -27.6048  -41.9537 S.3       10 UNK        -0.2568 
     17 C17        17.3382  -28.2639  -40.5529 C.3       10 UNK        -0.0983 
     18 CA         18.8745  -28.2525  -40.7892 C.3       3 UNK         0.0876 
     19 N          19.3404  -26.9455  -41.2764 N.am      3 UNK        -0.4424 
     20 C          20.4631  -26.7284  -41.9705 C.2       2 UNK         0.4918 
     21 O          21.3064  -27.5930  -42.2112 O.2       2 UNK        -0.4875 
     22 CA         20.6519  -25.3298  -42.5778 C.3       2 UNK         0.0481 
     23 CB         22.0033  -24.7189  -42.1694 C.3       2 UNK        -0.1831 
     24 N          20.5973  -25.4954  -44.0298 N.am      2 UNK        -0.4498 
     25 C          19.4455  -25.6543  -44.6935 C.2       1 UNK         0.5027 
     26 O          18.3499  -25.2849  -44.2592 O.2       1 UNK        -0.4969 
     27 C          19.6600  -28.6876  -39.5275 C.2       3 UNK         0.5005 
     28 O          19.0770  -28.8375  -38.4509 O.2       3 UNK        -0.5279 
     29 N          20.9799  -28.8238  -39.6699 N.am      4 UNK        -0.4463 
     30 CA         21.9720  -29.0884  -38.6360 C.3       4 UNK         0.0283 
     31 CB         22.1166  -27.8588  -37.7135 C.3       4 UNK        -0.1875 
     32 C          23.3025  -29.4097  -39.3301 C.2       4 UNK         0.4949 
     33 O          23.4073  -29.2958  -40.5532 O.2       4 UNK        -0.5039 
     34 N          24.3297  -29.7418  -38.5358 N.am      5 UNK        -0.4663 
     35 CA         25.7003  -30.0396  -38.9864 C.3       5 UNK         0.0242 
     36 CB         26.5501  -30.4297  -37.7658 C.3       5 UNK        -0.1982 
     37 C          26.3925  -28.9157  -39.7902 C.2       5 UNK         0.5017 
     38 O          27.4087  -29.1748  -40.4352 O.2       5 UNK        -0.5012 
     39 N          25.8200  -27.7044  -39.7575 N.am      6 UNK        -0.4439 
     40 CA         26.1752  -26.5546  -40.5875 C.3       6 UNK         0.0297 
     41 CB         25.3730  -25.3319  -40.1126 C.3       6 UNK        -0.2006 
     42 C          25.9672  -26.7757  -42.1001 C.2       6 UNK         0.4892 
     43 O          26.6468  -26.1070  -42.8806 O.2       6 UNK        -0.5089 
     44 N          25.0655  -27.6878  -42.4985 N.am      7 UNK        -0.4243 
     45 CA         24.8722  -28.0687  -43.8987 C.3       7 UNK         0.0196 
     46 CB         23.8601  -27.1476  -44.6034 C.3       7 UNK        -0.2007 
     47 C          24.4959  -29.5475  -44.0228 C.2       7 UNK         0.5020 
     48 O          25.2870  -30.3153  -44.5724 O.2       7 UNK        -0.5147 
     49 N          23.3112  -29.9334  -43.5332 N.am      8 UNK        -0.4734 
     50 CA         22.7956  -31.2982  -43.6431 C.3       8 UNK         0.0238 
     51 CB         22.1835  -31.5163  -45.0407 C.3       8 UNK        -0.1912 
     52 C          21.7450  -31.5693  -42.5637 C.2       8 UNK         0.5038 
     53 O          21.0374  -30.6488  -42.1553 O.2       8 UNK        -0.5046 
     54 N          21.6248  -32.8463  -42.1790 N.am      9 UNK        -0.4200 
     55 CA         20.5926  -33.3778  -41.2710 C.3       9 UNK         0.0839 
     56 C          20.7380  -32.9197  -39.7898 C.2       9 UNK         0.5513 
     57 N          21.9402  -32.5983  -39.3285 N.am      9 UNK        -0.7519 
     58 O          19.7680  -32.8965  -39.0367 O.2       9 UNK        -0.4960 
     59 C59        19.1502  -33.2139  -41.8319 C.3       10 UNK        -0.0876 
     60 S60        18.9715  -33.9732  -43.4824 S.3       10 UNK        -0.2414 
     61 C61        17.2466  -33.5641  -43.8785 C.3       10 UNK         0.0169 
     62 H62        16.6723  -26.1884  -49.4698 H         1 UNK         0.0903 
     63 H63        16.1029  -25.5977  -47.9079 H         1 UNK         0.0903 
     64 H64        16.8921  -24.4913  -49.0341 H         1 UNK         0.0903 
     65 H65        17.4704  -26.0936  -46.1955 H         1 UNK         0.3096 
     66 H66        20.4007  -26.1479  -46.5530 H         1 UNK         0.1121 
     67 H67        18.9482  -28.2460  -44.8381 H         1 UNK         0.0849 
     68 H68        20.6328  -28.1483  -45.1821 H         1 UNK         0.0849 
     69 H69        17.1296  -28.6922  -47.2153 H         1 UNK         0.0865 
     70 H70        17.5157  -30.2900  -47.7816 H         1 UNK         0.0865 
     71 H71        17.9964  -32.1529  -46.0871 H         1 UNK         0.1346 
     72 H72        16.0667  -31.6920  -42.2831 H         1 UNK         0.1412 
     73 H73        16.3853  -28.3463  -44.9405 H         1 UNK         0.1426 
     74 H74        15.0669  -29.6230  -41.6433 H         1 UNK         0.0716 
     75 H75        14.4968  -28.6862  -42.9971 H         1 UNK         0.0716 
     76 H76        17.0813  -27.6575  -39.6821 H         1 UNK         0.0695 
     77 H77        17.0051  -29.2775  -40.3235 H         1 UNK         0.0695 
     78 H78        19.0839  -28.9921  -41.5655 H         1 UNK         0.0983 
     79 H79        18.6903  -26.1829  -41.1542 H         1 UNK         0.3095 
     80 H80        19.8549  -24.6627  -42.2420 H         1 UNK         0.0454 
     81 H81        22.0448  -24.5629  -41.0909 H         1 UNK         0.0851 
     82 H82        22.8440  -25.3603  -42.4356 H         1 UNK         0.0851 
     83 H83        22.1594  -23.7498  -42.6429 H         1 UNK         0.0851 
     84 H84        21.4468  -25.8328  -44.4576 H         1 UNK         0.2976 
     85 H85        21.3736  -28.7345  -40.6078 H         1 UNK         0.3116 
     86 H86        21.6579  -29.9587  -38.0576 H         1 UNK         0.0646 
     87 H87        22.8565  -28.0277  -36.9307 H         1 UNK         0.0847 
     88 H88        21.1794  -27.6226  -37.2099 H         1 UNK         0.0847 
     89 H89        22.4245  -26.9732  -38.2710 H         1 UNK         0.0847 
     90 H90        24.1677  -29.8015  -37.5404 H         1 UNK         0.3040 
     91 H91        25.6403  -30.9028  -39.6528 H         1 UNK         0.1015 
     92 H92        26.1329  -31.2950  -37.2503 H         1 UNK         0.0786 
     93 H93        26.6233  -29.6117  -37.0479 H         1 UNK         0.0786 
     94 H94        27.5662  -30.6937  -38.0632 H         1 UNK         0.0786 
     95 H95        24.9896  -27.6109  -39.1926 H         1 UNK         0.3172 
     96 H96        27.2364  -26.3510  -40.4308 H         1 UNK         0.0595 
     97 H97        25.5937  -25.0904  -39.0727 H         1 UNK         0.0839 
     98 H98        24.2985  -25.4965  -40.1995 H         1 UNK         0.0839 
     99 H99        25.6164  -24.4494  -40.7062 H         1 UNK         0.0839 
    100 H100       24.5447  -28.2216  -41.8062 H         1 UNK         0.2998 
    101 H101       25.8255  -27.9599  -44.4216 H         1 UNK         0.0822 
    102 H102       23.7529  -27.4224  -45.6536 H         1 UNK         0.0787 
    103 H103       22.8750  -27.2138  -44.1503 H         1 UNK         0.0787 
    104 H104       24.1804  -26.1062  -44.5708 H         1 UNK         0.0787 
    105 H105       22.7215  -29.2871  -43.0148 H         1 UNK         0.3055 
    106 H106       23.6204  -31.9993  -43.4952 H         1 UNK         0.1106 
    107 H107       21.3626  -30.8227  -45.2265 H         1 UNK         0.0828 
    108 H108       22.9222  -31.3809  -45.8305 H         1 UNK         0.0828 
    109 H109       21.7828  -32.5257  -45.1427 H         1 UNK         0.0828 
    110 H110       22.2454  -33.5366  -42.5753 H         1 UNK         0.2931 
    111 H111       20.7848  -34.4505  -41.2292 H         1 UNK         0.0412 
    112 H112       22.0420  -32.3460  -38.3593 H         1 UNK         0.3472 
    113 H113       22.7436  -32.6271  -39.9351 H         1 UNK         0.3472 
    114 H114       18.8776  -32.1589  -41.8861 H         1 UNK         0.0970 
    115 H115       18.4236  -33.6845  -41.1673 H         1 UNK         0.0970 
    116 H116       16.6000  -33.8984  -43.0656 H         1 UNK         0.0612 
    117 H117       16.9467  -34.1336  -44.7593 H         1 UNK         0.0612 
@<TRIPOS>BOND
     1    1    2 1    
     2    1   62 1    
     3    1   63 1    
     4    1   64 1    
     5    2    3 2    
     6    2    4 am   BACKBONE|DICT|INTERRES
     7    4    5 1    
     8    4   65 1    
     9    5    6 1    
    10    5   25 1    
    11    5   66 1    
    12    6    7 1    
    13    6   67 1    
    14    6   68 1    
    15    7    8 1    
    16    8    9 1    
    17    8   69 1    
    18    8   70 1    
    19    9   10 ar   
    20    9   14 ar   
    21   10   11 ar   
    22   10   71 1    
    23   11   12 ar   
    24   11   61 1    
    25   12   13 ar   
    26   12   72 1    
    27   13   14 ar   
    28   13   15 1    
    29   14   73 1    
    30   15   16 1    
    31   15   74 1    
    32   15   75 1    
    33   16   17 1    
    34   17   18 1    
    35   17   76 1    
    36   17   77 1    
    37   18   19 1    
    38   18   27 1    
    39   18   78 1    
    40   19   20 am   BACKBONE|DICT|INTERRES
    41   19   79 1    
    42   20   21 2    
    43   20   22 1    
    44   22   23 1    
    45   22   24 1    
    46   22   80 1    
    47   23   81 1    
    48   23   82 1    
    49   23   83 1    
    50   24   25 am   BACKBONE|DICT|INTERRES
    51   24   84 1    
    52   25   26 2    
    53   27   28 2    
    54   27   29 am   BACKBONE|DICT|INTERRES
    55   29   30 1    
    56   29   85 1    
    57   30   31 1    
    58   30   32 1    
    59   30   86 1    
    60   31   87 1    
    61   31   88 1    
    62   31   89 1    
    63   32   33 2    
    64   32   34 am   BACKBONE|DICT|INTERRES
    65   34   35 1    
    66   34   90 1    
    67   35   36 1    
    68   35   37 1    
    69   35   91 1    
    70   36   92 1    
    71   36   93 1    
    72   36   94 1    
    73   37   38 2    
    74   37   39 am   BACKBONE|DICT|INTERRES
    75   39   40 1    
    76   39   95 1    
    77   40   41 1    
    78   40   42 1    
    79   40   96 1    
    80   41   97 1    
    81   41   98 1    
    82   41   99 1    
    83   42   43 2    
    84   42   44 am   BACKBONE|DICT|INTERRES
    85   44   45 1    
    86   44  100 1    
    87   45   46 1    
    88   45   47 1    
    89   45  101 1    
    90   46  102 1    
    91   46  103 1    
    92   46  104 1    
    93   47   48 2    
    94   47   49 am   BACKBONE|DICT|INTERRES
    95   49   50 1    
    96   49  105 1    
    97   50   51 1    
    98   50   52 1    
    99   50  106 1    
   100   51  107 1    
   101   51  108 1    
   102   51  109 1    
   103   52   53 2    
   104   52   54 am   BACKBONE|DICT|INTERRES
   105   54   55 1    
   106   54  110 1    
   107   55   56 1    
   108   55   59 1    
   109   55  111 1    
   110   56   57 am   BACKBONE|DICT|INTERRES
   111   56   58 2    
   112   57  112 1    
   113   57  113 1    
   114   59   60 1    
   115   59  114 1    
   116   59  115 1    
   117   60   61 1    
   118   61  116 1    
   119   61  117 1    
@<TRIPOS>SUBSTRUCTURE
     1 UNK         1 GROUP             0       ****    0 ROOT    
