@<TRIPOS>MOLECULE
3R8
117   119    1
SMALL
USER_CHARGES


@<TRIPOS>ATOM
      1 CA         20.7603  -24.6827  -49.8715 C.3       0 UNK        -0.2013 
      2 C          21.0301  -25.2205  -48.4741 C.2       0 UNK         0.4866 
      3 O          21.9870  -24.7932  -47.8270 O.2       0 UNK        -0.5176 
      4 N          20.2006  -26.1611  -48.0074 N.am      1 UNK        -0.4884 
      5 CA         20.2574  -26.7351  -46.6598 C.3       1 UNK         0.0853 
      6 C6         19.5257  -28.1039  -46.5870 C.3       10 UNK        -0.0849 
      7 S7         17.7874  -28.0577  -47.1489 S.3       10 UNK        -0.2776 
      8 C8         17.2546  -29.7665  -46.8123 C.3       10 UNK         0.0316 
      9 C9         17.0446  -30.0295  -45.3265 C.ar      10 UNK        -0.0863 
     10 C10        17.9104  -30.8744  -44.6249 C.ar      10 UNK        -0.1009 
     11 C11        17.6887  -31.1528  -43.2722 C.ar      10 UNK        -0.0712 
     12 C12        16.5913  -30.5822  -42.6205 C.ar      10 UNK        -0.0894 
     13 C13        15.7414  -29.7055  -43.3016 C.ar      10 UNK        -0.0745 
     14 C14        15.9651  -29.4452  -44.6571 C.ar      10 UNK        -0.0972 
     15 C15        14.5850  -29.0292  -42.5796 C.3       10 UNK         0.0209 
     16 S16        14.9860  -27.3042  -42.1459 S.3       10 UNK        -0.2568 
     17 C17        15.9653  -27.4963  -40.6167 C.3       10 UNK        -0.0983 
     18 CA         17.4892  -27.6100  -40.8677 C.3       3 UNK         0.0876 
     19 N          18.0311  -26.4984  -41.6493 N.am      3 UNK        -0.4424 
     20 C          19.2499  -26.5098  -42.1986 C.2       2 UNK         0.4918 
     21 O          20.0789  -27.4067  -42.0237 O.2       2 UNK        -0.4875 
     22 CA         19.5934  -25.3571  -43.1435 C.3       2 UNK         0.0481 
     23 CB         20.6329  -24.4117  -42.5216 C.3       2 UNK        -0.1831 
     24 N          20.1415  -25.9763  -44.3437 N.am      2 UNK        -0.4498 
     25 C          19.7296  -25.7490  -45.5944 C.2       1 UNK         0.5027 
     26 O          18.9470  -24.8470  -45.9083 O.2       1 UNK        -0.4969 
     27 C          18.2563  -27.7952  -39.5457 C.2       3 UNK         0.5005 
     28 O          18.3976  -26.8362  -38.7834 O.2       3 UNK        -0.5279 
     29 N          18.7307  -29.0278  -39.3172 N.am      4 UNK        -0.4463 
     30 CA         19.5221  -29.4919  -38.1722 C.3       4 UNK         0.0283 
     31 CB         18.7484  -29.3237  -36.8468 C.3       4 UNK        -0.1875 
     32 C          20.9486  -28.9096  -38.1001 C.2       4 UNK         0.4949 
     33 O          21.6060  -29.0749  -37.0712 O.2       4 UNK        -0.5039 
     34 N          21.4317  -28.2765  -39.1793 N.am      5 UNK        -0.4663 
     35 CA         22.8234  -27.8470  -39.3086 C.3       5 UNK         0.0242 
     36 CB         22.9196  -26.7042  -40.3314 C.3       5 UNK        -0.1982 
     37 C          23.6669  -29.0454  -39.7563 C.2       5 UNK         0.5017 
     38 O          23.3523  -29.6420  -40.7873 O.2       5 UNK        -0.5012 
     39 N          24.7254  -29.3705  -39.0022 N.am      6 UNK        -0.4439 
     40 CA         25.5949  -30.5328  -39.2348 C.3       6 UNK         0.0297 
     41 CB         26.6298  -30.6315  -38.1028 C.3       6 UNK        -0.2006 
     42 C          26.2964  -30.5442  -40.6058 C.2       6 UNK         0.4892 
     43 O          26.5531  -31.6216  -41.1423 O.2       6 UNK        -0.5089 
     44 N          26.5603  -29.3537  -41.1613 N.am      7 UNK        -0.4243 
     45 CA         27.1199  -29.1653  -42.5014 C.3       7 UNK         0.0196 
     46 CB         27.5657  -27.7019  -42.6555 C.3       7 UNK        -0.2007 
     47 C          26.1524  -29.5522  -43.6367 C.2       7 UNK         0.5020 
     48 O          26.6188  -29.8529  -44.7358 O.2       7 UNK        -0.5147 
     49 N          24.8400  -29.5272  -43.3670 N.am      8 UNK        -0.4734 
     50 CA         23.7891  -29.8710  -44.3249 C.3       8 UNK         0.0238 
     51 CB         22.6768  -28.8094  -44.2623 C.3       8 UNK        -0.1912 
     52 C          23.2146  -31.2646  -44.0408 C.2       8 UNK         0.5038 
     53 O          23.0971  -32.0697  -44.9654 O.2       8 UNK        -0.5046 
     54 N          22.8506  -31.5103  -42.7777 N.am      9 UNK        -0.4200 
     55 CA         22.1425  -32.7144  -42.3221 C.3       9 UNK         0.0839 
     56 C          23.0738  -33.8845  -41.9005 C.2       9 UNK         0.5513 
     57 N          24.3856  -33.7044  -41.8125 N.am      9 UNK        -0.7519 
     58 O          22.5936  -34.9889  -41.6590 O.2       9 UNK        -0.4960 
     59 C59        21.1154  -32.3804  -41.2062 C.3       10 UNK        -0.0876 
     60 S60        19.9402  -31.0745  -41.7019 S.3       10 UNK        -0.2414 
     61 C61        18.6453  -32.0572  -42.5129 C.3       10 UNK         0.0169 
     62 H62        19.8952  -25.1595  -50.3320 H         1 UNK         0.0903 
     63 H63        20.5742  -23.6098  -49.8306 H         1 UNK         0.0903 
     64 H64        21.6238  -24.8549  -50.5135 H         1 UNK         0.0903 
     65 H65        19.4053  -26.4509  -48.5597 H         1 UNK         0.3096 
     66 H66        21.3107  -26.9135  -46.4303 H         1 UNK         0.1121 
     67 H67        19.5541  -28.5039  -45.5715 H         1 UNK         0.0849 
     68 H68        20.0587  -28.8298  -47.2032 H         1 UNK         0.0849 
     69 H69        16.3170  -29.9502  -47.3389 H         1 UNK         0.0865 
     70 H70        17.9793  -30.4638  -47.2357 H         1 UNK         0.0865 
     71 H71        18.7570  -31.3192  -45.1301 H         1 UNK         0.1346 
     72 H72        16.4193  -30.7948  -41.5743 H         1 UNK         0.1412 
     73 H73        15.3035  -28.7762  -45.1909 H         1 UNK         0.1426 
     74 H74        14.3000  -29.5855  -41.6854 H         1 UNK         0.0716 
     75 H75        13.7077  -29.0307  -43.2281 H         1 UNK         0.0716 
     76 H76        15.6007  -28.3690  -40.0717 H         1 UNK         0.0695 
     77 H77        15.7525  -26.6354  -39.9800 H         1 UNK         0.0695 
     78 H78        17.6598  -28.5002  -41.4714 H         1 UNK         0.0983 
     79 H79        17.4028  -25.7298  -41.8307 H         1 UNK         0.3095 
     80 H80        18.6848  -24.7952  -43.3706 H         1 UNK         0.0454 
     81 H81        21.5695  -24.9256  -42.3051 H         1 UNK         0.0851 
     82 H82        20.2663  -23.9880  -41.5859 H         1 UNK         0.0851 
     83 H83        20.8573  -23.5806  -43.1901 H         1 UNK         0.0851 
     84 H84        20.7357  -26.7721  -44.1527 H         1 UNK         0.2976 
     85 H85        18.6131  -29.7194  -40.0471 H         1 UNK         0.3116 
     86 H86        19.6569  -30.5628  -38.3317 H         1 UNK         0.0646 
     87 H87        18.6460  -28.2753  -36.5657 H         1 UNK         0.0847 
     88 H88        19.2624  -29.8270  -36.0271 H         1 UNK         0.0847 
     89 H89        17.7493  -29.7542  -36.9114 H         1 UNK         0.0847 
     90 H90        20.8613  -28.2150  -40.0145 H         1 UNK         0.3040 
     91 H91        23.1830  -27.4773  -38.3456 H         1 UNK         0.1015 
     92 H92        22.2779  -25.8688  -40.0511 H         1 UNK         0.0786 
     93 H93        22.6297  -27.0290  -41.3313 H         1 UNK         0.0786 
     94 H94        23.9397  -26.3240  -40.3971 H         1 UNK         0.0786 
     95 H95        24.9129  -28.8276  -38.1708 H         1 UNK         0.3172 
     96 H96        24.9615  -31.4217  -39.1935 H         1 UNK         0.0595 
     97 H97        27.2751  -29.7528  -38.0662 H         1 UNK         0.0839 
     98 H98        27.2735  -31.5022  -38.2378 H         1 UNK         0.0839 
     99 H99        26.1481  -30.7372  -37.1305 H         1 UNK         0.0839 
    100 H100       26.3187  -28.5212  -40.6440 H         1 UNK         0.2998 
    101 H101       28.0013  -29.8041  -42.5925 H         1 UNK         0.0822 
    102 H102       28.3109  -27.4321  -41.9069 H         1 UNK         0.0787 
    103 H103       28.0170  -27.5326  -43.6343 H         1 UNK         0.0787 
    104 H104       26.7262  -27.0118  -42.5604 H         1 UNK         0.0787 
    105 H105       24.5380  -29.3289  -42.4196 H         1 UNK         0.3055 
    106 H106       24.1876  -29.8789  -45.3422 H         1 UNK         0.1106 
    107 H107       21.8776  -29.0512  -44.9627 H         1 UNK         0.0828 
    108 H108       22.2297  -28.7442  -43.2689 H         1 UNK         0.0828 
    109 H109       23.0580  -27.8225  -44.5245 H         1 UNK         0.0828 
    110 H110       22.9897  -30.7909  -42.0703 H         1 UNK         0.2931 
    111 H111       21.5681  -33.0994  -43.1667 H         1 UNK         0.0412 
    112 H112       24.8049  -32.7997  -41.9741 H         1 UNK         0.3472 
    113 H113       24.9694  -34.4800  -41.5426 H         1 UNK         0.3472 
    114 H114       20.5532  -33.2693  -40.9135 H         1 UNK         0.0970 
    115 H115       21.6348  -32.0399  -40.3084 H         1 UNK         0.0970 
    116 H116       18.1063  -32.6396  -41.7641 H         1 UNK         0.0612 
    117 H117       19.1028  -32.7738  -43.1964 H         1 UNK         0.0612 
@<TRIPOS>BOND
     1    1    2 1    
     2    1   62 1    
     3    1   63 1    
     4    1   64 1    
     5    2    3 2    
     6    2    4 am   BACKBONE|DICT|INTERRES
     7    4    5 1    
     8    4   65 1    
     9    5    6 1    
    10    5   25 1    
    11    5   66 1    
    12    6    7 1    
    13    6   67 1    
    14    6   68 1    
    15    7    8 1    
    16    8    9 1    
    17    8   69 1    
    18    8   70 1    
    19    9   10 ar   
    20    9   14 ar   
    21   10   11 ar   
    22   10   71 1    
    23   11   12 ar   
    24   11   61 1    
    25   12   13 ar   
    26   12   72 1    
    27   13   14 ar   
    28   13   15 1    
    29   14   73 1    
    30   15   16 1    
    31   15   74 1    
    32   15   75 1    
    33   16   17 1    
    34   17   18 1    
    35   17   76 1    
    36   17   77 1    
    37   18   19 1    
    38   18   27 1    
    39   18   78 1    
    40   19   20 am   BACKBONE|DICT|INTERRES
    41   19   79 1    
    42   20   21 2    
    43   20   22 1    
    44   22   23 1    
    45   22   24 1    
    46   22   80 1    
    47   23   81 1    
    48   23   82 1    
    49   23   83 1    
    50   24   25 am   BACKBONE|DICT|INTERRES
    51   24   84 1    
    52   25   26 2    
    53   27   28 2    
    54   27   29 am   BACKBONE|DICT|INTERRES
    55   29   30 1    
    56   29   85 1    
    57   30   31 1    
    58   30   32 1    
    59   30   86 1    
    60   31   87 1    
    61   31   88 1    
    62   31   89 1    
    63   32   33 2    
    64   32   34 am   BACKBONE|DICT|INTERRES
    65   34   35 1    
    66   34   90 1    
    67   35   36 1    
    68   35   37 1    
    69   35   91 1    
    70   36   92 1    
    71   36   93 1    
    72   36   94 1    
    73   37   38 2    
    74   37   39 am   BACKBONE|DICT|INTERRES
    75   39   40 1    
    76   39   95 1    
    77   40   41 1    
    78   40   42 1    
    79   40   96 1    
    80   41   97 1    
    81   41   98 1    
    82   41   99 1    
    83   42   43 2    
    84   42   44 am   BACKBONE|DICT|INTERRES
    85   44   45 1    
    86   44  100 1    
    87   45   46 1    
    88   45   47 1    
    89   45  101 1    
    90   46  102 1    
    91   46  103 1    
    92   46  104 1    
    93   47   48 2    
    94   47   49 am   BACKBONE|DICT|INTERRES
    95   49   50 1    
    96   49  105 1    
    97   50   51 1    
    98   50   52 1    
    99   50  106 1    
   100   51  107 1    
   101   51  108 1    
   102   51  109 1    
   103   52   53 2    
   104   52   54 am   BACKBONE|DICT|INTERRES
   105   54   55 1    
   106   54  110 1    
   107   55   56 1    
   108   55   59 1    
   109   55  111 1    
   110   56   57 am   BACKBONE|DICT|INTERRES
   111   56   58 2    
   112   57  112 1    
   113   57  113 1    
   114   59   60 1    
   115   59  114 1    
   116   59  115 1    
   117   60   61 1    
   118   61  116 1    
   119   61  117 1    
@<TRIPOS>SUBSTRUCTURE
     1 UNK         1 GROUP             0       ****    0 ROOT    
