@<TRIPOS>MOLECULE
3R8
117   119    1
SMALL
USER_CHARGES


@<TRIPOS>ATOM
      1 CA         19.5058  -21.5404  -48.3794 C.3       0 UNK        -0.2013 
      2 C          19.9137  -22.2773  -47.1125 C.2       0 UNK         0.4866 
      3 O          20.2218  -21.6387  -46.1061 O.2       0 UNK        -0.5176 
      4 N          19.9202  -23.6171  -47.1542 N.am      1 UNK        -0.4884 
      5 CA         20.2693  -24.4878  -46.0227 C.3       1 UNK         0.0853 
      6 C6         20.5505  -25.9390  -46.5019 C.3       10 UNK        -0.0849 
      7 S7         21.7221  -26.8208  -45.4204 S.3       10 UNK        -0.2776 
      8 C8         21.7205  -28.4894  -46.1528 C.3       10 UNK         0.0316 
      9 C9         20.7425  -29.4150  -45.4435 C.ar      10 UNK        -0.0863 
     10 C10        21.1169  -30.0239  -44.2411 C.ar      10 UNK        -0.1009 
     11 C11        20.2387  -30.8824  -43.5750 C.ar      10 UNK        -0.0712 
     12 C12        18.9730  -31.1230  -44.1150 C.ar      10 UNK        -0.0894 
     13 C13        18.5783  -30.5094  -45.3078 C.ar      10 UNK        -0.0745 
     14 C14        19.4744  -29.6686  -45.9794 C.ar      10 UNK        -0.0972 
     15 C15        17.1628  -30.7157  -45.8312 C.3       10 UNK         0.0209 
     16 S16        16.1033  -29.2524  -45.5581 S.3       10 UNK        -0.2568 
     17 C17        16.2463  -28.9707  -43.7550 C.3       10 UNK        -0.0983 
     18 CA         17.3919  -27.9757  -43.4293 C.3       3 UNK         0.0876 
     19 N          17.2484  -26.6751  -44.0827 N.am      3 UNK        -0.4424 
     20 C          16.4552  -25.6528  -43.7417 C.2       2 UNK         0.4918 
     21 O          15.5852  -25.7161  -42.8724 O.2       2 UNK        -0.4875 
     22 CA         16.6993  -24.3214  -44.4895 C.3       2 UNK         0.0481 
     23 CB         16.6800  -23.1181  -43.5246 C.3       2 UNK        -0.1831 
     24 N          17.9223  -24.2989  -45.3144 N.am      2 UNK        -0.4498 
     25 C          19.1961  -24.4659  -44.9120 C.2       1 UNK         0.5027 
     26 O          19.5249  -24.6492  -43.7386 O.2       1 UNK        -0.4969 
     27 C          17.7624  -27.8647  -41.9351 C.2       3 UNK         0.5005 
     28 O          17.3152  -28.6704  -41.1157 O.2       3 UNK        -0.5279 
     29 N          18.6080  -26.8721  -41.6204 N.am      4 UNK        -0.4463 
     30 CA         19.3024  -26.7335  -40.3426 C.3       4 UNK         0.0283 
     31 CB         19.7807  -25.2781  -40.2061 C.3       4 UNK        -0.1875 
     32 C          20.4951  -27.7025  -40.2730 C.2       4 UNK         0.4949 
     33 O          20.9250  -28.2334  -41.2998 O.2       4 UNK        -0.5039 
     34 N          21.0597  -27.8766  -39.0716 N.am      5 UNK        -0.4663 
     35 CA         22.2176  -28.7366  -38.7832 C.3       5 UNK         0.0242 
     36 CB         22.2574  -29.0219  -37.2700 C.3       5 UNK        -0.1982 
     37 C          23.5636  -28.1914  -39.3191 C.2       5 UNK         0.5017 
     38 O          24.5747  -28.2401  -38.6165 O.2       5 UNK        -0.5012 
     39 N          23.5567  -27.6889  -40.5597 N.am      6 UNK        -0.4439 
     40 CA         24.7344  -27.2695  -41.3226 C.3       6 UNK         0.0297 
     41 CB         24.2913  -26.3038  -42.4323 C.3       6 UNK        -0.2006 
     42 C          25.4931  -28.4684  -41.9212 C.2       6 UNK         0.4892 
     43 O          26.6830  -28.3448  -42.2132 O.2       6 UNK        -0.5089 
     44 N          24.7963  -29.6005  -42.0729 N.am      7 UNK        -0.4243 
     45 CA         25.3450  -30.9112  -42.4018 C.3       7 UNK         0.0196 
     46 CB         24.6767  -31.4303  -43.6860 C.3       7 UNK        -0.2007 
     47 C          25.0494  -31.8511  -41.2268 C.2       7 UNK         0.5020 
     48 O          24.1364  -31.5843  -40.4386 O.2       7 UNK        -0.5147 
     49 N          25.8014  -32.9548  -41.1425 N.am      8 UNK        -0.4734 
     50 CA         25.6985  -33.9789  -40.0953 C.3       8 UNK         0.0238 
     51 CB         27.0260  -34.7587  -40.0321 C.3       8 UNK        -0.1912 
     52 C          24.4743  -34.9037  -40.2715 C.2       8 UNK         0.5038 
     53 O          24.6240  -36.1264  -40.3231 O.2       8 UNK        -0.5046 
     54 N          23.2878  -34.2981  -40.3760 N.am      9 UNK        -0.4200 
     55 CA         21.9835  -34.9651  -40.4546 C.3       9 UNK         0.0839 
     56 C          21.6207  -35.7050  -39.1384 C.2       9 UNK         0.5513 
     57 N          20.9273  -36.8312  -39.2326 N.am      9 UNK        -0.7519 
     58 O          21.9221  -35.2470  -38.0378 O.2       9 UNK        -0.4960 
     59 C59        20.8671  -33.9637  -40.8439 C.3       10 UNK        -0.0876 
     60 S60        21.1038  -33.2752  -42.5174 S.3       10 UNK        -0.2414 
     61 C61        20.6353  -31.5368  -42.2606 C.3       10 UNK         0.0169 
     62 H62        20.3150  -20.8910  -48.7124 H         1 UNK         0.0903 
     63 H63        19.2655  -22.2258  -49.1920 H         1 UNK         0.0903 
     64 H64        18.6296  -20.9216  -48.1875 H         1 UNK         0.0903 
     65 H65        19.6720  -24.0847  -48.0154 H         1 UNK         0.3096 
     66 H66        21.1853  -24.0838  -45.5840 H         1 UNK         0.1121 
     67 H67        21.0054  -25.9210  -47.4939 H         1 UNK         0.0849 
     68 H68        19.6321  -26.5200  -46.6078 H         1 UNK         0.0849 
     69 H69        22.7270  -28.9038  -46.0753 H         1 UNK         0.0865 
     70 H70        21.5011  -28.4353  -47.2203 H         1 UNK         0.0865 
     71 H71        22.0895  -29.8161  -43.8178 H         1 UNK         0.1346 
     72 H72        18.2867  -31.7730  -43.5896 H         1 UNK         0.1412 
     73 H73        19.1707  -29.1901  -46.9006 H         1 UNK         0.1426 
     74 H74        16.6986  -31.5834  -45.3597 H         1 UNK         0.0716 
     75 H75        17.1994  -30.9323  -46.8997 H         1 UNK         0.0716 
     76 H76        16.4039  -29.9310  -43.2615 H         1 UNK         0.0695 
     77 H77        15.2951  -28.5873  -43.3830 H         1 UNK         0.0695 
     78 H78        18.3065  -28.3774  -43.8570 H         1 UNK         0.0983 
     79 H79        17.9042  -26.5039  -44.8286 H         1 UNK         0.3095 
     80 H80        15.8647  -24.2059  -45.1822 H         1 UNK         0.0454 
     81 H81        16.8395  -22.1801  -44.0563 H         1 UNK         0.0851 
     82 H82        17.4490  -23.2026  -42.7559 H         1 UNK         0.0851 
     83 H83        15.7197  -23.0393  -43.0137 H         1 UNK         0.0851 
     84 H84        17.7711  -24.1590  -46.3041 H         1 UNK         0.2976 
     85 H85        18.9355  -26.2686  -42.3665 H         1 UNK         0.3116 
     86 H86        18.6112  -26.9636  -39.5292 H         1 UNK         0.0646 
     87 H87        20.2665  -25.1076  -39.2448 H         1 UNK         0.0847 
     88 H88        18.9466  -24.5793  -40.2734 H         1 UNK         0.0847 
     89 H89        20.4979  -25.0150  -40.9854 H         1 UNK         0.0847 
     90 H90        20.6766  -27.3718  -38.2847 H         1 UNK         0.3040 
     91 H91        22.0588  -29.6919  -39.2896 H         1 UNK         0.1015 
     92 H92        22.4366  -28.1137  -36.6934 H         1 UNK         0.0786 
     93 H93        23.0521  -29.7280  -37.0245 H         1 UNK         0.0786 
     94 H94        21.3224  -29.4627  -36.9236 H         1 UNK         0.0786 
     95 H95        22.6669  -27.7162  -41.0548 H         1 UNK         0.3172 
     96 H96        25.4166  -26.7391  -40.6551 H         1 UNK         0.0595 
     97 H97        25.1472  -25.9514  -43.0095 H         1 UNK         0.0839 
     98 H98        23.6036  -26.7836  -43.1288 H         1 UNK         0.0839 
     99 H99        23.7932  -25.4257  -42.0212 H         1 UNK         0.0839 
    100 H100       23.8520  -29.6181  -41.7142 H         1 UNK         0.2998 
    101 H101       26.4257  -30.8531  -42.5481 H         1 UNK         0.0822 
    102 H102       23.6123  -31.6185  -43.5418 H         1 UNK         0.0787 
    103 H103       24.7842  -30.7197  -44.5058 H         1 UNK         0.0787 
    104 H104       25.1281  -32.3689  -44.0093 H         1 UNK         0.0787 
    105 H105       26.4962  -33.1193  -41.8576 H         1 UNK         0.3055 
    106 H106       25.5684  -33.4749  -39.1345 H         1 UNK         0.1106 
    107 H107       27.0100  -35.4949  -39.2270 H         1 UNK         0.0828 
    108 H108       27.2243  -35.2954  -40.9607 H         1 UNK         0.0828 
    109 H109       27.8689  -34.0944  -39.8405 H         1 UNK         0.0828 
    110 H110       23.2782  -33.2836  -40.3359 H         1 UNK         0.2931 
    111 H111       22.0559  -35.7146  -41.2458 H         1 UNK         0.0412 
    112 H112       20.6675  -37.2098  -40.1307 H         1 UNK         0.3472 
    113 H113       20.6673  -37.3197  -38.3895 H         1 UNK         0.3472 
    114 H114       19.8902  -34.4511  -40.8295 H         1 UNK         0.0970 
    115 H115       20.8142  -33.1554  -40.1117 H         1 UNK         0.0970 
    116 H116       21.4654  -31.0044  -41.7933 H         1 UNK         0.0612 
    117 H117       19.7961  -31.4754  -41.5658 H         1 UNK         0.0612 
@<TRIPOS>BOND
     1    1    2 1    
     2    1   62 1    
     3    1   63 1    
     4    1   64 1    
     5    2    3 2    
     6    2    4 am   BACKBONE|DICT|INTERRES
     7    4    5 1    
     8    4   65 1    
     9    5    6 1    
    10    5   25 1    
    11    5   66 1    
    12    6    7 1    
    13    6   67 1    
    14    6   68 1    
    15    7    8 1    
    16    8    9 1    
    17    8   69 1    
    18    8   70 1    
    19    9   10 ar   
    20    9   14 ar   
    21   10   11 ar   
    22   10   71 1    
    23   11   12 ar   
    24   11   61 1    
    25   12   13 ar   
    26   12   72 1    
    27   13   14 ar   
    28   13   15 1    
    29   14   73 1    
    30   15   16 1    
    31   15   74 1    
    32   15   75 1    
    33   16   17 1    
    34   17   18 1    
    35   17   76 1    
    36   17   77 1    
    37   18   19 1    
    38   18   27 1    
    39   18   78 1    
    40   19   20 am   BACKBONE|DICT|INTERRES
    41   19   79 1    
    42   20   21 2    
    43   20   22 1    
    44   22   23 1    
    45   22   24 1    
    46   22   80 1    
    47   23   81 1    
    48   23   82 1    
    49   23   83 1    
    50   24   25 am   BACKBONE|DICT|INTERRES
    51   24   84 1    
    52   25   26 2    
    53   27   28 2    
    54   27   29 am   BACKBONE|DICT|INTERRES
    55   29   30 1    
    56   29   85 1    
    57   30   31 1    
    58   30   32 1    
    59   30   86 1    
    60   31   87 1    
    61   31   88 1    
    62   31   89 1    
    63   32   33 2    
    64   32   34 am   BACKBONE|DICT|INTERRES
    65   34   35 1    
    66   34   90 1    
    67   35   36 1    
    68   35   37 1    
    69   35   91 1    
    70   36   92 1    
    71   36   93 1    
    72   36   94 1    
    73   37   38 2    
    74   37   39 am   BACKBONE|DICT|INTERRES
    75   39   40 1    
    76   39   95 1    
    77   40   41 1    
    78   40   42 1    
    79   40   96 1    
    80   41   97 1    
    81   41   98 1    
    82   41   99 1    
    83   42   43 2    
    84   42   44 am   BACKBONE|DICT|INTERRES
    85   44   45 1    
    86   44  100 1    
    87   45   46 1    
    88   45   47 1    
    89   45  101 1    
    90   46  102 1    
    91   46  103 1    
    92   46  104 1    
    93   47   48 2    
    94   47   49 am   BACKBONE|DICT|INTERRES
    95   49   50 1    
    96   49  105 1    
    97   50   51 1    
    98   50   52 1    
    99   50  106 1    
   100   51  107 1    
   101   51  108 1    
   102   51  109 1    
   103   52   53 2    
   104   52   54 am   BACKBONE|DICT|INTERRES
   105   54   55 1    
   106   54  110 1    
   107   55   56 1    
   108   55   59 1    
   109   55  111 1    
   110   56   57 am   BACKBONE|DICT|INTERRES
   111   56   58 2    
   112   57  112 1    
   113   57  113 1    
   114   59   60 1    
   115   59  114 1    
   116   59  115 1    
   117   60   61 1    
   118   61  116 1    
   119   61  117 1    
@<TRIPOS>SUBSTRUCTURE
     1 UNK         1 GROUP             0       ****    0 ROOT    
