@<TRIPOS>MOLECULE
3R8
117   119    1
SMALL
USER_CHARGES


@<TRIPOS>ATOM
      1 CA         16.4301  -21.6356  -43.5558 C.3       0 UNK        -0.2013 
      2 C          16.4702  -22.8319  -44.4947 C.2       0 UNK         0.4866 
      3 O          17.1286  -22.7722  -45.5332 O.2       0 UNK        -0.5176 
      4 N          15.7667  -23.9160  -44.1402 N.am      1 UNK        -0.4884 
      5 CA         15.7130  -25.1672  -44.9085 C.3       1 UNK         0.0853 
      6 C6         14.5551  -26.0716  -44.4132 C.3       10 UNK        -0.0849 
      7 S7         14.0688  -27.3476  -45.6245 S.3       10 UNK        -0.2776 
      8 C8         14.2961  -28.8950  -44.6807 C.3       10 UNK         0.0316 
      9 C9         15.7311  -29.4183  -44.6764 C.ar      10 UNK        -0.0863 
     10 C10        16.3739  -29.7138  -43.4686 C.ar      10 UNK        -0.1009 
     11 C11        17.6425  -30.3073  -43.4599 C.ar      10 UNK        -0.0712 
     12 C12        18.2709  -30.5984  -44.6748 C.ar      10 UNK        -0.0894 
     13 C13        17.6578  -30.2754  -45.8885 C.ar      10 UNK        -0.0745 
     14 C14        16.3860  -29.6937  -45.8816 C.ar      10 UNK        -0.0972 
     15 C15        18.3445  -30.5919  -47.2102 C.3       10 UNK         0.0209 
     16 S16        19.3904  -29.2174  -47.7931 S.3       10 UNK        -0.2568 
     17 C17        20.9182  -29.4558  -46.8221 C.3       10 UNK        -0.0983 
     18 CA         21.2753  -28.2389  -45.9271 C.3       3 UNK         0.0876 
     19 N          20.2032  -27.9274  -44.9790 N.am      3 UNK        -0.4424 
     20 C          20.0032  -26.7520  -44.3737 C.2       2 UNK         0.4918 
     21 O          20.6872  -25.7456  -44.5751 O.2       2 UNK        -0.4875 
     22 CA         18.8721  -26.7147  -43.3340 C.3       2 UNK         0.0481 
     23 CB         19.4007  -26.2384  -41.9718 C.3       2 UNK        -0.1831 
     24 N          17.7150  -25.9041  -43.7137 N.am      2 UNK        -0.4498 
     25 C          17.0534  -25.9289  -44.8820 C.2       1 UNK         0.5027 
     26 O          17.4291  -26.5195  -45.8940 O.2       1 UNK        -0.4969 
     27 C          22.5990  -28.4525  -45.1583 C.2       3 UNK         0.5005 
     28 O          23.1157  -29.5699  -45.1337 O.2       3 UNK        -0.5279 
     29 N          23.0849  -27.3743  -44.5235 N.am      4 UNK        -0.4463 
     30 CA         24.1211  -27.3025  -43.4887 C.3       4 UNK         0.0283 
     31 CB         25.4452  -27.9792  -43.8999 C.3       4 UNK        -0.1875 
     32 C          23.5722  -27.8367  -42.1557 C.2       4 UNK         0.4949 
     33 O          23.4482  -29.0469  -41.9689 O.2       4 UNK        -0.5039 
     34 N          23.2334  -26.9082  -41.2501 N.am      5 UNK        -0.4663 
     35 CA         22.6770  -27.2049  -39.9248 C.3       5 UNK         0.0242 
     36 CB         22.2466  -25.8949  -39.2455 C.3       5 UNK        -0.1982 
     37 C          23.6355  -27.9963  -39.0176 C.2       5 UNK         0.5017 
     38 O          23.1761  -28.8066  -38.2123 O.2       5 UNK        -0.5012 
     39 N          24.9431  -27.7567  -39.1780 N.am      6 UNK        -0.4439 
     40 CA         26.0086  -28.5131  -38.5295 C.3       6 UNK         0.0297 
     41 CB         27.2884  -27.6619  -38.4929 C.3       6 UNK        -0.2006 
     42 C          26.2540  -29.8272  -39.2850 C.2       6 UNK         0.4892 
     43 O          26.4403  -29.8007  -40.5039 O.2       6 UNK        -0.5089 
     44 N          26.2848  -30.9352  -38.5346 N.am      7 UNK        -0.4243 
     45 CA         26.5755  -32.3144  -38.9450 C.3       7 UNK         0.0196 
     46 CB         28.0014  -32.4480  -39.5175 C.3       7 UNK        -0.2007 
     47 C          25.5354  -32.9499  -39.8842 C.2       7 UNK         0.5020 
     48 O          24.9837  -33.9935  -39.5362 O.2       7 UNK        -0.5147 
     49 N          25.2927  -32.3450  -41.0539 N.am      8 UNK        -0.4734 
     50 CA         24.4620  -32.9116  -42.1245 C.3       8 UNK         0.0238 
     51 CB         24.6390  -32.0983  -43.4133 C.3       8 UNK        -0.1912 
     52 C          22.9771  -33.0524  -41.7498 C.2       8 UNK         0.5038 
     53 O          22.3785  -34.0842  -42.0578 O.2       8 UNK        -0.5046 
     54 N          22.4296  -32.0480  -41.0550 N.am      9 UNK        -0.4200 
     55 CA         21.0993  -32.1023  -40.4246 C.3       9 UNK         0.0839 
     56 C          21.0774  -32.8385  -39.0500 C.2       9 UNK         0.5513 
     57 N          22.1712  -33.4160  -38.5665 N.am      9 UNK        -0.7519 
     58 O          20.0324  -32.9044  -38.4077 O.2       9 UNK        -0.4960 
     59 C59        20.4421  -30.6991  -40.3364 C.3       10 UNK        -0.0876 
     60 S60        19.9998  -30.0280  -41.9744 S.3       10 UNK        -0.2414 
     61 C61        18.3052  -30.6837  -42.1392 C.3       10 UNK         0.0169 
     62 H62        16.0338  -20.7638  -44.0759 H         1 UNK         0.0903 
     63 H63        15.8053  -21.8215  -42.6823 H         1 UNK         0.0903 
     64 H64        17.4353  -21.3974  -43.2090 H         1 UNK         0.0903 
     65 H65        15.2298  -23.8975  -43.2840 H         1 UNK         0.3096 
     66 H66        15.5163  -24.8974  -45.9491 H         1 UNK         0.1121 
     67 H67        13.6657  -25.4650  -44.2342 H         1 UNK         0.0849 
     68 H68        14.7965  -26.5296  -43.4518 H         1 UNK         0.0849 
     69 H69        13.9219  -28.7600  -43.6647 H         1 UNK         0.0865 
     70 H70        13.6620  -29.6609  -45.1292 H         1 UNK         0.0865 
     71 H71        15.8707  -29.5149  -42.5322 H         1 UNK         0.1346 
     72 H72        19.2386  -31.0812  -44.6704 H         1 UNK         0.1412 
     73 H73        15.8961  -29.4663  -46.8187 H         1 UNK         0.1426 
     74 H74        17.5912  -30.7974  -47.9723 H         1 UNK         0.0716 
     75 H75        18.9379  -31.5037  -47.1262 H         1 UNK         0.0716 
     76 H76        21.7249  -29.6439  -47.5330 H         1 UNK         0.0695 
     77 H77        20.8342  -30.3635  -46.2232 H         1 UNK         0.0695 
     78 H78        21.4167  -27.3772  -46.5835 H         1 UNK         0.0983 
     79 H79        19.5745  -28.6890  -44.7655 H         1 UNK         0.3095 
     80 H80        18.4995  -27.7286  -43.1999 H         1 UNK         0.0454 
     81 H81        18.6458  -26.3376  -41.1919 H         1 UNK         0.0851 
     82 H82        19.7219  -25.1966  -42.0036 H         1 UNK         0.0851 
     83 H83        20.2591  -26.8352  -41.6643 H         1 UNK         0.0851 
     84 H84        17.3208  -25.3332  -42.9812 H         1 UNK         0.2976 
     85 H85        22.5157  -26.5360  -44.6041 H         1 UNK         0.3116 
     86 H86        24.3382  -26.2404  -43.3642 H         1 UNK         0.0646 
     87 H87        25.3504  -29.0608  -43.9860 H         1 UNK         0.0847 
     88 H88        25.8087  -27.5967  -44.8533 H         1 UNK         0.0847 
     89 H89        26.2190  -27.7912  -43.1548 H         1 UNK         0.0847 
     90 H90        23.3541  -25.9323  -41.4820 H         1 UNK         0.3040 
     91 H91        21.7878  -27.8196  -40.0710 H         1 UNK         0.1015 
     92 H92        21.8005  -26.0913  -38.2694 H         1 UNK         0.0786 
     93 H93        21.5016  -25.3638  -39.8378 H         1 UNK         0.0786 
     94 H94        23.0920  -25.2239  -39.0878 H         1 UNK         0.0786 
     95 H95        25.2197  -27.1156  -39.9066 H         1 UNK         0.3172 
     96 H96        25.7149  -28.7310  -37.5001 H         1 UNK         0.0595 
     97 H97        27.1321  -26.7324  -37.9451 H         1 UNK         0.0839 
     98 H98        27.6353  -27.4072  -39.4954 H         1 UNK         0.0839 
     99 H99        28.0980  -28.1982  -37.9959 H         1 UNK         0.0839 
    100 H100       26.0828  -30.8271  -37.5497 H         1 UNK         0.2998 
    101 H101       26.5495  -32.8981  -38.0230 H         1 UNK         0.0822 
    102 H102       28.2352  -33.4905  -39.7377 H         1 UNK         0.0787 
    103 H103       28.1284  -31.8869  -40.4437 H         1 UNK         0.0787 
    104 H104       28.7477  -32.0926  -38.8069 H         1 UNK         0.0787 
    105 H105       25.7362  -31.4441  -41.2192 H         1 UNK         0.3055 
    106 H106       24.8337  -33.9203  -42.3194 H         1 UNK         0.1106 
    107 H107       25.6794  -32.0820  -43.7375 H         1 UNK         0.0828 
    108 H108       24.0496  -32.5200  -44.2285 H         1 UNK         0.0828 
    109 H109       24.3127  -31.0689  -43.2806 H         1 UNK         0.0828 
    110 H110       22.9782  -31.2144  -40.8911 H         1 UNK         0.2931 
    111 H111       20.4550  -32.7084  -41.0642 H         1 UNK         0.0412 
    112 H112       22.1181  -33.8888  -37.6782 H         1 UNK         0.3472 
    113 H113       23.0366  -33.4372  -39.0910 H         1 UNK         0.3472 
    114 H114       21.1170  -30.0046  -39.8370 H         1 UNK         0.0970 
    115 H115       19.5374  -30.7189  -39.7259 H         1 UNK         0.0970 
    116 H116       17.7095  -30.3243  -41.2987 H         1 UNK         0.0612 
    117 H117       18.3328  -31.7711  -42.0604 H         1 UNK         0.0612 
@<TRIPOS>BOND
     1    1    2 1    
     2    1   62 1    
     3    1   63 1    
     4    1   64 1    
     5    2    3 2    
     6    2    4 am   BACKBONE|DICT|INTERRES
     7    4    5 1    
     8    4   65 1    
     9    5    6 1    
    10    5   25 1    
    11    5   66 1    
    12    6    7 1    
    13    6   67 1    
    14    6   68 1    
    15    7    8 1    
    16    8    9 1    
    17    8   69 1    
    18    8   70 1    
    19    9   10 ar   
    20    9   14 ar   
    21   10   11 ar   
    22   10   71 1    
    23   11   12 ar   
    24   11   61 1    
    25   12   13 ar   
    26   12   72 1    
    27   13   14 ar   
    28   13   15 1    
    29   14   73 1    
    30   15   16 1    
    31   15   74 1    
    32   15   75 1    
    33   16   17 1    
    34   17   18 1    
    35   17   76 1    
    36   17   77 1    
    37   18   19 1    
    38   18   27 1    
    39   18   78 1    
    40   19   20 am   BACKBONE|DICT|INTERRES
    41   19   79 1    
    42   20   21 2    
    43   20   22 1    
    44   22   23 1    
    45   22   24 1    
    46   22   80 1    
    47   23   81 1    
    48   23   82 1    
    49   23   83 1    
    50   24   25 am   BACKBONE|DICT|INTERRES
    51   24   84 1    
    52   25   26 2    
    53   27   28 2    
    54   27   29 am   BACKBONE|DICT|INTERRES
    55   29   30 1    
    56   29   85 1    
    57   30   31 1    
    58   30   32 1    
    59   30   86 1    
    60   31   87 1    
    61   31   88 1    
    62   31   89 1    
    63   32   33 2    
    64   32   34 am   BACKBONE|DICT|INTERRES
    65   34   35 1    
    66   34   90 1    
    67   35   36 1    
    68   35   37 1    
    69   35   91 1    
    70   36   92 1    
    71   36   93 1    
    72   36   94 1    
    73   37   38 2    
    74   37   39 am   BACKBONE|DICT|INTERRES
    75   39   40 1    
    76   39   95 1    
    77   40   41 1    
    78   40   42 1    
    79   40   96 1    
    80   41   97 1    
    81   41   98 1    
    82   41   99 1    
    83   42   43 2    
    84   42   44 am   BACKBONE|DICT|INTERRES
    85   44   45 1    
    86   44  100 1    
    87   45   46 1    
    88   45   47 1    
    89   45  101 1    
    90   46  102 1    
    91   46  103 1    
    92   46  104 1    
    93   47   48 2    
    94   47   49 am   BACKBONE|DICT|INTERRES
    95   49   50 1    
    96   49  105 1    
    97   50   51 1    
    98   50   52 1    
    99   50  106 1    
   100   51  107 1    
   101   51  108 1    
   102   51  109 1    
   103   52   53 2    
   104   52   54 am   BACKBONE|DICT|INTERRES
   105   54   55 1    
   106   54  110 1    
   107   55   56 1    
   108   55   59 1    
   109   55  111 1    
   110   56   57 am   BACKBONE|DICT|INTERRES
   111   56   58 2    
   112   57  112 1    
   113   57  113 1    
   114   59   60 1    
   115   59  114 1    
   116   59  115 1    
   117   60   61 1    
   118   61  116 1    
   119   61  117 1    
@<TRIPOS>SUBSTRUCTURE
     1 UNK         1 GROUP             0       ****    0 ROOT    
