@<TRIPOS>MOLECULE
3R8
117   119    1
SMALL
USER_CHARGES


@<TRIPOS>ATOM
      1 CA         17.3521  -22.3927  -49.1765 C.3       0 UNK        -0.2013 
      2 C          18.2754  -23.0845  -48.1845 C.2       0 UNK         0.4866 
      3 O          19.2320  -22.4719  -47.7086 O.2       0 UNK        -0.5176 
      4 N          18.0025  -24.3582  -47.8748 N.am      1 UNK        -0.4884 
      5 CA         18.7411  -25.1524  -46.8881 C.3       1 UNK         0.0853 
      6 C6         18.4558  -26.6652  -47.0694 C.3       10 UNK        -0.0849 
      7 S7         19.7734  -27.7232  -46.3803 S.3       10 UNK        -0.2776 
      8 C8         18.9450  -29.3464  -46.3333 C.3       10 UNK         0.0316 
      9 C9         18.3975  -29.6888  -44.9520 C.ar      10 UNK        -0.0863 
     10 C10        19.0734  -30.6022  -44.1362 C.ar      10 UNK        -0.1009 
     11 C11        18.5523  -30.9714  -42.8914 C.ar      10 UNK        -0.0712 
     12 C12        17.3542  -30.3991  -42.4502 C.ar      10 UNK        -0.0894 
     13 C13        16.6632  -29.4900  -43.2588 C.ar      10 UNK        -0.0745 
     14 C14        17.1891  -29.1429  -44.5082 C.ar      10 UNK        -0.0972 
     15 C15        15.3128  -28.9343  -42.8235 C.3       10 UNK         0.0209 
     16 S16        15.3497  -27.1327  -42.5603 S.3       10 UNK        -0.2568 
     17 C17        15.9498  -26.9967  -40.8425 C.3       10 UNK        -0.0983 
     18 CA         17.4878  -26.8305  -40.7355 C.3       3 UNK         0.0876 
     19 N          17.9791  -25.6673  -41.4722 N.am      3 UNK        -0.4424 
     20 C          18.8170  -25.7449  -42.5090 C.2       2 UNK         0.4918 
     21 O          19.2684  -26.8010  -42.9495 O.2       2 UNK        -0.4875 
     22 CA         19.2586  -24.4215  -43.1503 C.3       2 UNK         0.0481 
     23 CB         20.5927  -23.9560  -42.5447 C.3       2 UNK        -0.1831 
     24 N          19.4217  -24.6061  -44.5926 N.am      2 UNK        -0.4498 
     25 C          18.4025  -24.6825  -45.4577 C.2       1 UNK         0.5027 
     26 O          17.2312  -24.4255  -45.1641 O.2       1 UNK        -0.4969 
     27 C          17.9192  -26.6470  -39.2660 C.2       3 UNK         0.5005 
     28 O          17.3828  -25.7505  -38.6134 O.2       3 UNK        -0.5279 
     29 N          18.8504  -27.4359  -38.7092 N.am      4 UNK        -0.4463 
     30 CA         19.7421  -28.3998  -39.3599 C.3       4 UNK         0.0283 
     31 CB         20.3391  -29.3162  -38.2781 C.3       4 UNK        -0.1875 
     32 C          20.8741  -27.6888  -40.1216 C.2       4 UNK         0.4949 
     33 O          21.2586  -26.5744  -39.7635 O.2       4 UNK        -0.5039 
     34 N          21.4333  -28.3866  -41.1130 N.am      5 UNK        -0.4663 
     35 CA         22.5900  -27.9781  -41.9139 C.3       5 UNK         0.0242 
     36 CB         22.3732  -28.4541  -43.3624 C.3       5 UNK        -0.1982 
     37 C          23.9128  -28.5107  -41.3243 C.2       5 UNK         0.5017 
     38 O          24.8786  -28.7051  -42.0652 O.2       5 UNK        -0.5012 
     39 N          23.9328  -28.7508  -40.0043 N.am      6 UNK        -0.4439 
     40 CA         25.0373  -29.2971  -39.2117 C.3       6 UNK         0.0297 
     41 CB         26.1915  -28.2724  -39.1107 C.3       6 UNK        -0.2006 
     42 C          25.4578  -30.6910  -39.7178 C.2       6 UNK         0.4892 
     43 O          24.6030  -31.5724  -39.8202 O.2       6 UNK        -0.5089 
     44 N          26.7480  -30.8662  -40.0349 N.am      7 UNK        -0.4243 
     45 CA         27.3602  -32.1186  -40.4906 C.3       7 UNK         0.0196 
     46 CB         28.8835  -31.9235  -40.5739 C.3       7 UNK        -0.2007 
     47 C          26.8148  -32.6683  -41.8230 C.2       7 UNK         0.5020 
     48 O          27.0432  -33.8419  -42.1169 O.2       7 UNK        -0.5147 
     49 N          26.1126  -31.8371  -42.6068 N.am      8 UNK        -0.4734 
     50 CA         25.4402  -32.2531  -43.8401 C.3       8 UNK         0.0238 
     51 CB         25.1165  -31.0147  -44.6894 C.3       8 UNK        -0.1912 
     52 C          24.1715  -33.0909  -43.5899 C.2       8 UNK         0.5038 
     53 O          23.7741  -33.8385  -44.4849 O.2       8 UNK        -0.5046 
     54 N          23.5601  -32.9622  -42.4037 N.am      9 UNK        -0.4200 
     55 CA         22.4077  -33.7700  -41.9804 C.3       9 UNK         0.0839 
     56 C          22.8477  -35.1852  -41.5239 C.2       9 UNK         0.5513 
     57 N          22.0687  -36.2095  -41.8436 N.am      9 UNK        -0.7519 
     58 O          23.8593  -35.3583  -40.8476 O.2       9 UNK        -0.4960 
     59 C59        21.5792  -33.0677  -40.8751 C.3       10 UNK        -0.0876 
     60 S60        20.8685  -31.4942  -41.4553 S.3       10 UNK        -0.2414 
     61 C61        19.2489  -32.0447  -42.0652 C.3       10 UNK         0.0169 
     62 H62        16.5586  -23.0533  -49.5253 H         1 UNK         0.0903 
     63 H63        16.8889  -21.5220  -48.7129 H         1 UNK         0.0903 
     64 H64        17.9185  -22.0558  -50.0444 H         1 UNK         0.0903 
     65 H65        17.1826  -24.7983  -48.2683 H         1 UNK         0.3096 
     66 H66        19.8046  -24.9777  -47.0692 H         1 UNK         0.1121 
     67 H67        18.3901  -26.9065  -48.1318 H         1 UNK         0.0849 
     68 H68        17.4891  -26.9369  -46.6425 H         1 UNK         0.0849 
     69 H69        18.1416  -29.3822  -47.0706 H         1 UNK         0.0865 
     70 H70        19.6648  -30.1045  -46.6458 H         1 UNK         0.0865 
     71 H71        19.9977  -31.0481  -44.4776 H         1 UNK         0.1346 
     72 H72        16.9398  -30.6908  -41.4949 H         1 UNK         0.1412 
     73 H73        16.6462  -28.4523  -45.1372 H         1 UNK         0.1426 
     74 H74        14.9480  -29.4350  -41.9255 H         1 UNK         0.0716 
     75 H75        14.5826  -29.1514  -43.6043 H         1 UNK         0.0716 
     76 H76        15.6214  -27.8712  -40.2780 H         1 UNK         0.0695 
     77 H77        15.4384  -26.1423  -40.3948 H         1 UNK         0.0695 
     78 H78        17.9165  -27.7426  -41.1448 H         1 UNK         0.0983 
     79 H79        17.6818  -24.7667  -41.1244 H         1 UNK         0.3095 
     80 H80        18.5013  -23.6562  -42.9668 H         1 UNK         0.0454 
     81 H81        21.3824  -24.6938  -42.6933 H         1 UNK         0.0851 
     82 H82        20.4987  -23.7974  -41.4695 H         1 UNK         0.0851 
     83 H83        20.9231  -23.0148  -42.9843 H         1 UNK         0.0851 
     84 H84        20.3378  -24.8975  -44.9016 H         1 UNK         0.2976 
     85 H85        19.0834  -27.2386  -37.7472 H         1 UNK         0.3116 
     86 H86        19.1803  -29.0350  -40.0457 H         1 UNK         0.0646 
     87 H87        20.9284  -28.7567  -37.5502 H         1 UNK         0.0847 
     88 H88        20.9950  -30.0705  -38.7153 H         1 UNK         0.0847 
     89 H89        19.5582  -29.8505  -37.7365 H         1 UNK         0.0847 
     90 H90        21.0724  -29.3119  -41.3173 H         1 UNK         0.3040 
     91 H91        22.6602  -26.8884  -41.9239 H         1 UNK         0.1015 
     92 H92        22.3173  -29.5411  -43.4248 H         1 UNK         0.0786 
     93 H93        23.1822  -28.1240  -44.0150 H         1 UNK         0.0786 
     94 H94        21.4476  -28.0543  -43.7755 H         1 UNK         0.0786 
     95 H95        23.0751  -28.5805  -39.5004 H         1 UNK         0.3172 
     96 H96        24.6451  -29.4497  -38.2052 H         1 UNK         0.0595 
     97 H97        26.6486  -28.0647  -40.0790 H         1 UNK         0.0839 
     98 H98        26.9751  -28.6209  -38.4365 H         1 UNK         0.0839 
     99 H99        25.8338  -27.3236  -38.7106 H         1 UNK         0.0839 
    100 H100       27.3664  -30.0733  -39.9434 H         1 UNK         0.2998 
    101 H101       27.1533  -32.8757  -39.7311 H         1 UNK         0.0822 
    102 H102       29.3810  -32.8471  -40.8738 H         1 UNK         0.0787 
    103 H103       29.1520  -31.1578  -41.3029 H         1 UNK         0.0787 
    104 H104       29.3014  -31.6332  -39.6097 H         1 UNK         0.0787 
    105 H105       25.9628  -30.8839  -42.2995 H         1 UNK         0.3055 
    106 H106       26.1294  -32.8803  -44.4105 H         1 UNK         0.1106 
    107 H107       24.6453  -31.2982  -45.6316 H         1 UNK         0.0828 
    108 H108       24.4330  -30.3425  -44.1736 H         1 UNK         0.0828 
    109 H109       26.0179  -30.4528  -44.9340 H         1 UNK         0.0828 
    110 H110       23.9747  -32.3733  -41.6909 H         1 UNK         0.2931 
    111 H111       21.7526  -33.8909  -42.8461 H         1 UNK         0.0412 
    112 H112       21.2322  -36.0784  -42.3915 H         1 UNK         0.3472 
    113 H113       22.3286  -37.1360  -41.5419 H         1 UNK         0.3472 
    114 H114       22.2011  -32.8647  -40.0012 H         1 UNK         0.0970 
    115 H115       20.7696  -33.7114  -40.5253 H         1 UNK         0.0970 
    116 H116       18.6333  -32.3448  -41.2159 H         1 UNK         0.0612 
    117 H117       19.3792  -32.9333  -42.6844 H         1 UNK         0.0612 
@<TRIPOS>BOND
     1    1    2 1    
     2    1   62 1    
     3    1   63 1    
     4    1   64 1    
     5    2    3 2    
     6    2    4 am   BACKBONE|DICT|INTERRES
     7    4    5 1    
     8    4   65 1    
     9    5    6 1    
    10    5   25 1    
    11    5   66 1    
    12    6    7 1    
    13    6   67 1    
    14    6   68 1    
    15    7    8 1    
    16    8    9 1    
    17    8   69 1    
    18    8   70 1    
    19    9   10 ar   
    20    9   14 ar   
    21   10   11 ar   
    22   10   71 1    
    23   11   12 ar   
    24   11   61 1    
    25   12   13 ar   
    26   12   72 1    
    27   13   14 ar   
    28   13   15 1    
    29   14   73 1    
    30   15   16 1    
    31   15   74 1    
    32   15   75 1    
    33   16   17 1    
    34   17   18 1    
    35   17   76 1    
    36   17   77 1    
    37   18   19 1    
    38   18   27 1    
    39   18   78 1    
    40   19   20 am   BACKBONE|DICT|INTERRES
    41   19   79 1    
    42   20   21 2    
    43   20   22 1    
    44   22   23 1    
    45   22   24 1    
    46   22   80 1    
    47   23   81 1    
    48   23   82 1    
    49   23   83 1    
    50   24   25 am   BACKBONE|DICT|INTERRES
    51   24   84 1    
    52   25   26 2    
    53   27   28 2    
    54   27   29 am   BACKBONE|DICT|INTERRES
    55   29   30 1    
    56   29   85 1    
    57   30   31 1    
    58   30   32 1    
    59   30   86 1    
    60   31   87 1    
    61   31   88 1    
    62   31   89 1    
    63   32   33 2    
    64   32   34 am   BACKBONE|DICT|INTERRES
    65   34   35 1    
    66   34   90 1    
    67   35   36 1    
    68   35   37 1    
    69   35   91 1    
    70   36   92 1    
    71   36   93 1    
    72   36   94 1    
    73   37   38 2    
    74   37   39 am   BACKBONE|DICT|INTERRES
    75   39   40 1    
    76   39   95 1    
    77   40   41 1    
    78   40   42 1    
    79   40   96 1    
    80   41   97 1    
    81   41   98 1    
    82   41   99 1    
    83   42   43 2    
    84   42   44 am   BACKBONE|DICT|INTERRES
    85   44   45 1    
    86   44  100 1    
    87   45   46 1    
    88   45   47 1    
    89   45  101 1    
    90   46  102 1    
    91   46  103 1    
    92   46  104 1    
    93   47   48 2    
    94   47   49 am   BACKBONE|DICT|INTERRES
    95   49   50 1    
    96   49  105 1    
    97   50   51 1    
    98   50   52 1    
    99   50  106 1    
   100   51  107 1    
   101   51  108 1    
   102   51  109 1    
   103   52   53 2    
   104   52   54 am   BACKBONE|DICT|INTERRES
   105   54   55 1    
   106   54  110 1    
   107   55   56 1    
   108   55   59 1    
   109   55  111 1    
   110   56   57 am   BACKBONE|DICT|INTERRES
   111   56   58 2    
   112   57  112 1    
   113   57  113 1    
   114   59   60 1    
   115   59  114 1    
   116   59  115 1    
   117   60   61 1    
   118   61  116 1    
   119   61  117 1    
@<TRIPOS>SUBSTRUCTURE
     1 UNK         1 GROUP             0       ****    0 ROOT    
