@<TRIPOS>MOLECULE
3R8
117   119    1
SMALL
USER_CHARGES


@<TRIPOS>ATOM
      1 CA         20.3030  -21.9202  -45.8067 C.3       0 UNK        -0.2013 
      2 C          20.6641  -22.9729  -44.7697 C.2       0 UNK         0.4866 
      3 O          20.8902  -22.6351  -43.6079 O.2       0 UNK        -0.5176 
      4 N          20.7228  -24.2457  -45.1822 N.am      1 UNK        -0.4884 
      5 CA         21.0194  -25.3973  -44.3216 C.3       1 UNK         0.0853 
      6 C6         21.3505  -26.6747  -45.1437 C.3       10 UNK        -0.0849 
      7 S7         20.0967  -27.0619  -46.4195 S.3       10 UNK        -0.2776 
      8 C8         20.7287  -28.6134  -47.1377 C.3       10 UNK         0.0316 
      9 C9         20.1638  -29.8495  -46.4486 C.ar      10 UNK        -0.0863 
     10 C10        21.0175  -30.7913  -45.8659 C.ar      10 UNK        -0.1009 
     11 C11        20.5135  -31.9498  -45.2632 C.ar      10 UNK        -0.0712 
     12 C12        19.1285  -32.1536  -45.2510 C.ar      10 UNK        -0.0894 
     13 C13        18.2617  -31.1989  -45.7840 C.ar      10 UNK        -0.0745 
     14 C14        18.7831  -30.0644  -46.4102 C.ar      10 UNK        -0.0972 
     15 C15        16.7618  -31.3617  -45.6073 C.3       10 UNK         0.0209 
     16 S16        16.1111  -30.1813  -44.3793 S.3       10 UNK        -0.2568 
     17 C17        17.1376  -30.4939  -42.8898 C.3       10 UNK        -0.0983 
     18 CA         18.4054  -29.5885  -42.7749 C.3       3 UNK         0.0876 
     19 N          18.1497  -28.1826  -43.1010 N.am      3 UNK        -0.4424 
     20 C          17.3658  -27.3105  -42.4504 C.2       2 UNK         0.4918 
     21 O          16.6633  -27.6057  -41.4831 O.2       2 UNK        -0.4875 
     22 CA         17.4163  -25.8451  -42.9486 C.3       2 UNK         0.0481 
     23 CB         17.2214  -24.8379  -41.7964 C.3       2 UNK        -0.1831 
     24 N          18.6340  -25.5134  -43.7103 N.am      2 UNK        -0.4498 
     25 C          19.9024  -25.6787  -43.2991 C.2       1 UNK         0.5027 
     26 O          20.1955  -26.1026  -42.1824 O.2       1 UNK        -0.4969 
     27 C          19.1588  -29.7861  -41.4317 C.2       3 UNK         0.5005 
     28 O          19.1906  -30.9116  -40.9294 O.2       3 UNK        -0.5279 
     29 N          19.7454  -28.7210  -40.8564 N.am      4 UNK        -0.4463 
     30 CA         20.2595  -28.7146  -39.4811 C.3       4 UNK         0.0283 
     31 CB         19.1502  -28.2293  -38.5316 C.3       4 UNK        -0.1875 
     32 C          21.5358  -27.8822  -39.2754 C.2       4 UNK         0.4949 
     33 O          22.3428  -28.2495  -38.4223 O.2       4 UNK        -0.5039 
     34 N          21.7033  -26.7755  -40.0079 N.am      5 UNK        -0.4663 
     35 CA         22.8388  -25.8635  -39.8791 C.3       5 UNK         0.0242 
     36 CB         22.3550  -24.4196  -40.0966 C.3       5 UNK        -0.1982 
     37 C          23.9129  -26.2315  -40.9077 C.2       5 UNK         0.5017 
     38 O          23.6065  -26.2976  -42.1007 O.2       5 UNK        -0.5012 
     39 N          25.1478  -26.4438  -40.4290 N.am      6 UNK        -0.4439 
     40 CA         26.3573  -26.8407  -41.1656 C.3       6 UNK         0.0297 
     41 CB         26.7803  -25.7701  -42.1931 C.3       6 UNK        -0.2006 
     42 C          26.2437  -28.2378  -41.8002 C.2       6 UNK         0.4892 
     43 O          26.9379  -29.1596  -41.3698 O.2       6 UNK        -0.5089 
     44 N          25.3460  -28.3753  -42.7805 N.am      7 UNK        -0.4243 
     45 CA         24.9296  -29.6383  -43.3765 C.3       7 UNK         0.0196 
     46 CB         24.5887  -29.4041  -44.8591 C.3       7 UNK        -0.2007 
     47 C          23.7372  -30.1656  -42.5656 C.2       7 UNK         0.5020 
     48 O          22.5860  -29.9814  -42.9617 O.2       7 UNK        -0.5147 
     49 N          24.0388  -30.7561  -41.4043 N.am      8 UNK        -0.4734 
     50 CA         23.0495  -31.3329  -40.4976 C.3       8 UNK         0.0238 
     51 CB         23.6395  -31.4004  -39.0797 C.3       8 UNK        -0.1912 
     52 C          22.6238  -32.7283  -40.9720 C.2       8 UNK         0.5038 
     53 O          23.4871  -33.5381  -41.3196 O.2       8 UNK        -0.5046 
     54 N          21.3144  -32.9823  -40.9490 N.am      9 UNK        -0.4200 
     55 CA         20.6788  -34.2625  -41.2768 C.3       9 UNK         0.0839 
     56 C          19.7917  -34.7412  -40.0958 C.2       9 UNK         0.5513 
     57 N          19.4037  -36.0096  -40.0963 N.am      9 UNK        -0.7519 
     58 O          19.4427  -33.9885  -39.1879 O.2       9 UNK        -0.4960 
     59 C59        19.8657  -34.1401  -42.5943 C.3       10 UNK        -0.0876 
     60 S60        20.8561  -34.5396  -44.0780 S.3       10 UNK        -0.2414 
     61 C61        21.5054  -32.9148  -44.6087 C.3       10 UNK         0.0169 
     62 H62        20.1267  -22.3580  -46.7891 H         1 UNK         0.0903 
     63 H63        19.3999  -21.3906  -45.5045 H         1 UNK         0.0903 
     64 H64        21.1095  -21.1933  -45.8993 H         1 UNK         0.0903 
     65 H65        20.5307  -24.4712  -46.1490 H         1 UNK         0.3096 
     66 H66        21.9064  -25.1426  -43.7374 H         1 UNK         0.1121 
     67 H67        22.3092  -26.5366  -45.6460 H         1 UNK         0.0849 
     68 H68        21.4847  -27.5401  -44.4894 H         1 UNK         0.0849 
     69 H69        20.4458  -28.6481  -48.1906 H         1 UNK         0.0865 
     70 H70        21.8197  -28.6110  -47.1175 H         1 UNK         0.0865 
     71 H71        22.0843  -30.6223  -45.8774 H         1 UNK         0.1346 
     72 H72        18.7024  -33.0319  -44.7922 H         1 UNK         0.1412 
     73 H73        18.1116  -29.3286  -46.8318 H         1 UNK         0.1426 
     74 H74        16.5097  -32.3768  -45.2965 H         1 UNK         0.0716 
     75 H75        16.2612  -31.1973  -46.5624 H         1 UNK         0.0716 
     76 H76        17.4173  -31.5483  -42.8700 H         1 UNK         0.0695 
     77 H77        16.4949  -30.3418  -42.0211 H         1 UNK         0.0695 
     78 H78        19.1210  -29.9211  -43.5250 H         1 UNK         0.0983 
     79 H79        18.6629  -27.8327  -43.8971 H         1 UNK         0.3095 
     80 H80        16.5808  -25.7294  -43.6400 H         1 UNK         0.0454 
     81 H81        16.2574  -24.9813  -41.3070 H         1 UNK         0.0851 
     82 H82        17.2484  -23.8104  -42.1588 H         1 UNK         0.0851 
     83 H83        17.9921  -24.9436  -41.0324 H         1 UNK         0.0851 
     84 H84        18.4912  -25.1862  -44.6561 H         1 UNK         0.2976 
     85 H85        19.7458  -27.8353  -41.3524 H         1 UNK         0.3116 
     86 H86        20.5173  -29.7324  -39.1831 H         1 UNK         0.0646 
     87 H87        18.2837  -28.8900  -38.5643 H         1 UNK         0.0847 
     88 H88        18.8132  -27.2243  -38.7889 H         1 UNK         0.0847 
     89 H89        19.4990  -28.2046  -37.4983 H         1 UNK         0.0847 
     90 H90        21.0538  -26.5498  -40.7597 H         1 UNK         0.3040 
     91 H91        23.2568  -25.9285  -38.8718 H         1 UNK         0.1015 
     92 H92        23.1760  -23.7116  -39.9772 H         1 UNK         0.0786 
     93 H93        21.5836  -24.1477  -39.3760 H         1 UNK         0.0786 
     94 H94        21.9434  -24.2734  -41.0964 H         1 UNK         0.0786 
     95 H95        25.2711  -26.3835  -39.4271 H         1 UNK         0.3172 
     96 H96        27.1521  -26.9003  -40.4200 H         1 UNK         0.0595 
     97 H97        26.0322  -25.6190  -42.9717 H         1 UNK         0.0839 
     98 H98        27.7089  -26.0550  -42.6894 H         1 UNK         0.0839 
     99 H99        26.9547  -24.8087  -41.7102 H         1 UNK         0.0839 
    100 H100       24.7339  -27.5795  -42.9430 H         1 UNK         0.2998 
    101 H101       25.7405  -30.3687  -43.3257 H         1 UNK         0.0822 
    102 H102       25.4432  -28.9985  -45.4009 H         1 UNK         0.0787 
    103 H103       24.3167  -30.3421  -45.3429 H         1 UNK         0.0787 
    104 H104       23.7560  -28.7109  -44.9837 H         1 UNK         0.0787 
    105 H105       25.0115  -30.8635  -41.1503 H         1 UNK         0.3055 
    106 H106       22.1755  -30.6804  -40.4820 H         1 UNK         0.1106 
    107 H107       23.9566  -30.4166  -38.7333 H         1 UNK         0.0828 
    108 H108       22.8997  -31.7704  -38.3685 H         1 UNK         0.0828 
    109 H109       24.5022  -32.0664  -39.0307 H         1 UNK         0.0828 
    110 H110       20.6631  -32.2636  -40.6456 H         1 UNK         0.2931 
    111 H111       21.4454  -35.0309  -41.3964 H         1 UNK         0.0412 
    112 H112       18.8241  -36.3454  -39.3424 H         1 UNK         0.3472 
    113 H113       19.6854  -36.6413  -40.8305 H         1 UNK         0.3472 
    114 H114       19.0200  -34.8306  -42.6073 H         1 UNK         0.0970 
    115 H115       19.4264  -33.1451  -42.6748 H         1 UNK         0.0970 
    116 H116       22.3184  -33.1034  -45.3111 H         1 UNK         0.0612 
    117 H117       21.9558  -32.4232  -43.7490 H         1 UNK         0.0612 
@<TRIPOS>BOND
     1    1    2 1    
     2    1   62 1    
     3    1   63 1    
     4    1   64 1    
     5    2    3 2    
     6    2    4 am   BACKBONE|DICT|INTERRES
     7    4    5 1    
     8    4   65 1    
     9    5    6 1    
    10    5   25 1    
    11    5   66 1    
    12    6    7 1    
    13    6   67 1    
    14    6   68 1    
    15    7    8 1    
    16    8    9 1    
    17    8   69 1    
    18    8   70 1    
    19    9   10 ar   
    20    9   14 ar   
    21   10   11 ar   
    22   10   71 1    
    23   11   12 ar   
    24   11   61 1    
    25   12   13 ar   
    26   12   72 1    
    27   13   14 ar   
    28   13   15 1    
    29   14   73 1    
    30   15   16 1    
    31   15   74 1    
    32   15   75 1    
    33   16   17 1    
    34   17   18 1    
    35   17   76 1    
    36   17   77 1    
    37   18   19 1    
    38   18   27 1    
    39   18   78 1    
    40   19   20 am   BACKBONE|DICT|INTERRES
    41   19   79 1    
    42   20   21 2    
    43   20   22 1    
    44   22   23 1    
    45   22   24 1    
    46   22   80 1    
    47   23   81 1    
    48   23   82 1    
    49   23   83 1    
    50   24   25 am   BACKBONE|DICT|INTERRES
    51   24   84 1    
    52   25   26 2    
    53   27   28 2    
    54   27   29 am   BACKBONE|DICT|INTERRES
    55   29   30 1    
    56   29   85 1    
    57   30   31 1    
    58   30   32 1    
    59   30   86 1    
    60   31   87 1    
    61   31   88 1    
    62   31   89 1    
    63   32   33 2    
    64   32   34 am   BACKBONE|DICT|INTERRES
    65   34   35 1    
    66   34   90 1    
    67   35   36 1    
    68   35   37 1    
    69   35   91 1    
    70   36   92 1    
    71   36   93 1    
    72   36   94 1    
    73   37   38 2    
    74   37   39 am   BACKBONE|DICT|INTERRES
    75   39   40 1    
    76   39   95 1    
    77   40   41 1    
    78   40   42 1    
    79   40   96 1    
    80   41   97 1    
    81   41   98 1    
    82   41   99 1    
    83   42   43 2    
    84   42   44 am   BACKBONE|DICT|INTERRES
    85   44   45 1    
    86   44  100 1    
    87   45   46 1    
    88   45   47 1    
    89   45  101 1    
    90   46  102 1    
    91   46  103 1    
    92   46  104 1    
    93   47   48 2    
    94   47   49 am   BACKBONE|DICT|INTERRES
    95   49   50 1    
    96   49  105 1    
    97   50   51 1    
    98   50   52 1    
    99   50  106 1    
   100   51  107 1    
   101   51  108 1    
   102   51  109 1    
   103   52   53 2    
   104   52   54 am   BACKBONE|DICT|INTERRES
   105   54   55 1    
   106   54  110 1    
   107   55   56 1    
   108   55   59 1    
   109   55  111 1    
   110   56   57 am   BACKBONE|DICT|INTERRES
   111   56   58 2    
   112   57  112 1    
   113   57  113 1    
   114   59   60 1    
   115   59  114 1    
   116   59  115 1    
   117   60   61 1    
   118   61  116 1    
   119   61  117 1    
@<TRIPOS>SUBSTRUCTURE
     1 UNK         1 GROUP             0       ****    0 ROOT    
