@<TRIPOS>MOLECULE
3R8
117   119    1
SMALL
USER_CHARGES


@<TRIPOS>ATOM
      1 CA         13.9875  -22.7255  -44.2557 C.3       0 UNK        -0.2013 
      2 C          14.8746  -23.6200  -45.1085 C.2       0 UNK         0.4866 
      3 O          15.7289  -23.1169  -45.8382 O.2       0 UNK        -0.5176 
      4 N          14.6761  -24.9427  -45.0252 N.am      1 UNK        -0.4884 
      5 CA         15.4538  -25.9537  -45.7554 C.3       1 UNK         0.0853 
      6 C6         14.7426  -27.3329  -45.7194 C.3       10 UNK        -0.0849 
      7 S7         15.2212  -28.4245  -47.1017 S.3       10 UNK        -0.2776 
      8 C8         15.8234  -29.9178  -46.2398 C.3       10 UNK         0.0316 
      9 C9         17.2394  -29.7689  -45.6930 C.ar      10 UNK        -0.0863 
     10 C10        17.4899  -29.8882  -44.3208 C.ar      10 UNK        -0.1009 
     11 C11        18.7969  -29.8002  -43.8281 C.ar      10 UNK        -0.0712 
     12 C12        19.8542  -29.6000  -44.7183 C.ar      10 UNK        -0.0894 
     13 C13        19.6180  -29.4515  -46.0865 C.ar      10 UNK        -0.0745 
     14 C14        18.3090  -29.5488  -46.5682 C.ar      10 UNK        -0.0972 
     15 C15        20.7733  -29.1961  -47.0456 C.3       10 UNK         0.0209 
     16 S16        21.2008  -27.4246  -47.1578 S.3       10 UNK        -0.2568 
     17 C17        22.3047  -27.1937  -45.7200 C.3       10 UNK        -0.0983 
     18 CA         21.7969  -26.1491  -44.6860 C.3       3 UNK         0.0876 
     19 N          20.4321  -26.4463  -44.2333 N.am      3 UNK        -0.4424 
     20 C          19.5695  -25.5830  -43.6844 C.2       2 UNK         0.4918 
     21 O          19.7955  -24.3792  -43.5446 O.2       2 UNK        -0.4875 
     22 CA         18.2691  -26.1871  -43.1296 C.3       2 UNK         0.0481 
     23 CB         18.0399  -25.7509  -41.6729 C.3       2 UNK        -0.1831 
     24 N          17.0661  -25.9087  -43.9142 N.am      2 UNK        -0.4498 
     25 C          16.9031  -26.0654  -45.2378 C.2       1 UNK         0.5027 
     26 O          17.8101  -26.3021  -46.0338 O.2       1 UNK        -0.4969 
     27 C          22.7574  -26.0301  -43.4746 C.2       3 UNK         0.5005 
     28 O          23.7777  -26.7211  -43.4244 O.2       3 UNK        -0.5279 
     29 N          22.3843  -25.2004  -42.4871 N.am      4 UNK        -0.4463 
     30 CA         22.9353  -25.1389  -41.1284 C.3       4 UNK         0.0283 
     31 CB         24.3789  -24.5848  -41.1376 C.3       4 UNK        -0.1875 
     32 C          22.7710  -26.5006  -40.4184 C.2       4 UNK         0.4949 
     33 O          21.6972  -27.0990  -40.5143 O.2       4 UNK        -0.5039 
     34 N          23.8213  -26.9786  -39.7369 N.am      5 UNK        -0.4663 
     35 CA         23.8681  -28.3140  -39.1307 C.3       5 UNK         0.0242 
     36 CB         24.9899  -28.3569  -38.0813 C.3       5 UNK        -0.1982 
     37 C          24.0621  -29.4384  -40.1637 C.2       5 UNK         0.5017 
     38 O          23.7662  -30.5931  -39.8529 O.2       5 UNK        -0.5012 
     39 N          24.5812  -29.0979  -41.3544 N.am      6 UNK        -0.4439 
     40 CA         24.7549  -29.9408  -42.5487 C.3       6 UNK         0.0297 
     41 CB         23.3691  -30.3070  -43.1130 C.3       6 UNK        -0.2006 
     42 C          25.6303  -31.2009  -42.3737 C.2       6 UNK         0.4892 
     43 O          25.6820  -32.0208  -43.2913 O.2       6 UNK        -0.5089 
     44 N          26.2675  -31.3511  -41.2020 N.am      7 UNK        -0.4243 
     45 CA         26.9316  -32.5569  -40.6917 C.3       7 UNK         0.0196 
     46 CB         28.2084  -32.8683  -41.5017 C.3       7 UNK        -0.2007 
     47 C          25.9775  -33.7684  -40.5814 C.2       7 UNK         0.5020 
     48 O          26.4289  -34.9090  -40.7005 O.2       7 UNK        -0.5147 
     49 N          24.6790  -33.5105  -40.3618 N.am      8 UNK        -0.4734 
     50 CA         23.6300  -34.5340  -40.3210 C.3       8 UNK         0.0238 
     51 CB         23.2751  -35.0027  -41.7463 C.3       8 UNK        -0.1912 
     52 C          22.3739  -34.0499  -39.5876 C.2       8 UNK         0.5038 
     53 O          21.8284  -34.7992  -38.7763 O.2       8 UNK        -0.5046 
     54 N          21.9311  -32.8224  -39.8870 N.am      9 UNK        -0.4200 
     55 CA         20.7639  -32.1813  -39.2622 C.3       9 UNK         0.0839 
     56 C          21.0155  -31.7394  -37.7939 C.2       9 UNK         0.5513 
     57 N          22.2388  -31.3782  -37.4260 N.am      9 UNK        -0.7519 
     58 O          20.0914  -31.7271  -36.9852 O.2       9 UNK        -0.4960 
     59 C59        20.2432  -30.9844  -40.0978 C.3       10 UNK        -0.0876 
     60 S60        19.8005  -31.4295  -41.8108 S.3       10 UNK        -0.2414 
     61 C61        19.0714  -29.8501  -42.3318 C.3       10 UNK         0.0169 
     62 H62        13.4225  -22.0432  -44.8904 H         1 UNK         0.0903 
     63 H63        13.2779  -23.3003  -43.6607 H         1 UNK         0.0903 
     64 H64        14.5973  -22.1316  -43.5753 H         1 UNK         0.0903 
     65 H65        13.9465  -25.2952  -44.4210 H         1 UNK         0.3096 
     66 H66        15.5099  -25.6227  -46.7954 H         1 UNK         0.1121 
     67 H67        13.6635  -27.1945  -45.8048 H         1 UNK         0.0849 
     68 H68        14.8978  -27.8357  -44.7625 H         1 UNK         0.0849 
     69 H69        15.1217  -30.1905  -45.4500 H         1 UNK         0.0865 
     70 H70        15.8149  -30.7492  -46.9460 H         1 UNK         0.0865 
     71 H71        16.6691  -30.0473  -43.6348 H         1 UNK         0.1346 
     72 H72        20.8621  -29.5443  -44.3397 H         1 UNK         0.1412 
     73 H73        18.1178  -29.4444  -47.6276 H         1 UNK         0.1426 
     74 H74        20.5056  -29.5473  -48.0433 H         1 UNK         0.0716 
     75 H75        21.6488  -29.7771  -46.7516 H         1 UNK         0.0716 
     76 H76        23.2764  -26.8839  -46.1091 H         1 UNK         0.0695 
     77 H77        22.4773  -28.1579  -45.2419 H         1 UNK         0.0695 
     78 H78        21.7860  -25.1744  -45.1785 H         1 UNK         0.0983 
     79 H79        20.1283  -27.4000  -44.3676 H         1 UNK         0.3095 
     80 H80        18.3791  -27.2680  -43.1214 H         1 UNK         0.0454 
     81 H81        17.2039  -26.2860  -41.2224 H         1 UNK         0.0851 
     82 H82        17.8357  -24.6820  -41.5988 H         1 UNK         0.0851 
     83 H83        18.9199  -25.9579  -41.0614 H         1 UNK         0.0851 
     84 H84        16.2449  -25.6590  -43.3835 H         1 UNK         0.2976 
     85 H85        21.5143  -24.6957  -42.6299 H         1 UNK         0.3116 
     86 H86        22.3124  -24.4326  -40.5777 H         1 UNK         0.0646 
     87 H87        25.0823  -25.2657  -41.6178 H         1 UNK         0.0847 
     88 H88        24.4276  -23.6360  -41.6720 H         1 UNK         0.0847 
     89 H89        24.7369  -24.3930  -40.1255 H         1 UNK         0.0847 
     90 H90        24.6619  -26.4208  -39.6857 H         1 UNK         0.3040 
     91 H91        22.9181  -28.5028  -38.6249 H         1 UNK         0.1015 
     92 H92        25.0315  -29.3321  -37.5935 H         1 UNK         0.0786 
     93 H93        24.8289  -27.6145  -37.2994 H         1 UNK         0.0786 
     94 H94        25.9691  -28.1716  -38.5246 H         1 UNK         0.0786 
     95 H95        24.7817  -28.1175  -41.5018 H         1 UNK         0.3172 
     96 H96        25.2608  -29.3147  -43.2852 H         1 UNK         0.0595 
     97 H97        22.7372  -29.4227  -43.1727 H         1 UNK         0.0839 
     98 H98        22.8573  -31.0404  -42.4896 H         1 UNK         0.0839 
     99 H99        23.4472  -30.7268  -44.1165 H         1 UNK         0.0839 
    100 H100       26.1362  -30.6124  -40.5256 H         1 UNK         0.2998 
    101 H101       27.2381  -32.3255  -39.6706 H         1 UNK         0.0822 
    102 H102       28.7820  -33.6703  -41.0355 H         1 UNK         0.0787 
    103 H103       27.9760  -33.1856  -42.5187 H         1 UNK         0.0787 
    104 H104       28.8620  -31.9982  -41.5625 H         1 UNK         0.0787 
    105 H105       24.3948  -32.5480  -40.2106 H         1 UNK         0.3055 
    106 H106       24.0085  -35.3924  -39.7606 H         1 UNK         0.1106 
    107 H107       24.1251  -35.4807  -42.2333 H         1 UNK         0.0828 
    108 H108       22.4638  -35.7318  -41.7290 H         1 UNK         0.0828 
    109 H109       22.9557  -34.1711  -42.3758 H         1 UNK         0.0828 
    110 H110       22.4505  -32.2438  -40.5303 H         1 UNK         0.2931 
    111 H111       19.9645  -32.9248  -39.2321 H         1 UNK         0.0412 
    112 H112       22.4129  -31.0988  -36.4739 H         1 UNK         0.3472 
    113 H113       22.9728  -31.3247  -38.1209 H         1 UNK         0.3472 
    114 H114       20.9891  -30.1876  -40.1307 H         1 UNK         0.0970 
    115 H115       19.3593  -30.5537  -39.6227 H         1 UNK         0.0970 
    116 H116       19.7536  -29.0401  -42.0667 H         1 UNK         0.0612 
    117 H117       18.1538  -29.6763  -41.7676 H         1 UNK         0.0612 
@<TRIPOS>BOND
     1    1    2 1    
     2    1   62 1    
     3    1   63 1    
     4    1   64 1    
     5    2    3 2    
     6    2    4 am   BACKBONE|DICT|INTERRES
     7    4    5 1    
     8    4   65 1    
     9    5    6 1    
    10    5   25 1    
    11    5   66 1    
    12    6    7 1    
    13    6   67 1    
    14    6   68 1    
    15    7    8 1    
    16    8    9 1    
    17    8   69 1    
    18    8   70 1    
    19    9   10 ar   
    20    9   14 ar   
    21   10   11 ar   
    22   10   71 1    
    23   11   12 ar   
    24   11   61 1    
    25   12   13 ar   
    26   12   72 1    
    27   13   14 ar   
    28   13   15 1    
    29   14   73 1    
    30   15   16 1    
    31   15   74 1    
    32   15   75 1    
    33   16   17 1    
    34   17   18 1    
    35   17   76 1    
    36   17   77 1    
    37   18   19 1    
    38   18   27 1    
    39   18   78 1    
    40   19   20 am   BACKBONE|DICT|INTERRES
    41   19   79 1    
    42   20   21 2    
    43   20   22 1    
    44   22   23 1    
    45   22   24 1    
    46   22   80 1    
    47   23   81 1    
    48   23   82 1    
    49   23   83 1    
    50   24   25 am   BACKBONE|DICT|INTERRES
    51   24   84 1    
    52   25   26 2    
    53   27   28 2    
    54   27   29 am   BACKBONE|DICT|INTERRES
    55   29   30 1    
    56   29   85 1    
    57   30   31 1    
    58   30   32 1    
    59   30   86 1    
    60   31   87 1    
    61   31   88 1    
    62   31   89 1    
    63   32   33 2    
    64   32   34 am   BACKBONE|DICT|INTERRES
    65   34   35 1    
    66   34   90 1    
    67   35   36 1    
    68   35   37 1    
    69   35   91 1    
    70   36   92 1    
    71   36   93 1    
    72   36   94 1    
    73   37   38 2    
    74   37   39 am   BACKBONE|DICT|INTERRES
    75   39   40 1    
    76   39   95 1    
    77   40   41 1    
    78   40   42 1    
    79   40   96 1    
    80   41   97 1    
    81   41   98 1    
    82   41   99 1    
    83   42   43 2    
    84   42   44 am   BACKBONE|DICT|INTERRES
    85   44   45 1    
    86   44  100 1    
    87   45   46 1    
    88   45   47 1    
    89   45  101 1    
    90   46  102 1    
    91   46  103 1    
    92   46  104 1    
    93   47   48 2    
    94   47   49 am   BACKBONE|DICT|INTERRES
    95   49   50 1    
    96   49  105 1    
    97   50   51 1    
    98   50   52 1    
    99   50  106 1    
   100   51  107 1    
   101   51  108 1    
   102   51  109 1    
   103   52   53 2    
   104   52   54 am   BACKBONE|DICT|INTERRES
   105   54   55 1    
   106   54  110 1    
   107   55   56 1    
   108   55   59 1    
   109   55  111 1    
   110   56   57 am   BACKBONE|DICT|INTERRES
   111   56   58 2    
   112   57  112 1    
   113   57  113 1    
   114   59   60 1    
   115   59  114 1    
   116   59  115 1    
   117   60   61 1    
   118   61  116 1    
   119   61  117 1    
@<TRIPOS>SUBSTRUCTURE
     1 UNK         1 GROUP             0       ****    0 ROOT    
