@<TRIPOS>MOLECULE
3R8
117   119    1
SMALL
USER_CHARGES


@<TRIPOS>ATOM
      1 CA         19.1303  -29.1179  -49.9581 C.3       0 UNK        -0.2013 
      2 C          18.7243  -28.2226  -48.7967 C.2       0 UNK         0.4866 
      3 O          18.6653  -27.0044  -48.9625 O.2       0 UNK        -0.5176 
      4 N          18.4456  -28.8252  -47.6323 N.am      1 UNK        -0.4884 
      5 CA         18.0437  -28.1787  -46.3756 C.3       1 UNK         0.0853 
      6 C6         16.6325  -27.5272  -46.4212 C.3       10 UNK        -0.0849 
      7 S7         15.3176  -28.7895  -46.5244 S.3       10 UNK        -0.2776 
      8 C8         14.5687  -28.7113  -44.8545 C.3       10 UNK         0.0316 
      9 C9         15.5657  -28.9336  -43.7182 C.ar      10 UNK        -0.0863 
     10 C10        16.4619  -30.0072  -43.7545 C.ar      10 UNK        -0.1009 
     11 C11        17.4137  -30.1751  -42.7463 C.ar      10 UNK        -0.0712 
     12 C12        17.4289  -29.2938  -41.6627 C.ar      10 UNK        -0.0894 
     13 C13        16.5090  -28.2425  -41.5836 C.ar      10 UNK        -0.0745 
     14 C14        15.5836  -28.0655  -42.6192 C.ar      10 UNK        -0.0972 
     15 C15        16.5044  -27.3415  -40.3491 C.3       10 UNK         0.0209 
     16 S16        16.4812  -25.5445  -40.6925 S.3       10 UNK        -0.2568 
     17 C17        17.7521  -25.2673  -41.9738 C.3       10 UNK        -0.0983 
     18 CA         19.1220  -25.9481  -41.7339 C.3       3 UNK         0.0876 
     19 N          19.8059  -26.1742  -43.0020 N.am      3 UNK        -0.4424 
     20 C          20.8490  -26.9875  -43.1866 C.2       2 UNK         0.4918 
     21 O          21.3763  -27.6291  -42.2778 O.2       2 UNK        -0.4875 
     22 CA         21.3171  -27.1490  -44.6477 C.3       2 UNK         0.0481 
     23 CB         22.6251  -27.9526  -44.7646 C.3       2 UNK        -0.1831 
     24 N          20.2720  -27.8043  -45.4409 N.am      2 UNK        -0.4498 
     25 C          19.1304  -27.2253  -45.8428 C.2       1 UNK         0.5027 
     26 O          18.9163  -26.0131  -45.7569 O.2       1 UNK        -0.4969 
     27 C          20.0335  -25.1733  -40.7632 C.2       3 UNK         0.5005 
     28 O          20.7042  -24.2269  -41.1830 O.2       3 UNK        -0.5279 
     29 N          20.0731  -25.6314  -39.5029 N.am      4 UNK        -0.4463 
     30 CA         21.0072  -25.2386  -38.4364 C.3       4 UNK         0.0283 
     31 CB         20.9242  -23.7296  -38.1207 C.3       4 UNK        -0.1875 
     32 C          22.4592  -25.7171  -38.6653 C.2       4 UNK         0.4949 
     33 O          23.3517  -25.3012  -37.9257 O.2       4 UNK        -0.5039 
     34 N          22.6722  -26.6107  -39.6403 N.am      5 UNK        -0.4663 
     35 CA         23.9405  -27.2729  -39.9388 C.3       5 UNK         0.0242 
     36 CB         24.6178  -26.5805  -41.1364 C.3       5 UNK        -0.1982 
     37 C          23.6573  -28.7621  -40.1827 C.2       5 UNK         0.5017 
     38 O          24.0138  -29.3049  -41.2294 O.2       5 UNK        -0.5012 
     39 N          22.9933  -29.3981  -39.2060 N.am      6 UNK        -0.4439 
     40 CA         22.4846  -30.7752  -39.2579 C.3       6 UNK         0.0297 
     41 CB         21.7645  -31.0974  -37.9389 C.3       6 UNK        -0.2006 
     42 C          23.5332  -31.8589  -39.5754 C.2       6 UNK         0.4892 
     43 O          23.1674  -32.8966  -40.1253 O.2       6 UNK        -0.5089 
     44 N          24.8069  -31.5958  -39.2503 N.am      7 UNK        -0.4243 
     45 CA         25.9481  -32.4472  -39.5958 C.3       7 UNK         0.0196 
     46 CB         27.1706  -32.0120  -38.7715 C.3       7 UNK        -0.2007 
     47 C          26.2835  -32.4384  -41.0999 C.2       7 UNK         0.5020 
     48 O          26.8001  -33.4369  -41.6018 O.2       7 UNK        -0.5147 
     49 N          25.9958  -31.3255  -41.7896 N.am      8 UNK        -0.4734 
     50 CA         26.1575  -31.1840  -43.2393 C.3       8 UNK         0.0238 
     51 CB         26.5116  -29.7247  -43.5730 C.3       8 UNK        -0.1912 
     52 C          24.8905  -31.6132  -43.9963 C.2       8 UNK         0.5038 
     53 O          24.9988  -32.0731  -45.1338 O.2       8 UNK        -0.5046 
     54 N          23.7229  -31.4457  -43.3609 N.am      9 UNK        -0.4200 
     55 CA         22.4064  -31.8520  -43.8701 C.3       9 UNK         0.0839 
     56 C          22.2576  -33.3883  -44.0713 C.2       9 UNK         0.5513 
     57 N          21.3313  -33.8105  -44.9207 N.am      9 UNK        -0.7519 
     58 O          22.9446  -34.1982  -43.4524 O.2       9 UNK        -0.4960 
     59 C59        21.2718  -31.2668  -42.9854 C.3       10 UNK        -0.0876 
     60 S60        19.7888  -30.8441  -43.9608 S.3       10 UNK        -0.2414 
     61 C61        18.4324  -31.3005  -42.8355 C.3       10 UNK         0.0169 
     62 H62        19.1393  -30.1716  -49.6797 H         1 UNK         0.0903 
     63 H63        18.4350  -28.9933  -50.7879 H         1 UNK         0.0903 
     64 H64        20.1277  -28.8511  -50.3066 H         1 UNK         0.0903 
     65 H65        18.5145  -29.8325  -47.5848 H         1 UNK         0.3096 
     66 H66        18.0020  -28.9793  -45.6393 H         1 UNK         0.1121 
     67 H67        16.4534  -26.9180  -45.5329 H         1 UNK         0.0849 
     68 H68        16.5431  -26.8472  -47.2695 H         1 UNK         0.0849 
     69 H69        14.0715  -27.7461  -44.7453 H         1 UNK         0.0865 
     70 H70        13.7859  -29.4676  -44.7851 H         1 UNK         0.0865 
     71 H71        16.4464  -30.6924  -44.5913 H         1 UNK         0.1346 
     72 H72        18.1561  -29.4359  -40.8749 H         1 UNK         0.1412 
     73 H73        14.8761  -27.2492  -42.5645 H         1 UNK         0.1426 
     74 H74        17.3573  -27.5604  -39.7057 H         1 UNK         0.0716 
     75 H75        15.6212  -27.5833  -39.7565 H         1 UNK         0.0716 
     76 H76        17.8727  -24.1920  -42.1193 H         1 UNK         0.0695 
     77 H77        17.3169  -25.6349  -42.9051 H         1 UNK         0.0695 
     78 H78        18.9622  -26.9412  -41.3178 H         1 UNK         0.0983 
     79 H79        19.4252  -25.7063  -43.8169 H         1 UNK         0.3095 
     80 H80        21.4998  -26.1519  -45.0536 H         1 UNK         0.0454 
     81 H81        22.5208  -28.9571  -44.3579 H         1 UNK         0.0851 
     82 H82        23.4320  -27.4668  -44.2157 H         1 UNK         0.0851 
     83 H83        22.9474  -28.0419  -45.8018 H         1 UNK         0.0851 
     84 H84        20.3480  -28.8089  -45.5215 H         1 UNK         0.2976 
     85 H85        19.4610  -26.3983  -39.2606 H         1 UNK         0.3116 
     86 H86        20.6660  -25.7683  -37.5458 H         1 UNK         0.0646 
     87 H87        21.3558  -23.1211  -38.9155 H         1 UNK         0.0847 
     88 H88        21.4693  -23.4929  -37.2062 H         1 UNK         0.0847 
     89 H89        19.8930  -23.4094  -37.9728 H         1 UNK         0.0847 
     90 H90        21.8971  -26.8997  -40.2261 H         1 UNK         0.3040 
     91 H91        24.6133  -27.2149  -39.0803 H         1 UNK         0.1015 
     92 H92        24.8343  -25.5351  -40.9169 H         1 UNK         0.0786 
     93 H93        23.9873  -26.6113  -42.0249 H         1 UNK         0.0786 
     94 H94        25.5632  -27.0636  -41.3866 H         1 UNK         0.0786 
     95 H95        22.7503  -28.8636  -38.3841 H         1 UNK         0.3172 
     96 H96        21.7433  -30.8056  -40.0578 H         1 UNK         0.0595 
     97 H97        22.4406  -31.0398  -37.0849 H         1 UNK         0.0839 
     98 H98        21.3490  -32.1062  -37.9568 H         1 UNK         0.0839 
     99 H99        20.9348  -30.4134  -37.7596 H         1 UNK         0.0839 
    100 H100       25.0105  -30.7218  -38.7882 H         1 UNK         0.2998 
    101 H101       25.6994  -33.4750  -39.3218 H         1 UNK         0.0822 
    102 H102       26.9752  -32.0860  -37.7015 H         1 UNK         0.0787 
    103 H103       28.0314  -32.6468  -38.9866 H         1 UNK         0.0787 
    104 H104       27.4614  -30.9838  -38.9912 H         1 UNK         0.0787 
    105 H105       25.5199  -30.5621  -41.3189 H         1 UNK         0.3055 
    106 H106       26.9786  -31.8191  -43.5801 H         1 UNK         0.1106 
    107 H107       26.6802  -29.6011  -44.6436 H         1 UNK         0.0828 
    108 H108       25.7143  -29.0367  -43.2894 H         1 UNK         0.0828 
    109 H109       27.4225  -29.4109  -43.0634 H         1 UNK         0.0828 
    110 H110       23.7415  -31.0182  -42.4441 H         1 UNK         0.2931 
    111 H111       22.3391  -31.3982  -44.8612 H         1 UNK         0.0412 
    112 H112       20.7393  -33.1533  -45.4049 H         1 UNK         0.3472 
    113 H113       21.2065  -34.8007  -45.0625 H         1 UNK         0.3472 
    114 H114       21.0254  -31.9488  -42.1694 H         1 UNK         0.0970 
    115 H115       21.5949  -30.3408  -42.5067 H         1 UNK         0.0970 
    116 H116       17.9551  -32.2104  -43.2019 H         1 UNK         0.0612 
    117 H117       18.8157  -31.5337  -41.8414 H         1 UNK         0.0612 
@<TRIPOS>BOND
     1    1    2 1    
     2    1   62 1    
     3    1   63 1    
     4    1   64 1    
     5    2    3 2    
     6    2    4 am   BACKBONE|DICT|INTERRES
     7    4    5 1    
     8    4   65 1    
     9    5    6 1    
    10    5   25 1    
    11    5   66 1    
    12    6    7 1    
    13    6   67 1    
    14    6   68 1    
    15    7    8 1    
    16    8    9 1    
    17    8   69 1    
    18    8   70 1    
    19    9   10 ar   
    20    9   14 ar   
    21   10   11 ar   
    22   10   71 1    
    23   11   12 ar   
    24   11   61 1    
    25   12   13 ar   
    26   12   72 1    
    27   13   14 ar   
    28   13   15 1    
    29   14   73 1    
    30   15   16 1    
    31   15   74 1    
    32   15   75 1    
    33   16   17 1    
    34   17   18 1    
    35   17   76 1    
    36   17   77 1    
    37   18   19 1    
    38   18   27 1    
    39   18   78 1    
    40   19   20 am   BACKBONE|DICT|INTERRES
    41   19   79 1    
    42   20   21 2    
    43   20   22 1    
    44   22   23 1    
    45   22   24 1    
    46   22   80 1    
    47   23   81 1    
    48   23   82 1    
    49   23   83 1    
    50   24   25 am   BACKBONE|DICT|INTERRES
    51   24   84 1    
    52   25   26 2    
    53   27   28 2    
    54   27   29 am   BACKBONE|DICT|INTERRES
    55   29   30 1    
    56   29   85 1    
    57   30   31 1    
    58   30   32 1    
    59   30   86 1    
    60   31   87 1    
    61   31   88 1    
    62   31   89 1    
    63   32   33 2    
    64   32   34 am   BACKBONE|DICT|INTERRES
    65   34   35 1    
    66   34   90 1    
    67   35   36 1    
    68   35   37 1    
    69   35   91 1    
    70   36   92 1    
    71   36   93 1    
    72   36   94 1    
    73   37   38 2    
    74   37   39 am   BACKBONE|DICT|INTERRES
    75   39   40 1    
    76   39   95 1    
    77   40   41 1    
    78   40   42 1    
    79   40   96 1    
    80   41   97 1    
    81   41   98 1    
    82   41   99 1    
    83   42   43 2    
    84   42   44 am   BACKBONE|DICT|INTERRES
    85   44   45 1    
    86   44  100 1    
    87   45   46 1    
    88   45   47 1    
    89   45  101 1    
    90   46  102 1    
    91   46  103 1    
    92   46  104 1    
    93   47   48 2    
    94   47   49 am   BACKBONE|DICT|INTERRES
    95   49   50 1    
    96   49  105 1    
    97   50   51 1    
    98   50   52 1    
    99   50  106 1    
   100   51  107 1    
   101   51  108 1    
   102   51  109 1    
   103   52   53 2    
   104   52   54 am   BACKBONE|DICT|INTERRES
   105   54   55 1    
   106   54  110 1    
   107   55   56 1    
   108   55   59 1    
   109   55  111 1    
   110   56   57 am   BACKBONE|DICT|INTERRES
   111   56   58 2    
   112   57  112 1    
   113   57  113 1    
   114   59   60 1    
   115   59  114 1    
   116   59  115 1    
   117   60   61 1    
   118   61  116 1    
   119   61  117 1    
@<TRIPOS>SUBSTRUCTURE
     1 UNK         1 GROUP             0       ****    0 ROOT    
