@<TRIPOS>MOLECULE
3R8
117   119    1
SMALL
USER_CHARGES


@<TRIPOS>ATOM
      1 CA         15.7638  -23.3273  -42.9235 C.3       0 UNK        -0.2013 
      2 C          16.4130  -24.6590  -43.2698 C.2       0 UNK         0.4866 
      3 O          17.6205  -24.8157  -43.0871 O.2       0 UNK        -0.5176 
      4 N          15.6224  -25.6143  -43.7758 N.am      1 UNK        -0.4884 
      5 CA         16.0669  -26.9696  -44.1234 C.3       1 UNK         0.0853 
      6 C6         15.0840  -27.6659  -45.0940 C.3       10 UNK        -0.0849 
      7 S7         15.2518  -26.9412  -46.7576 S.3       10 UNK        -0.2776 
      8 C8         16.2078  -28.2242  -47.6349 C.3       10 UNK         0.0316 
      9 C9         17.5028  -28.6244  -46.9295 C.ar      10 UNK        -0.0863 
     10 C10        17.6885  -29.9459  -46.5153 C.ar      10 UNK        -0.1009 
     11 C11        18.8995  -30.3671  -45.9578 C.ar      10 UNK        -0.0712 
     12 C12        19.9267  -29.4272  -45.7836 C.ar      10 UNK        -0.0894 
     13 C13        19.7527  -28.0924  -46.1748 C.ar      10 UNK        -0.0745 
     14 C14        18.5395  -27.7030  -46.7536 C.ar      10 UNK        -0.0972 
     15 C15        20.8989  -27.0843  -46.0942 C.3       10 UNK         0.0209 
     16 S16        21.9054  -27.1849  -44.5751 S.3       10 UNK        -0.2568 
     17 C17        20.9523  -26.1852  -43.3782 C.3       10 UNK        -0.0983 
     18 CA         20.5785  -26.9301  -42.0703 C.3       3 UNK         0.0876 
     19 N          19.7175  -28.0740  -42.3513 N.am      3 UNK        -0.4424 
     20 C          18.9629  -28.7226  -41.4553 C.2       2 UNK         0.4918 
     21 O          19.0231  -28.5453  -40.2380 O.2       2 UNK        -0.4875 
     22 CA         17.8879  -29.6428  -42.0678 C.3       2 UNK         0.0481 
     23 CB         16.9722  -30.3149  -41.0232 C.3       2 UNK        -0.1831 
     24 N          17.1283  -28.9019  -43.0846 N.am      2 UNK        -0.4498 
     25 C          16.3553  -27.8234  -42.8743 C.2       1 UNK         0.5027 
     26 O          15.9175  -27.4816  -41.7726 O.2       1 UNK        -0.4969 
     27 C          21.8228  -27.2972  -41.2366 C.2       3 UNK         0.5005 
     28 O          22.3855  -28.3850  -41.3939 O.2       3 UNK        -0.5279 
     29 N          22.2784  -26.3448  -40.4095 N.am      4 UNK        -0.4463 
     30 CA         23.5079  -26.4436  -39.6137 C.3       4 UNK         0.0283 
     31 CB         23.6031  -25.2408  -38.6626 C.3       4 UNK        -0.1875 
     32 C          24.7816  -26.5521  -40.4713 C.2       4 UNK         0.4949 
     33 O          25.7476  -27.1783  -40.0378 O.2       4 UNK        -0.5039 
     34 N          24.7428  -25.9974  -41.6920 N.am      5 UNK        -0.4663 
     35 CA         25.7975  -26.1084  -42.7054 C.3       5 UNK         0.0242 
     36 CB         25.4568  -25.1887  -43.8889 C.3       5 UNK        -0.1982 
     37 C          26.0348  -27.5502  -43.1947 C.2       5 UNK         0.5017 
     38 O          27.1470  -27.8619  -43.6205 O.2       5 UNK        -0.5012 
     39 N          25.0055  -28.4026  -43.0959 N.am      6 UNK        -0.4439 
     40 CA         25.0612  -29.8364  -43.3806 C.3       6 UNK         0.0297 
     41 CB         23.8081  -30.2265  -44.1857 C.3       6 UNK        -0.2006 
     42 C          25.1788  -30.6694  -42.0893 C.2       6 UNK         0.4892 
     43 O          24.9084  -31.8693  -42.1320 O.2       6 UNK        -0.5089 
     44 N          25.5363  -30.0344  -40.9595 N.am      7 UNK        -0.4243 
     45 CA         25.6192  -30.6079  -39.6086 C.3       7 UNK         0.0196 
     46 CB         26.7765  -31.6250  -39.5124 C.3       7 UNK        -0.2007 
     47 C          24.2678  -31.1789  -39.1361 C.2       7 UNK         0.5020 
     48 O          24.2098  -32.3003  -38.6307 O.2       7 UNK        -0.5147 
     49 N          23.2003  -30.3999  -39.3655 N.am      8 UNK        -0.4734 
     50 CA         21.7799  -30.7218  -39.1688 C.3       8 UNK         0.0238 
     51 CB         21.4736  -31.1873  -37.7295 C.3       8 UNK        -0.1912 
     52 C          21.2095  -31.6765  -40.2352 C.2       8 UNK         0.5038 
     53 O          20.0449  -32.0611  -40.1273 O.2       8 UNK        -0.5046 
     54 N          22.0066  -32.0113  -41.2607 N.am      9 UNK        -0.4200 
     55 CA         21.6273  -32.8276  -42.4222 C.3       9 UNK         0.0839 
     56 C          21.3377  -34.3249  -42.0932 C.2       9 UNK         0.5513 
     57 N          21.8388  -34.8573  -40.9843 N.am      9 UNK        -0.7519 
     58 O          20.6729  -35.0237  -42.8534 O.2       9 UNK        -0.4960 
     59 C59        20.5223  -32.1295  -43.2643 C.3       10 UNK        -0.0876 
     60 S60        20.6840  -32.4168  -45.0539 S.3       10 UNK        -0.2414 
     61 C61        19.0446  -31.8584  -45.6339 C.3       10 UNK         0.0169 
     62 H62        15.8860  -23.1165  -41.8614 H         1 UNK         0.0903 
     63 H63        16.2351  -22.5227  -43.4873 H         1 UNK         0.0903 
     64 H64        14.6979  -23.3212  -43.1504 H         1 UNK         0.0903 
     65 H65        14.6355  -25.4339  -43.8912 H         1 UNK         0.3096 
     66 H66        17.0302  -26.8614  -44.6255 H         1 UNK         0.1121 
     67 H67        14.0532  -27.5541  -44.7530 H         1 UNK         0.0849 
     68 H68        15.2599  -28.7412  -45.1585 H         1 UNK         0.0849 
     69 H69        15.5646  -29.0930  -47.7842 H         1 UNK         0.0865 
     70 H70        16.4504  -27.8572  -48.6331 H         1 UNK         0.0865 
     71 H71        16.8986  -30.6691  -46.6706 H         1 UNK         0.1346 
     72 H72        20.8829  -29.7317  -45.3837 H         1 UNK         0.1412 
     73 H73        18.4064  -26.6853  -47.0960 H         1 UNK         0.1426 
     74 H74        20.5306  -26.0635  -46.2082 H         1 UNK         0.0716 
     75 H75        21.5579  -27.2635  -46.9445 H         1 UNK         0.0716 
     76 H76        21.5279  -25.2856  -43.1538 H         1 UNK         0.0695 
     77 H77        20.0408  -25.8291  -43.8604 H         1 UNK         0.0695 
     78 H78        19.9796  -26.2425  -41.4680 H         1 UNK         0.0983 
     79 H79        19.6323  -28.3093  -43.3281 H         1 UNK         0.3095 
     80 H80        18.4072  -30.4354  -42.6007 H         1 UNK         0.0454 
     81 H81        17.5512  -30.9670  -40.3688 H         1 UNK         0.0851 
     82 H82        16.2091  -30.9289  -41.5006 H         1 UNK         0.0851 
     83 H83        16.4696  -29.5890  -40.3841 H         1 UNK         0.0851 
     84 H84        17.3817  -29.1138  -44.0407 H         1 UNK         0.2976 
     85 H85        21.7661  -25.4768  -40.3357 H         1 UNK         0.3116 
     86 H86        23.4413  -27.3505  -39.0091 H         1 UNK         0.0646 
     87 H87        23.6527  -24.2963  -39.2058 H         1 UNK         0.0847 
     88 H88        24.4978  -25.3055  -38.0415 H         1 UNK         0.0847 
     89 H89        22.7475  -25.1977  -37.9884 H         1 UNK         0.0847 
     90 H90        23.9072  -25.4997  -41.9619 H         1 UNK         0.3040 
     91 H91        26.7306  -25.7618  -42.2554 H         1 UNK         0.1015 
     92 H92        24.5204  -25.4767  -44.3685 H         1 UNK         0.0786 
     93 H93        26.2372  -25.2274  -44.6503 H         1 UNK         0.0786 
     94 H94        25.3675  -24.1493  -43.5724 H         1 UNK         0.0786 
     95 H95        24.1280  -28.0661  -42.7150 H         1 UNK         0.3172 
     96 H96        25.9370  -30.0664  -43.9901 H         1 UNK         0.0595 
     97 H97        22.8953  -30.0661  -43.6107 H         1 UNK         0.0839 
     98 H98        23.8330  -31.2773  -44.4761 H         1 UNK         0.0839 
     99 H99        23.7307  -29.6448  -45.1041 H         1 UNK         0.0839 
    100 H100       25.7239  -29.0391  -41.0104 H         1 UNK         0.2998 
    101 H101       25.8521  -29.7811  -38.9358 H         1 UNK         0.0822 
    102 H102       26.9105  -31.9667  -38.4853 H         1 UNK         0.0787 
    103 H103       26.5949  -32.5078  -40.1263 H         1 UNK         0.0787 
    104 H104       27.7200  -31.1826  -39.8318 H         1 UNK         0.0787 
    105 H105       23.3503  -29.5359  -39.8757 H         1 UNK         0.3055 
    106 H106       21.2492  -29.7804  -39.3155 H         1 UNK         0.1106 
    107 H107       21.8950  -30.5049  -36.9917 H         1 UNK         0.0828 
    108 H108       20.3973  -31.2246  -37.5569 H         1 UNK         0.0828 
    109 H109       21.8628  -32.1856  -37.5296 H         1 UNK         0.0828 
    110 H110       22.9696  -31.6997  -41.2528 H         1 UNK         0.2931 
    111 H111       22.5322  -32.8555  -43.0288 H         1 UNK         0.0412 
    112 H112       22.3959  -34.2977  -40.3571 H         1 UNK         0.3472 
    113 H113       21.6578  -35.8263  -40.7742 H         1 UNK         0.3472 
    114 H114       20.5747  -31.0490  -43.1266 H         1 UNK         0.0970 
    115 H115       19.5332  -32.4377  -42.9217 H         1 UNK         0.0970 
    116 H116       18.2836  -32.1456  -44.9071 H         1 UNK         0.0612 
    117 H117       18.8207  -32.4213  -46.5412 H         1 UNK         0.0612 
@<TRIPOS>BOND
     1    1    2 1    
     2    1   62 1    
     3    1   63 1    
     4    1   64 1    
     5    2    3 2    
     6    2    4 am   BACKBONE|DICT|INTERRES
     7    4    5 1    
     8    4   65 1    
     9    5    6 1    
    10    5   25 1    
    11    5   66 1    
    12    6    7 1    
    13    6   67 1    
    14    6   68 1    
    15    7    8 1    
    16    8    9 1    
    17    8   69 1    
    18    8   70 1    
    19    9   10 ar   
    20    9   14 ar   
    21   10   11 ar   
    22   10   71 1    
    23   11   12 ar   
    24   11   61 1    
    25   12   13 ar   
    26   12   72 1    
    27   13   14 ar   
    28   13   15 1    
    29   14   73 1    
    30   15   16 1    
    31   15   74 1    
    32   15   75 1    
    33   16   17 1    
    34   17   18 1    
    35   17   76 1    
    36   17   77 1    
    37   18   19 1    
    38   18   27 1    
    39   18   78 1    
    40   19   20 am   BACKBONE|DICT|INTERRES
    41   19   79 1    
    42   20   21 2    
    43   20   22 1    
    44   22   23 1    
    45   22   24 1    
    46   22   80 1    
    47   23   81 1    
    48   23   82 1    
    49   23   83 1    
    50   24   25 am   BACKBONE|DICT|INTERRES
    51   24   84 1    
    52   25   26 2    
    53   27   28 2    
    54   27   29 am   BACKBONE|DICT|INTERRES
    55   29   30 1    
    56   29   85 1    
    57   30   31 1    
    58   30   32 1    
    59   30   86 1    
    60   31   87 1    
    61   31   88 1    
    62   31   89 1    
    63   32   33 2    
    64   32   34 am   BACKBONE|DICT|INTERRES
    65   34   35 1    
    66   34   90 1    
    67   35   36 1    
    68   35   37 1    
    69   35   91 1    
    70   36   92 1    
    71   36   93 1    
    72   36   94 1    
    73   37   38 2    
    74   37   39 am   BACKBONE|DICT|INTERRES
    75   39   40 1    
    76   39   95 1    
    77   40   41 1    
    78   40   42 1    
    79   40   96 1    
    80   41   97 1    
    81   41   98 1    
    82   41   99 1    
    83   42   43 2    
    84   42   44 am   BACKBONE|DICT|INTERRES
    85   44   45 1    
    86   44  100 1    
    87   45   46 1    
    88   45   47 1    
    89   45  101 1    
    90   46  102 1    
    91   46  103 1    
    92   46  104 1    
    93   47   48 2    
    94   47   49 am   BACKBONE|DICT|INTERRES
    95   49   50 1    
    96   49  105 1    
    97   50   51 1    
    98   50   52 1    
    99   50  106 1    
   100   51  107 1    
   101   51  108 1    
   102   51  109 1    
   103   52   53 2    
   104   52   54 am   BACKBONE|DICT|INTERRES
   105   54   55 1    
   106   54  110 1    
   107   55   56 1    
   108   55   59 1    
   109   55  111 1    
   110   56   57 am   BACKBONE|DICT|INTERRES
   111   56   58 2    
   112   57  112 1    
   113   57  113 1    
   114   59   60 1    
   115   59  114 1    
   116   59  115 1    
   117   60   61 1    
   118   61  116 1    
   119   61  117 1    
@<TRIPOS>SUBSTRUCTURE
     1 UNK         1 GROUP             0       ****    0 ROOT    
