@<TRIPOS>MOLECULE
3R8
117   119    1
SMALL
USER_CHARGES


@<TRIPOS>ATOM
      1 CA         16.4442  -22.5940  -41.8820 C.3       0 UNK        -0.2013 
      2 C          16.5261  -23.2354  -43.2591 C.2       0 UNK         0.4866 
      3 O          16.4754  -22.5295  -44.2671 O.2       0 UNK        -0.5176 
      4 N          16.6444  -24.5682  -43.3103 N.am      1 UNK        -0.4884 
      5 CA         16.8177  -25.3424  -44.5439 C.3       1 UNK         0.0853 
      6 C6         16.4450  -26.8267  -44.3205 C.3       10 UNK        -0.0849 
      7 S7         15.9098  -27.6554  -45.8574 S.3       10 UNK        -0.2776 
      8 C8         15.5547  -29.3393  -45.2543 C.3       10 UNK         0.0316 
      9 C9         16.7988  -29.9801  -44.6605 C.ar      10 UNK        -0.0863 
     10 C10        16.9753  -30.0233  -43.2751 C.ar      10 UNK        -0.1009 
     11 C11        18.1606  -30.5086  -42.7162 C.ar      10 UNK        -0.0712 
     12 C12        19.1658  -30.9839  -43.5711 C.ar      10 UNK        -0.0894 
     13 C13        18.9921  -30.9629  -44.9599 C.ar      10 UNK        -0.0745 
     14 C14        17.8016  -30.4705  -45.4980 C.ar      10 UNK        -0.0972 
     15 C15        20.1067  -31.4266  -45.8877 C.3       10 UNK         0.0209 
     16 S16        20.8890  -30.0285  -46.7601 S.3       10 UNK        -0.2568 
     17 C17        21.6586  -29.1418  -45.3665 C.3       10 UNK        -0.0983 
     18 CA         21.9892  -27.6590  -45.6620 C.3       3 UNK         0.0876 
     19 N          20.8300  -26.9103  -46.1642 N.am      3 UNK        -0.4424 
     20 C          20.9142  -25.7092  -46.7510 C.2       2 UNK         0.4918 
     21 O          21.9777  -25.1198  -46.9474 O.2       2 UNK        -0.4875 
     22 CA         19.6032  -25.0406  -47.2059 C.3       2 UNK         0.0481 
     23 CB         19.3283  -25.3737  -48.6814 C.3       2 UNK        -0.1831 
     24 N          18.4037  -25.3466  -46.4157 N.am      2 UNK        -0.4498 
     25 C          18.2539  -25.1826  -45.0934 C.2       1 UNK         0.5027 
     26 O          19.1828  -24.9301  -44.3207 O.2       1 UNK        -0.4969 
     27 C          22.6006  -27.0261  -44.3933 C.2       3 UNK         0.5005 
     28 O          23.8059  -27.1671  -44.1790 O.2       3 UNK        -0.5279 
     29 N          21.7509  -26.3812  -43.5746 N.am      4 UNK        -0.4463 
     30 CA         21.9755  -25.9355  -42.1929 C.3       4 UNK         0.0283 
     31 CB         23.1550  -24.9444  -42.1021 C.3       4 UNK        -0.1875 
     32 C          22.1457  -27.1081  -41.2046 C.2       4 UNK         0.4949 
     33 O          22.3905  -28.2482  -41.6028 O.2       4 UNK        -0.5039 
     34 N          22.0323  -26.8025  -39.9043 N.am      5 UNK        -0.4663 
     35 CA         22.1712  -27.7727  -38.8074 C.3       5 UNK         0.0242 
     36 CB         21.7831  -27.0997  -37.4815 C.3       5 UNK        -0.1982 
     37 C          23.5745  -28.4001  -38.7028 C.2       5 UNK         0.5017 
     38 O          23.7043  -29.5166  -38.2000 O.2       5 UNK        -0.5012 
     39 N          24.5901  -27.6919  -39.2185 N.am      6 UNK        -0.4439 
     40 CA         25.9842  -28.1330  -39.3236 C.3       6 UNK         0.0297 
     41 CB         26.8378  -26.9690  -39.8525 C.3       6 UNK        -0.2006 
     42 C          26.1898  -29.3872  -40.1964 C.2       6 UNK         0.4892 
     43 O          27.2027  -30.0672  -40.0303 O.2       6 UNK        -0.5089 
     44 N          25.2327  -29.6883  -41.0870 N.am      7 UNK        -0.4243 
     45 CA         25.2102  -30.9035  -41.9041 C.3       7 UNK         0.0196 
     46 CB         24.3076  -30.6607  -43.1240 C.3       7 UNK        -0.2007 
     47 C          24.7435  -32.1548  -41.1347 C.2       7 UNK         0.5020 
     48 O          24.7559  -33.2399  -41.7149 O.2       7 UNK        -0.5147 
     49 N          24.2910  -31.9945  -39.8804 N.am      8 UNK        -0.4734 
     50 CA         23.7486  -33.0052  -38.9553 C.3       8 UNK         0.0238 
     51 CB         24.7530  -34.1475  -38.7020 C.3       8 UNK        -0.1912 
     52 C          22.3560  -33.5512  -39.3293 C.2       8 UNK         0.5038 
     53 O          21.6528  -34.0302  -38.4375 O.2       8 UNK        -0.5046 
     54 N          21.9673  -33.4279  -40.6045 N.am      9 UNK        -0.4200 
     55 CA         20.6490  -33.7539  -41.1708 C.3       9 UNK         0.0839 
     56 C          20.3516  -35.2835  -41.2141 C.2       9 UNK         0.5513 
     57 N          19.1468  -35.6787  -41.6149 N.am      9 UNK        -0.7519 
     58 O          21.2074  -36.1258  -40.9333 O.2       9 UNK        -0.4960 
     59 C59        19.4961  -32.9213  -40.5302 C.3       10 UNK        -0.0876 
     60 S60        19.8392  -31.1251  -40.4857 S.3       10 UNK        -0.2414 
     61 C61        18.3078  -30.4325  -41.1943 C.3       10 UNK         0.0169 
     62 H62        15.5149  -22.0336  -41.7832 H         1 UNK         0.0903 
     63 H63        16.4794  -23.3349  -41.0835 H         1 UNK         0.0903 
     64 H64        17.2755  -21.9037  -41.7406 H         1 UNK         0.0903 
     65 H65        16.7182  -25.0907  -42.4492 H         1 UNK         0.3096 
     66 H66        16.1295  -24.9204  -45.2806 H         1 UNK         0.1121 
     67 H67        17.2774  -27.3673  -43.8671 H         1 UNK         0.0849 
     68 H68        15.6148  -26.9054  -43.6162 H         1 UNK         0.0849 
     69 H69        14.7477  -29.3013  -44.5208 H         1 UNK         0.0865 
     70 H70        15.1875  -29.9471  -46.0824 H         1 UNK         0.0865 
     71 H71        16.2027  -29.6316  -42.6271 H         1 UNK         0.1346 
     72 H72        20.1034  -31.3386  -43.1699 H         1 UNK         0.1412 
     73 H73        17.6762  -30.4248  -46.5716 H         1 UNK         0.1426 
     74 H74        19.6973  -32.1196  -46.6241 H         1 UNK         0.0716 
     75 H75        20.8693  -31.9791  -45.3365 H         1 UNK         0.0716 
     76 H76        21.0058  -29.2036  -44.4953 H         1 UNK         0.0695 
     77 H77        22.5672  -29.6844  -45.1040 H         1 UNK         0.0695 
     78 H78        22.7594  -27.6360  -46.4366 H         1 UNK         0.0983 
     79 H79        19.9265  -27.3501  -46.0676 H         1 UNK         0.3095 
     80 H80        19.7575  -23.9623  -47.1297 H         1 UNK         0.0454 
     81 H81        19.1148  -26.4343  -48.8219 H         1 UNK         0.0851 
     82 H82        18.4824  -24.8054  -49.0685 H         1 UNK         0.0851 
     83 H83        20.1895  -25.1300  -49.3054 H         1 UNK         0.0851 
     84 H84        17.5872  -25.6159  -46.9472 H         1 UNK         0.2976 
     85 H85        20.7977  -26.2633  -43.8995 H         1 UNK         0.3116 
     86 H86        21.0656  -25.4049  -41.9077 H         1 UNK         0.0646 
     87 H87        23.1947  -24.4671  -41.1227 H         1 UNK         0.0847 
     88 H88        23.0612  -24.1495  -42.8419 H         1 UNK         0.0847 
     89 H89        24.1161  -25.4351  -42.2589 H         1 UNK         0.0847 
     90 H90        21.8222  -25.8495  -39.6423 H         1 UNK         0.3040 
     91 H91        21.4712  -28.5901  -38.9967 H         1 UNK         0.1015 
     92 H92        20.7566  -26.7334  -37.5076 H         1 UNK         0.0786 
     93 H93        22.4362  -26.2580  -37.2483 H         1 UNK         0.0786 
     94 H94        21.8515  -27.8049  -36.6518 H         1 UNK         0.0786 
     95 H95        24.3711  -26.7874  -39.6091 H         1 UNK         0.3172 
     96 H96        26.3261  -28.3804  -38.3166 H         1 UNK         0.0595 
     97 H97        26.7791  -26.1005  -39.1962 H         1 UNK         0.0839 
     98 H98        26.5249  -26.6598  -40.8509 H         1 UNK         0.0839 
     99 H99        27.8894  -27.2529  -39.9152 H         1 UNK         0.0839 
    100 H100       24.4250  -29.0803  -41.1663 H         1 UNK         0.2998 
    101 H101       26.2222  -31.1023  -42.2633 H         1 UNK         0.0822 
    102 H102       24.6410  -29.7938  -43.6948 H         1 UNK         0.0787 
    103 H103       24.3183  -31.5161  -43.8006 H         1 UNK         0.0787 
    104 H104       23.2712  -30.4905  -42.8292 H         1 UNK         0.0787 
    105 H105       24.2712  -31.0490  -39.5114 H         1 UNK         0.3055 
    106 H106       23.6124  -32.4779  -38.0093 H         1 UNK         0.1106 
    107 H107       24.9031  -34.7655  -39.5873 H         1 UNK         0.0828 
    108 H108       25.7236  -33.7615  -38.3908 H         1 UNK         0.0828 
    109 H109       24.3969  -34.8065  -37.9091 H         1 UNK         0.0828 
    110 H110       22.6641  -33.1082  -41.2639 H         1 UNK         0.2931 
    111 H111       20.7243  -33.4577  -42.2173 H         1 UNK         0.0412 
    112 H112       18.4341  -35.0164  -41.8888 H         1 UNK         0.3472 
    113 H113       18.9516  -36.6672  -41.6607 H         1 UNK         0.3472 
    114 H114       18.5661  -33.0822  -41.0763 H         1 UNK         0.0970 
    115 H115       19.3038  -33.2555  -39.5094 H         1 UNK         0.0970 
    116 H116       17.4513  -30.9143  -40.7206 H         1 UNK         0.0612 
    117 H117       18.2644  -29.3814  -40.9061 H         1 UNK         0.0612 
@<TRIPOS>BOND
     1    1    2 1    
     2    1   62 1    
     3    1   63 1    
     4    1   64 1    
     5    2    3 2    
     6    2    4 am   BACKBONE|DICT|INTERRES
     7    4    5 1    
     8    4   65 1    
     9    5    6 1    
    10    5   25 1    
    11    5   66 1    
    12    6    7 1    
    13    6   67 1    
    14    6   68 1    
    15    7    8 1    
    16    8    9 1    
    17    8   69 1    
    18    8   70 1    
    19    9   10 ar   
    20    9   14 ar   
    21   10   11 ar   
    22   10   71 1    
    23   11   12 ar   
    24   11   61 1    
    25   12   13 ar   
    26   12   72 1    
    27   13   14 ar   
    28   13   15 1    
    29   14   73 1    
    30   15   16 1    
    31   15   74 1    
    32   15   75 1    
    33   16   17 1    
    34   17   18 1    
    35   17   76 1    
    36   17   77 1    
    37   18   19 1    
    38   18   27 1    
    39   18   78 1    
    40   19   20 am   BACKBONE|DICT|INTERRES
    41   19   79 1    
    42   20   21 2    
    43   20   22 1    
    44   22   23 1    
    45   22   24 1    
    46   22   80 1    
    47   23   81 1    
    48   23   82 1    
    49   23   83 1    
    50   24   25 am   BACKBONE|DICT|INTERRES
    51   24   84 1    
    52   25   26 2    
    53   27   28 2    
    54   27   29 am   BACKBONE|DICT|INTERRES
    55   29   30 1    
    56   29   85 1    
    57   30   31 1    
    58   30   32 1    
    59   30   86 1    
    60   31   87 1    
    61   31   88 1    
    62   31   89 1    
    63   32   33 2    
    64   32   34 am   BACKBONE|DICT|INTERRES
    65   34   35 1    
    66   34   90 1    
    67   35   36 1    
    68   35   37 1    
    69   35   91 1    
    70   36   92 1    
    71   36   93 1    
    72   36   94 1    
    73   37   38 2    
    74   37   39 am   BACKBONE|DICT|INTERRES
    75   39   40 1    
    76   39   95 1    
    77   40   41 1    
    78   40   42 1    
    79   40   96 1    
    80   41   97 1    
    81   41   98 1    
    82   41   99 1    
    83   42   43 2    
    84   42   44 am   BACKBONE|DICT|INTERRES
    85   44   45 1    
    86   44  100 1    
    87   45   46 1    
    88   45   47 1    
    89   45  101 1    
    90   46  102 1    
    91   46  103 1    
    92   46  104 1    
    93   47   48 2    
    94   47   49 am   BACKBONE|DICT|INTERRES
    95   49   50 1    
    96   49  105 1    
    97   50   51 1    
    98   50   52 1    
    99   50  106 1    
   100   51  107 1    
   101   51  108 1    
   102   51  109 1    
   103   52   53 2    
   104   52   54 am   BACKBONE|DICT|INTERRES
   105   54   55 1    
   106   54  110 1    
   107   55   56 1    
   108   55   59 1    
   109   55  111 1    
   110   56   57 am   BACKBONE|DICT|INTERRES
   111   56   58 2    
   112   57  112 1    
   113   57  113 1    
   114   59   60 1    
   115   59  114 1    
   116   59  115 1    
   117   60   61 1    
   118   61  116 1    
   119   61  117 1    
@<TRIPOS>SUBSTRUCTURE
     1 UNK         1 GROUP             0       ****    0 ROOT    
