@<TRIPOS>MOLECULE
3R8
117   119    1
SMALL
USER_CHARGES


@<TRIPOS>ATOM
      1 CA         12.7718  -23.9383  -44.3246 C.3       0 UNK        -0.2013 
      2 C          14.2186  -23.6455  -44.6935 C.2       0 UNK         0.4866 
      3 O          14.6731  -22.5112  -44.5383 O.2       0 UNK        -0.5176 
      4 N          14.9422  -24.6561  -45.1895 N.am      1 UNK        -0.4884 
      5 CA         16.3682  -24.5827  -45.5234 C.3       1 UNK         0.0853 
      6 C6         16.7638  -25.6782  -46.5495 C.3       10 UNK        -0.0849 
      7 S7         16.4477  -27.3888  -45.9870 S.3       10 UNK        -0.2776 
      8 C8         18.1378  -27.8979  -45.5471 C.3       10 UNK         0.0316 
      9 C9         18.1467  -29.0928  -44.6091 C.ar      10 UNK        -0.0863 
     10 C10        18.6965  -30.3090  -45.0217 C.ar      10 UNK        -0.1009 
     11 C11        18.7865  -31.3868  -44.1348 C.ar      10 UNK        -0.0712 
     12 C12        18.2968  -31.2439  -42.8318 C.ar      10 UNK        -0.0894 
     13 C13        17.7260  -30.0373  -42.4133 C.ar      10 UNK        -0.0745 
     14 C14        17.6501  -28.9667  -43.3085 C.ar      10 UNK        -0.0972 
     15 C15        17.1906  -29.8947  -40.9956 C.3       10 UNK         0.0209 
     16 S16        18.5049  -29.4522  -39.8145 S.3       10 UNK        -0.2568 
     17 C17        18.6855  -27.6548  -40.0724 C.3       10 UNK        -0.0983 
     18 CA         19.7559  -27.2772  -41.1288 C.3       3 UNK         0.0876 
     19 N          19.4446  -25.9748  -41.7359 N.am      3 UNK        -0.4424 
     20 C          19.9544  -25.5098  -42.8827 C.2       2 UNK         0.4918 
     21 O          20.7678  -26.1277  -43.5697 O.2       2 UNK        -0.4875 
     22 CA         19.4992  -24.1050  -43.3154 C.3       2 UNK         0.0481 
     23 CB         20.6958  -23.2530  -43.7732 C.3       2 UNK        -0.1831 
     24 N          18.5045  -24.1575  -44.3885 N.am      2 UNK        -0.4498 
     25 C          17.2494  -24.6090  -44.2519 C.2       1 UNK         0.5027 
     26 O          16.7941  -25.0387  -43.1875 O.2       1 UNK        -0.4969 
     27 C          21.2038  -27.3792  -40.5918 C.2       3 UNK         0.5005 
     28 O          21.6741  -28.4791  -40.3023 O.2       3 UNK        -0.5279 
     29 N          21.9207  -26.2477  -40.5229 N.am      4 UNK        -0.4463 
     30 CA         23.3584  -26.1807  -40.2491 C.3       4 UNK         0.0283 
     31 CB         23.7771  -24.7084  -40.1109 C.3       4 UNK        -0.1875 
     32 C          24.2287  -26.8874  -41.3087 C.2       4 UNK         0.4949 
     33 O          25.3602  -27.2519  -40.9886 O.2       4 UNK        -0.5039 
     34 N          23.6952  -27.0782  -42.5282 N.am      5 UNK        -0.4663 
     35 CA         24.3105  -27.7822  -43.6585 C.3       5 UNK         0.0242 
     36 CB         23.3130  -27.8111  -44.8298 C.3       5 UNK        -0.1982 
     37 C          24.7667  -29.2047  -43.2860 C.2       5 UNK         0.5017 
     38 O          23.9406  -30.1172  -43.2165 O.2       5 UNK        -0.5012 
     39 N          26.0697  -29.3361  -42.9942 N.am      6 UNK        -0.4439 
     40 CA         26.7657  -30.5372  -42.5148 C.3       6 UNK         0.0297 
     41 CB         26.8667  -31.5854  -43.6428 C.3       6 UNK        -0.2006 
     42 C          26.1874  -31.1248  -41.2081 C.2       6 UNK         0.4892 
     43 O          26.3638  -32.3180  -40.9636 O.2       6 UNK        -0.5089 
     44 N          25.5199  -30.2805  -40.4019 N.am      7 UNK        -0.4243 
     45 CA         24.7512  -30.6118  -39.1955 C.3       7 UNK         0.0196 
     46 CB         25.6849  -31.0720  -38.0562 C.3       7 UNK        -0.2007 
     47 C          23.6359  -31.6306  -39.5013 C.2       7 UNK         0.5020 
     48 O          23.7956  -32.8239  -39.2373 O.2       7 UNK        -0.5147 
     49 N          22.5383  -31.1354  -40.0892 N.am      8 UNK        -0.4734 
     50 CA         21.3547  -31.8808  -40.5349 C.3       8 UNK         0.0238 
     51 CB         20.5722  -32.4356  -39.3252 C.3       8 UNK        -0.1912 
     52 C          21.6764  -32.9601  -41.5857 C.2       8 UNK         0.5038 
     53 O          21.1067  -34.0522  -41.5354 O.2       8 UNK        -0.5046 
     54 N          22.5857  -32.6329  -42.5137 N.am      9 UNK        -0.4200 
     55 CA         23.0773  -33.5065  -43.5920 C.3       9 UNK         0.0839 
     56 C          23.9345  -34.7166  -43.1098 C.2       9 UNK         0.5513 
     57 N          24.4053  -34.7515  -41.8691 N.am      9 UNK        -0.7519 
     58 O          24.2045  -35.6322  -43.8832 O.2       9 UNK        -0.4960 
     59 C59        21.9717  -33.9241  -44.6062 C.3       10 UNK        -0.0876 
     60 S60        21.0694  -32.4905  -45.2904 S.3       10 UNK        -0.2414 
     61 C61        19.4005  -32.7078  -44.5831 C.3       10 UNK         0.0169 
     62 H62        12.5009  -24.9742  -44.5277 H         1 UNK         0.0903 
     63 H63        12.6096  -23.7473  -43.2641 H         1 UNK         0.0903 
     64 H64        12.1014  -23.2948  -44.8937 H         1 UNK         0.0903 
     65 H65        14.5351  -25.5783  -45.2609 H         1 UNK         0.3096 
     66 H66        16.5403  -23.6149  -46.0010 H         1 UNK         0.1121 
     67 H67        16.1937  -25.5276  -47.4677 H         1 UNK         0.0849 
     68 H68        17.8087  -25.5714  -46.8470 H         1 UNK         0.0849 
     69 H69        18.6943  -28.1117  -46.4610 H         1 UNK         0.0865 
     70 H70        18.6614  -27.0772  -45.0589 H         1 UNK         0.0865 
     71 H71        19.0798  -30.4134  -46.0276 H         1 UNK         0.1346 
     72 H72        18.3589  -32.0720  -42.1387 H         1 UNK         0.1412 
     73 H73        17.2234  -28.0247  -42.9891 H         1 UNK         0.1426 
     74 H74        16.7461  -30.8399  -40.6805 H         1 UNK         0.0716 
     75 H75        16.3869  -29.1579  -40.9565 H         1 UNK         0.0716 
     76 H76        18.9053  -27.1841  -39.1123 H         1 UNK         0.0695 
     77 H77        17.7087  -27.2683  -40.3679 H         1 UNK         0.0695 
     78 H78        19.7127  -28.0084  -41.9365 H         1 UNK         0.0983 
     79 H79        18.7571  -25.4118  -41.2547 H         1 UNK         0.3095 
     80 H80        19.0471  -23.6035  -42.4569 H         1 UNK         0.0454 
     81 H81        20.3918  -22.2316  -44.0027 H         1 UNK         0.0851 
     82 H82        21.1749  -23.6676  -44.6613 H         1 UNK         0.0851 
     83 H83        21.4558  -23.1947  -42.9929 H         1 UNK         0.0851 
     84 H84        18.8151  -23.8447  -45.2972 H         1 UNK         0.2976 
     85 H85        21.4615  -25.3818  -40.7629 H         1 UNK         0.3116 
     86 H86        23.5386  -26.6805  -39.2950 H         1 UNK         0.0646 
     87 H87        23.6047  -24.1501  -41.0320 H         1 UNK         0.0847 
     88 H88        24.8392  -24.6259  -39.8754 H         1 UNK         0.0847 
     89 H89        23.2316  -24.2123  -39.3079 H         1 UNK         0.0847 
     90 H90        22.7487  -26.7541  -42.6848 H         1 UNK         0.3040 
     91 H91        25.1822  -27.2059  -43.9749 H         1 UNK         0.1015 
     92 H92        23.0569  -26.8038  -45.1591 H         1 UNK         0.0786 
     93 H93        22.3853  -28.3178  -44.5580 H         1 UNK         0.0786 
     94 H94        23.7320  -28.3371  -45.6886 H         1 UNK         0.0786 
     95 H95        26.6352  -28.4979  -43.0172 H         1 UNK         0.3172 
     96 H96        27.7805  -30.2196  -42.2711 H         1 UNK         0.0595 
     97 H97        27.4851  -32.4320  -43.3419 H         1 UNK         0.0839 
     98 H98        27.3177  -31.1614  -44.5398 H         1 UNK         0.0839 
     99 H99        25.8886  -31.9790  -43.9144 H         1 UNK         0.0839 
    100 H100       25.4589  -29.3124  -40.7013 H         1 UNK         0.2998 
    101 H101       24.2671  -29.6889  -38.8707 H         1 UNK         0.0822 
    102 H102       25.1170  -31.2647  -37.1452 H         1 UNK         0.0787 
    103 H103       26.2158  -31.9911  -38.3060 H         1 UNK         0.0787 
    104 H104       26.4280  -30.3099  -37.8217 H         1 UNK         0.0787 
    105 H105       22.4723  -30.1286  -40.2409 H         1 UNK         0.3055 
    106 H106       20.7154  -31.1541  -41.0387 H         1 UNK         0.1106 
    107 H107       19.6146  -32.8527  -39.6390 H         1 UNK         0.0828 
    108 H108       21.1218  -33.2271  -38.8150 H         1 UNK         0.0828 
    109 H109       20.3591  -31.6521  -38.5983 H         1 UNK         0.0828 
    110 H110       22.9988  -31.7048  -42.4971 H         1 UNK         0.2931 
    111 H111       23.7785  -32.8829  -44.1452 H         1 UNK         0.0412 
    112 H112       24.2272  -33.9932  -41.2234 H         1 UNK         0.3472 
    113 H113       24.9719  -35.5319  -41.5786 H         1 UNK         0.3472 
    114 H114       21.2799  -34.6358  -44.1540 H         1 UNK         0.0970 
    115 H115       22.4194  -34.4501  -45.4511 H         1 UNK         0.0970 
    116 H116       18.7557  -33.1674  -45.3330 H         1 UNK         0.0612 
    117 H117       19.4383  -33.4020  -43.7431 H         1 UNK         0.0612 
@<TRIPOS>BOND
     1    1    2 1    
     2    1   62 1    
     3    1   63 1    
     4    1   64 1    
     5    2    3 2    
     6    2    4 am   BACKBONE|DICT|INTERRES
     7    4    5 1    
     8    4   65 1    
     9    5    6 1    
    10    5   25 1    
    11    5   66 1    
    12    6    7 1    
    13    6   67 1    
    14    6   68 1    
    15    7    8 1    
    16    8    9 1    
    17    8   69 1    
    18    8   70 1    
    19    9   10 ar   
    20    9   14 ar   
    21   10   11 ar   
    22   10   71 1    
    23   11   12 ar   
    24   11   61 1    
    25   12   13 ar   
    26   12   72 1    
    27   13   14 ar   
    28   13   15 1    
    29   14   73 1    
    30   15   16 1    
    31   15   74 1    
    32   15   75 1    
    33   16   17 1    
    34   17   18 1    
    35   17   76 1    
    36   17   77 1    
    37   18   19 1    
    38   18   27 1    
    39   18   78 1    
    40   19   20 am   BACKBONE|DICT|INTERRES
    41   19   79 1    
    42   20   21 2    
    43   20   22 1    
    44   22   23 1    
    45   22   24 1    
    46   22   80 1    
    47   23   81 1    
    48   23   82 1    
    49   23   83 1    
    50   24   25 am   BACKBONE|DICT|INTERRES
    51   24   84 1    
    52   25   26 2    
    53   27   28 2    
    54   27   29 am   BACKBONE|DICT|INTERRES
    55   29   30 1    
    56   29   85 1    
    57   30   31 1    
    58   30   32 1    
    59   30   86 1    
    60   31   87 1    
    61   31   88 1    
    62   31   89 1    
    63   32   33 2    
    64   32   34 am   BACKBONE|DICT|INTERRES
    65   34   35 1    
    66   34   90 1    
    67   35   36 1    
    68   35   37 1    
    69   35   91 1    
    70   36   92 1    
    71   36   93 1    
    72   36   94 1    
    73   37   38 2    
    74   37   39 am   BACKBONE|DICT|INTERRES
    75   39   40 1    
    76   39   95 1    
    77   40   41 1    
    78   40   42 1    
    79   40   96 1    
    80   41   97 1    
    81   41   98 1    
    82   41   99 1    
    83   42   43 2    
    84   42   44 am   BACKBONE|DICT|INTERRES
    85   44   45 1    
    86   44  100 1    
    87   45   46 1    
    88   45   47 1    
    89   45  101 1    
    90   46  102 1    
    91   46  103 1    
    92   46  104 1    
    93   47   48 2    
    94   47   49 am   BACKBONE|DICT|INTERRES
    95   49   50 1    
    96   49  105 1    
    97   50   51 1    
    98   50   52 1    
    99   50  106 1    
   100   51  107 1    
   101   51  108 1    
   102   51  109 1    
   103   52   53 2    
   104   52   54 am   BACKBONE|DICT|INTERRES
   105   54   55 1    
   106   54  110 1    
   107   55   56 1    
   108   55   59 1    
   109   55  111 1    
   110   56   57 am   BACKBONE|DICT|INTERRES
   111   56   58 2    
   112   57  112 1    
   113   57  113 1    
   114   59   60 1    
   115   59  114 1    
   116   59  115 1    
   117   60   61 1    
   118   61  116 1    
   119   61  117 1    
@<TRIPOS>SUBSTRUCTURE
     1 UNK         1 GROUP             0       ****    0 ROOT    
