@<TRIPOS>MOLECULE
3R8
117   119    1
SMALL
USER_CHARGES


@<TRIPOS>ATOM
      1 CA         15.7927  -25.5634  -39.7035 C.3       0 UNK        -0.2013 
      2 C          15.5339  -25.7036  -41.1962 C.2       0 UNK         0.4866 
      3 O          14.3927  -25.9216  -41.6035 O.2       0 UNK        -0.5176 
      4 N          16.5834  -25.5779  -42.0131 N.am      1 UNK        -0.4884 
      5 CA         16.5489  -25.6541  -43.4715 C.3       1 UNK         0.0853 
      6 C6         16.4103  -27.1128  -43.9799 C.3       10 UNK        -0.0849 
      7 S7         15.7643  -27.2019  -45.6834 S.3       10 UNK        -0.2776 
      8 C8         15.6610  -29.0049  -45.9262 C.3       10 UNK         0.0316 
      9 C9         17.0153  -29.6800  -45.7600 C.ar      10 UNK        -0.0863 
     10 C10        17.2426  -30.5556  -44.6952 C.ar      10 UNK        -0.1009 
     11 C11        18.4885  -31.1673  -44.5345 C.ar      10 UNK        -0.0712 
     12 C12        19.5197  -30.8801  -45.4350 C.ar      10 UNK        -0.0894 
     13 C13        19.3047  -30.0113  -46.5106 C.ar      10 UNK        -0.0745 
     14 C14        18.0423  -29.4279  -46.6728 C.ar      10 UNK        -0.0972 
     15 C15        20.4204  -29.7632  -47.5229 C.3       10 UNK         0.0209 
     16 S16        20.5150  -28.0315  -48.0914 S.3       10 UNK        -0.2568 
     17 C17        21.8980  -27.3496  -47.1132 C.3       10 UNK        -0.0983 
     18 CA         21.5125  -26.6843  -45.7613 C.3       3 UNK         0.0876 
     19 N          20.2976  -25.8703  -45.8354 N.am      3 UNK        -0.4424 
     20 C          20.2662  -24.5412  -45.9768 C.2       2 UNK         0.4918 
     21 O          21.2710  -23.8375  -46.0852 O.2       2 UNK        -0.4875 
     22 CA         18.8798  -23.8682  -45.9866 C.3       2 UNK         0.0481 
     23 CB         18.4358  -23.5974  -47.4329 C.3       2 UNK        -0.1831 
     24 N          17.8171  -24.6061  -45.2906 N.am      2 UNK        -0.4498 
     25 C          17.8217  -24.9673  -44.0001 C.2       1 UNK         0.5027 
     26 O          18.7838  -24.7991  -43.2437 O.2       1 UNK        -0.4969 
     27 C          21.4822  -27.6371  -44.5492 C.2       3 UNK         0.5005 
     28 O          22.1705  -28.6598  -44.5561 O.2       3 UNK        -0.5279 
     29 N          20.7522  -27.2579  -43.4870 N.am      4 UNK        -0.4463 
     30 CA         20.8043  -27.9094  -42.1749 C.3       4 UNK         0.0283 
     31 CB         19.4756  -27.6849  -41.4310 C.3       4 UNK        -0.1875 
     32 C          22.0181  -27.3874  -41.3833 C.2       4 UNK         0.4949 
     33 O          21.8580  -26.6585  -40.4037 O.2       4 UNK        -0.5039 
     34 N          23.2157  -27.7445  -41.8538 N.am      5 UNK        -0.4663 
     35 CA         24.5131  -27.3410  -41.3144 C.3       5 UNK         0.0242 
     36 CB         25.0476  -26.1599  -42.1452 C.3       5 UNK        -0.1982 
     37 C          25.4740  -28.5376  -41.3531 C.2       5 UNK         0.5017 
     38 O          25.1056  -29.5958  -41.8714 O.2       5 UNK        -0.5012 
     39 N          26.6796  -28.3583  -40.7922 N.am      6 UNK        -0.4439 
     40 CA         27.7576  -29.3494  -40.6585 C.3       6 UNK         0.0297 
     41 CB         28.3351  -29.7418  -42.0374 C.3       6 UNK        -0.2006 
     42 C          27.3158  -30.5563  -39.8106 C.2       6 UNK         0.4892 
     43 O          27.4323  -30.5036  -38.5860 O.2       6 UNK        -0.5089 
     44 N          26.7768  -31.5931  -40.4674 N.am      7 UNK        -0.4243 
     45 CA         26.1055  -32.7320  -39.8336 C.3       7 UNK         0.0196 
     46 CB         25.9105  -33.8443  -40.8767 C.3       7 UNK        -0.2007 
     47 C          24.7547  -32.3567  -39.1924 C.2       7 UNK         0.5020 
     48 O          24.2723  -33.1004  -38.3380 O.2       7 UNK        -0.5147 
     49 N          24.1657  -31.2279  -39.6216 N.am      8 UNK        -0.4734 
     50 CA         22.9370  -30.6069  -39.1061 C.3       8 UNK         0.0238 
     51 CB         23.1705  -30.0494  -37.6867 C.3       8 UNK        -0.1912 
     52 C          21.7057  -31.5267  -39.1973 C.2       8 UNK         0.5038 
     53 O          20.8645  -31.5258  -38.2968 O.2       8 UNK        -0.5046 
     54 N          21.6465  -32.3038  -40.2866 N.am      9 UNK        -0.4200 
     55 CA         20.6265  -33.3223  -40.5832 C.3       9 UNK         0.0839 
     56 C          20.6881  -34.5840  -39.6682 C.2       9 UNK         0.5513 
     57 N          21.7307  -34.7839  -38.8690 N.am      9 UNK        -0.7519 
     58 O          19.7889  -35.4200  -39.7073 O.2       9 UNK        -0.4960 
     59 C59        19.1854  -32.7442  -40.7055 C.3       10 UNK        -0.0876 
     60 S60        19.0707  -31.3187  -41.8408 S.3       10 UNK        -0.2414 
     61 C61        18.7029  -32.1619  -43.4049 C.3       10 UNK         0.0169 
     62 H62        15.4848  -26.4700  -39.1830 H         1 UNK         0.0903 
     63 H63        16.8469  -25.3905  -39.4868 H         1 UNK         0.0903 
     64 H64        15.2215  -24.7276  -39.3002 H         1 UNK         0.0903 
     65 H65        17.4990  -25.3374  -41.6510 H         1 UNK         0.3096 
     66 H66        15.6916  -25.0663  -43.8084 H         1 UNK         0.1121 
     67 H67        15.7187  -27.6717  -43.3476 H         1 UNK         0.0849 
     68 H68        17.3631  -27.6413  -43.9187 H         1 UNK         0.0849 
     69 H69        14.9299  -29.4181  -45.2294 H         1 UNK         0.0865 
     70 H70        15.2780  -29.2082  -46.9273 H         1 UNK         0.0865 
     71 H71        16.4502  -30.7670  -43.9900 H         1 UNK         0.1346 
     72 H72        20.4862  -31.3484  -45.3076 H         1 UNK         0.1412 
     73 H73        17.8548  -28.7657  -47.5069 H         1 UNK         0.1426 
     74 H74        21.3860  -30.0703  -47.1182 H         1 UNK         0.0716 
     75 H75        20.2368  -30.3983  -48.3901 H         1 UNK         0.0716 
     76 H76        22.6781  -28.1031  -46.9930 H         1 UNK         0.0695 
     77 H77        22.3535  -26.5844  -47.7434 H         1 UNK         0.0695 
     78 H78        22.3466  -26.0252  -45.5093 H         1 UNK         0.0983 
     79 H79        19.4245  -26.3756  -45.7884 H         1 UNK         0.3095 
     80 H80        18.9874  -22.9074  -45.4794 H         1 UNK         0.0454 
     81 H81        18.2767  -24.5243  -47.9858 H         1 UNK         0.0851 
     82 H82        17.5105  -23.0221  -47.4654 H         1 UNK         0.0851 
     83 H83        19.1897  -23.0225  -47.9728 H         1 UNK         0.0851 
     84 H84        16.9998  -24.8343  -45.8409 H         1 UNK         0.2976 
     85 H85        20.2630  -26.3706  -43.5245 H         1 UNK         0.3116 
     86 H86        20.9305  -28.9859  -42.3076 H         1 UNK         0.0646 
     87 H87        19.2812  -26.6269  -41.2566 H         1 UNK         0.0847 
     88 H88        18.6354  -28.1007  -41.9854 H         1 UNK         0.0847 
     89 H89        19.4899  -28.1779  -40.4581 H         1 UNK         0.0847 
     90 H90        23.2550  -28.3791  -42.6460 H         1 UNK         0.3040 
     91 H91        24.4048  -27.0369  -40.2706 H         1 UNK         0.1015 
     92 H92        25.2063  -26.4412  -43.1872 H         1 UNK         0.0786 
     93 H93        25.9981  -25.7934  -41.7562 H         1 UNK         0.0786 
     94 H94        24.3518  -25.3206  -42.1299 H         1 UNK         0.0786 
     95 H95        26.8710  -27.4621  -40.3648 H         1 UNK         0.3172 
     96 H96        28.5586  -28.8600  -40.1020 H         1 UNK         0.0595 
     97 H97        29.1288  -30.4827  -41.9317 H         1 UNK         0.0839 
     98 H98        28.7713  -28.8761  -42.5358 H         1 UNK         0.0839 
     99 H99        27.5846  -30.1590  -42.7089 H         1 UNK         0.0839 
    100 H100       26.6864  -31.5148  -41.4710 H         1 UNK         0.2998 
    101 H101       26.7510  -33.1115  -39.0385 H         1 UNK         0.0822 
    102 H102       25.4340  -34.7188  -40.4308 H         1 UNK         0.0787 
    103 H103       25.2805  -33.5165  -41.7047 H         1 UNK         0.0787 
    104 H104       26.8646  -34.1728  -41.2894 H         1 UNK         0.0787 
    105 H105       24.6179  -30.7287  -40.3836 H         1 UNK         0.3055 
    106 H106       22.7221  -29.7604  -39.7580 H         1 UNK         0.1106 
    107 H107       24.0338  -29.3845  -37.6593 H         1 UNK         0.0828 
    108 H108       22.3092  -29.4742  -37.3447 H         1 UNK         0.0828 
    109 H109       23.3382  -30.8472  -36.9623 H         1 UNK         0.0828 
    110 H110       22.4016  -32.2388  -40.9528 H         1 UNK         0.2931 
    111 H111       20.8963  -33.6973  -41.5710 H         1 UNK         0.0412 
    112 H112       21.7555  -35.6123  -38.2957 H         1 UNK         0.3472 
    113 H113       22.4827  -34.1080  -38.8049 H         1 UNK         0.3472 
    114 H114       18.4897  -33.5155  -41.0407 H         1 UNK         0.0970 
    115 H115       18.8200  -32.4266  -39.7278 H         1 UNK         0.0970 
    116 H116       19.5197  -32.8435  -43.6472 H         1 UNK         0.0612 
    117 H117       17.8098  -32.7772  -43.2855 H         1 UNK         0.0612 
@<TRIPOS>BOND
     1    1    2 1    
     2    1   62 1    
     3    1   63 1    
     4    1   64 1    
     5    2    3 2    
     6    2    4 am   BACKBONE|DICT|INTERRES
     7    4    5 1    
     8    4   65 1    
     9    5    6 1    
    10    5   25 1    
    11    5   66 1    
    12    6    7 1    
    13    6   67 1    
    14    6   68 1    
    15    7    8 1    
    16    8    9 1    
    17    8   69 1    
    18    8   70 1    
    19    9   10 ar   
    20    9   14 ar   
    21   10   11 ar   
    22   10   71 1    
    23   11   12 ar   
    24   11   61 1    
    25   12   13 ar   
    26   12   72 1    
    27   13   14 ar   
    28   13   15 1    
    29   14   73 1    
    30   15   16 1    
    31   15   74 1    
    32   15   75 1    
    33   16   17 1    
    34   17   18 1    
    35   17   76 1    
    36   17   77 1    
    37   18   19 1    
    38   18   27 1    
    39   18   78 1    
    40   19   20 am   BACKBONE|DICT|INTERRES
    41   19   79 1    
    42   20   21 2    
    43   20   22 1    
    44   22   23 1    
    45   22   24 1    
    46   22   80 1    
    47   23   81 1    
    48   23   82 1    
    49   23   83 1    
    50   24   25 am   BACKBONE|DICT|INTERRES
    51   24   84 1    
    52   25   26 2    
    53   27   28 2    
    54   27   29 am   BACKBONE|DICT|INTERRES
    55   29   30 1    
    56   29   85 1    
    57   30   31 1    
    58   30   32 1    
    59   30   86 1    
    60   31   87 1    
    61   31   88 1    
    62   31   89 1    
    63   32   33 2    
    64   32   34 am   BACKBONE|DICT|INTERRES
    65   34   35 1    
    66   34   90 1    
    67   35   36 1    
    68   35   37 1    
    69   35   91 1    
    70   36   92 1    
    71   36   93 1    
    72   36   94 1    
    73   37   38 2    
    74   37   39 am   BACKBONE|DICT|INTERRES
    75   39   40 1    
    76   39   95 1    
    77   40   41 1    
    78   40   42 1    
    79   40   96 1    
    80   41   97 1    
    81   41   98 1    
    82   41   99 1    
    83   42   43 2    
    84   42   44 am   BACKBONE|DICT|INTERRES
    85   44   45 1    
    86   44  100 1    
    87   45   46 1    
    88   45   47 1    
    89   45  101 1    
    90   46  102 1    
    91   46  103 1    
    92   46  104 1    
    93   47   48 2    
    94   47   49 am   BACKBONE|DICT|INTERRES
    95   49   50 1    
    96   49  105 1    
    97   50   51 1    
    98   50   52 1    
    99   50  106 1    
   100   51  107 1    
   101   51  108 1    
   102   51  109 1    
   103   52   53 2    
   104   52   54 am   BACKBONE|DICT|INTERRES
   105   54   55 1    
   106   54  110 1    
   107   55   56 1    
   108   55   59 1    
   109   55  111 1    
   110   56   57 am   BACKBONE|DICT|INTERRES
   111   56   58 2    
   112   57  112 1    
   113   57  113 1    
   114   59   60 1    
   115   59  114 1    
   116   59  115 1    
   117   60   61 1    
   118   61  116 1    
   119   61  117 1    
@<TRIPOS>SUBSTRUCTURE
     1 UNK         1 GROUP             0       ****    0 ROOT    
