@<TRIPOS>MOLECULE
3R8
117   119    1
SMALL
USER_CHARGES


@<TRIPOS>ATOM
      1 CA         21.6726  -25.0838  -50.1825 C.3       0 UNK        -0.2013 
      2 C          21.9141  -25.8223  -48.8744 C.2       0 UNK         0.4866 
      3 O          22.8041  -26.6704  -48.8049 O.2       0 UNK        -0.5176 
      4 N          21.1329  -25.5047  -47.8391 N.am      1 UNK        -0.4884 
      5 CA         21.2081  -26.0965  -46.5046 C.3       1 UNK         0.0853 
      6 C6         20.5857  -27.5227  -46.4280 C.3       10 UNK        -0.0849 
      7 S7         18.8642  -27.6405  -47.0311 S.3       10 UNK        -0.2776 
      8 C8         18.5052  -29.4106  -46.7792 C.3       10 UNK         0.0316 
      9 C9         18.1319  -29.7418  -45.3382 C.ar      10 UNK        -0.0863 
     10 C10        18.9162  -30.6201  -44.5826 C.ar      10 UNK        -0.1009 
     11 C11        18.5459  -30.9635  -43.2774 C.ar      10 UNK        -0.0712 
     12 C12        17.3699  -30.4369  -42.7362 C.ar      10 UNK        -0.0894 
     13 C13        16.5937  -29.5349  -43.4688 C.ar      10 UNK        -0.0745 
     14 C14        16.9734  -29.2003  -44.7720 C.ar      10 UNK        -0.0972 
     15 C15        15.3557  -28.9054  -42.8482 C.3       10 UNK         0.0209 
     16 S16        15.6958  -27.2181  -42.2487 S.3       10 UNK        -0.2568 
     17 C17        16.7106  -27.5268  -40.7609 C.3       10 UNK        -0.0983 
     18 CA         18.2342  -27.5017  -41.0434 C.3       3 UNK         0.0876 
     19 N          18.6711  -26.2701  -41.7058 N.am      3 UNK        -0.4424 
     20 C          19.9041  -26.0584  -42.1787 C.2       2 UNK         0.4918 
     21 O          20.8679  -26.8045  -41.9791 O.2       2 UNK        -0.4875 
     22 CA         20.0976  -24.8395  -43.0803 C.3       2 UNK         0.0481 
     23 CB         20.8679  -23.7213  -42.3605 C.3       2 UNK        -0.1831 
     24 N          20.8570  -25.3387  -44.2197 N.am      2 UNK        -0.4498 
     25 C          20.5528  -25.1320  -45.5025 C.2       1 UNK         0.5027 
     26 O          19.7681  -24.2643  -45.8990 O.2       1 UNK        -0.4969 
     27 C          19.0504  -27.7860  -39.7693 C.2       3 UNK         0.5005 
     28 O          18.9584  -27.0189  -38.8089 O.2       3 UNK        -0.5279 
     29 N          19.8874  -28.8342  -39.8224 N.am      4 UNK        -0.4463 
     30 CA         20.8879  -29.2743  -38.8361 C.3       4 UNK         0.0283 
     31 CB         20.2381  -29.6161  -37.4814 C.3       4 UNK        -0.1875 
     32 C          22.0797  -28.3116  -38.6525 C.2       4 UNK         0.4949 
     33 O          23.1898  -28.7743  -38.3917 O.2       4 UNK        -0.5039 
     34 N          21.8431  -27.0018  -38.7898 N.am      5 UNK        -0.4663 
     35 CA         22.8304  -25.9320  -38.6482 C.3       5 UNK         0.0242 
     36 CB         22.0974  -24.5829  -38.5749 C.3       5 UNK        -0.1982 
     37 C          23.8947  -25.9087  -39.7583 C.2       5 UNK         0.5017 
     38 O          25.0267  -25.5092  -39.4819 O.2       5 UNK        -0.5012 
     39 N          23.5303  -26.3231  -40.9795 N.am      6 UNK        -0.4439 
     40 CA         24.4228  -26.3555  -42.1393 C.3       6 UNK         0.0297 
     41 CB         24.4654  -24.9785  -42.8338 C.3       6 UNK        -0.2006 
     42 C          24.0492  -27.5003  -43.0916 C.2       6 UNK         0.4892 
     43 O          24.0193  -27.2980  -44.3067 O.2       6 UNK        -0.5089 
     44 N          23.7822  -28.6834  -42.5267 N.am      7 UNK        -0.4243 
     45 CA         23.5887  -29.9404  -43.2452 C.3       7 UNK         0.0196 
     46 CB         22.2838  -29.9367  -44.0565 C.3       7 UNK        -0.2007 
     47 C          23.6048  -31.0895  -42.2356 C.2       7 UNK         0.5020 
     48 O          22.9515  -30.9946  -41.1954 O.2       7 UNK        -0.5147 
     49 N          24.3404  -32.1567  -42.5604 N.am      8 UNK        -0.4734 
     50 CA         24.5407  -33.3233  -41.7016 C.3       8 UNK         0.0238 
     51 CB         25.9865  -33.8262  -41.8808 C.3       8 UNK        -0.1912 
     52 C          23.4976  -34.4139  -41.9980 C.2       8 UNK         0.5038 
     53 O          23.8457  -35.4637  -42.5433 O.2       8 UNK        -0.5046 
     54 N          22.2355  -34.1471  -41.6396 N.am      9 UNK        -0.4200 
     55 CA         21.1583  -35.1509  -41.6252 C.3       9 UNK         0.0839 
     56 C          21.4025  -36.2409  -40.5440 C.2       9 UNK         0.5513 
     57 N          21.0178  -37.4803  -40.8153 N.am      9 UNK        -0.7519 
     58 O          21.8949  -35.9640  -39.4518 O.2       9 UNK        -0.4960 
     59 C59        19.7645  -34.5023  -41.4284 C.3       10 UNK        -0.0876 
     60 S60        19.1770  -33.6248  -42.9154 S.3       10 UNK        -0.2414 
     61 C61        19.4153  -31.8897  -42.4395 C.3       10 UNK         0.0169 
     62 H62        20.8561  -24.3663  -50.1007 H         1 UNK         0.0903 
     63 H63        22.5707  -24.5433  -50.4802 H         1 UNK         0.0903 
     64 H64        21.4230  -25.7920  -50.9721 H         1 UNK         0.0903 
     65 H65        20.4268  -24.7821  -47.9176 H         1 UNK         0.3096 
     66 H66        22.2639  -26.1655  -46.2296 H         1 UNK         0.1121 
     67 H67        20.6088  -27.8947  -45.4027 H         1 UNK         0.0849 
     68 H68        21.1974  -28.2145  -47.0089 H         1 UNK         0.0849 
     69 H69        17.6715  -29.6900  -47.4250 H         1 UNK         0.0865 
     70 H70        19.3566  -30.0060  -47.1129 H         1 UNK         0.0865 
     71 H71        19.8079  -31.0510  -45.0145 H         1 UNK         0.1346 
     72 H72        17.0751  -30.7026  -41.7301 H         1 UNK         0.1412 
     73 H73        16.3695  -28.5101  -45.3458 H         1 UNK         0.1426 
     74 H74        14.9714  -29.5185  -42.0315 H         1 UNK         0.0716 
     75 H75        14.5604  -28.8597  -43.5937 H         1 UNK         0.0716 
     76 H76        16.4168  -28.4825  -40.3229 H         1 UNK         0.0695 
     77 H77        16.4512  -26.7655  -40.0225 H         1 UNK         0.0695 
     78 H78        18.4550  -28.2959  -41.7538 H         1 UNK         0.0983 
     79 H79        17.9412  -25.6042  -41.9127 H         1 UNK         0.3095 
     80 H80        19.1235  -24.4640  -43.4015 H         1 UNK         0.0454 
     81 H81        21.7923  -24.0823  -41.9111 H         1 UNK         0.0851 
     82 H82        20.2656  -23.2930  -41.5587 H         1 UNK         0.0851 
     83 H83        21.1211  -22.9113  -43.0443 H         1 UNK         0.0851 
     84 H84        21.4894  -26.0938  -43.9831 H         1 UNK         0.2976 
     85 H85        19.9352  -29.3345  -40.6988 H         1 UNK         0.3116 
     86 H86        21.3018  -30.2004  -39.2373 H         1 UNK         0.0646 
     87 H87        19.8281  -28.7341  -36.9889 H         1 UNK         0.0847 
     88 H88        20.9703  -30.0525  -36.8008 H         1 UNK         0.0847 
     89 H89        19.4329  -30.3412  -37.5987 H         1 UNK         0.0847 
     90 H90        20.8784  -26.7257  -38.9452 H         1 UNK         0.3040 
     91 H91        23.3554  -26.0873  -37.7030 H         1 UNK         0.1015 
     92 H92        21.4983  -24.4004  -39.4670 H         1 UNK         0.0786 
     93 H93        22.8034  -23.7567  -38.4785 H         1 UNK         0.0786 
     94 H94        21.4319  -24.5413  -37.7124 H         1 UNK         0.0786 
     95 H95        22.5724  -26.6301  -41.1412 H         1 UNK         0.3172 
     96 H96        25.4337  -26.5845  -41.7954 H         1 UNK         0.0595 
     97 H97        23.5167  -24.7340  -43.3091 H         1 UNK         0.0839 
     98 H98        25.2271  -24.9630  -43.6143 H         1 UNK         0.0839 
     99 H99        24.7088  -24.1804  -42.1326 H         1 UNK         0.0839 
    100 H100       23.8013  -28.7702  -41.5180 H         1 UNK         0.2998 
    101 H101       24.4281  -30.0706  -43.9319 H         1 UNK         0.0822 
    102 H102       22.3757  -29.3018  -44.9357 H         1 UNK         0.0787 
    103 H103       22.0455  -30.9384  -44.4152 H         1 UNK         0.0787 
    104 H104       21.4425  -29.5780  -43.4626 H         1 UNK         0.0787 
    105 H105       24.8024  -32.1790  -43.4590 H         1 UNK         0.3055 
    106 H106       24.4224  -33.0385  -40.6529 H         1 UNK         0.1106 
    107 H107       26.1910  -34.1218  -42.9107 H         1 UNK         0.0828 
    108 H108       26.1789  -34.6940  -41.2482 H         1 UNK         0.0828 
    109 H109       26.7097  -33.0594  -41.6027 H         1 UNK         0.0828 
    110 H110       22.0358  -33.2559  -41.2077 H         1 UNK         0.2931 
    111 H111       21.1646  -35.6483  -42.5978 H         1 UNK         0.0412 
    112 H112       21.1527  -38.1995  -40.1213 H         1 UNK         0.3472 
    113 H113       20.6045  -37.7148  -41.7050 H         1 UNK         0.3472 
    114 H114       19.0150  -35.2678  -41.2166 H         1 UNK         0.0970 
    115 H115       19.7609  -33.8434  -40.5585 H         1 UNK         0.0970 
    116 H116       19.1803  -31.7609  -41.3820 H         1 UNK         0.0612 
    117 H117       20.4672  -31.6300  -42.5538 H         1 UNK         0.0612 
@<TRIPOS>BOND
     1    1    2 1    
     2    1   62 1    
     3    1   63 1    
     4    1   64 1    
     5    2    3 2    
     6    2    4 am   BACKBONE|DICT|INTERRES
     7    4    5 1    
     8    4   65 1    
     9    5    6 1    
    10    5   25 1    
    11    5   66 1    
    12    6    7 1    
    13    6   67 1    
    14    6   68 1    
    15    7    8 1    
    16    8    9 1    
    17    8   69 1    
    18    8   70 1    
    19    9   10 ar   
    20    9   14 ar   
    21   10   11 ar   
    22   10   71 1    
    23   11   12 ar   
    24   11   61 1    
    25   12   13 ar   
    26   12   72 1    
    27   13   14 ar   
    28   13   15 1    
    29   14   73 1    
    30   15   16 1    
    31   15   74 1    
    32   15   75 1    
    33   16   17 1    
    34   17   18 1    
    35   17   76 1    
    36   17   77 1    
    37   18   19 1    
    38   18   27 1    
    39   18   78 1    
    40   19   20 am   BACKBONE|DICT|INTERRES
    41   19   79 1    
    42   20   21 2    
    43   20   22 1    
    44   22   23 1    
    45   22   24 1    
    46   22   80 1    
    47   23   81 1    
    48   23   82 1    
    49   23   83 1    
    50   24   25 am   BACKBONE|DICT|INTERRES
    51   24   84 1    
    52   25   26 2    
    53   27   28 2    
    54   27   29 am   BACKBONE|DICT|INTERRES
    55   29   30 1    
    56   29   85 1    
    57   30   31 1    
    58   30   32 1    
    59   30   86 1    
    60   31   87 1    
    61   31   88 1    
    62   31   89 1    
    63   32   33 2    
    64   32   34 am   BACKBONE|DICT|INTERRES
    65   34   35 1    
    66   34   90 1    
    67   35   36 1    
    68   35   37 1    
    69   35   91 1    
    70   36   92 1    
    71   36   93 1    
    72   36   94 1    
    73   37   38 2    
    74   37   39 am   BACKBONE|DICT|INTERRES
    75   39   40 1    
    76   39   95 1    
    77   40   41 1    
    78   40   42 1    
    79   40   96 1    
    80   41   97 1    
    81   41   98 1    
    82   41   99 1    
    83   42   43 2    
    84   42   44 am   BACKBONE|DICT|INTERRES
    85   44   45 1    
    86   44  100 1    
    87   45   46 1    
    88   45   47 1    
    89   45  101 1    
    90   46  102 1    
    91   46  103 1    
    92   46  104 1    
    93   47   48 2    
    94   47   49 am   BACKBONE|DICT|INTERRES
    95   49   50 1    
    96   49  105 1    
    97   50   51 1    
    98   50   52 1    
    99   50  106 1    
   100   51  107 1    
   101   51  108 1    
   102   51  109 1    
   103   52   53 2    
   104   52   54 am   BACKBONE|DICT|INTERRES
   105   54   55 1    
   106   54  110 1    
   107   55   56 1    
   108   55   59 1    
   109   55  111 1    
   110   56   57 am   BACKBONE|DICT|INTERRES
   111   56   58 2    
   112   57  112 1    
   113   57  113 1    
   114   59   60 1    
   115   59  114 1    
   116   59  115 1    
   117   60   61 1    
   118   61  116 1    
   119   61  117 1    
@<TRIPOS>SUBSTRUCTURE
     1 UNK         1 GROUP             0       ****    0 ROOT    
