@<TRIPOS>MOLECULE
3R8
117   119    1
SMALL
USER_CHARGES


@<TRIPOS>ATOM
      1 CA         15.9825  -23.4726  -41.0440 C.3       0 UNK        -0.2013 
      2 C          16.4029  -23.5593  -42.5036 C.2       0 UNK         0.4866 
      3 O          16.4821  -22.5337  -43.1809 O.2       0 UNK        -0.5176 
      4 N          16.6632  -24.7766  -42.9954 N.am      1 UNK        -0.4884 
      5 CA         17.1299  -25.0463  -44.3594 C.3       1 UNK         0.0853 
      6 C6         17.0589  -26.5571  -44.7053 C.3       10 UNK        -0.0849 
      7 S7         15.4064  -27.3036  -44.5125 S.3       10 UNK        -0.2776 
      8 C8         15.7192  -28.5964  -43.2515 C.3       10 UNK         0.0316 
      9 C9         16.7453  -29.6734  -43.6260 C.ar      10 UNK        -0.0863 
     10 C10        17.3370  -30.4193  -42.5991 C.ar      10 UNK        -0.1009 
     11 C11        18.2751  -31.4169  -42.8826 C.ar      10 UNK        -0.0712 
     12 C12        18.6220  -31.6731  -44.2104 C.ar      10 UNK        -0.0894 
     13 C13        18.0582  -30.9296  -45.2478 C.ar      10 UNK        -0.0745 
     14 C14        17.1040  -29.9499  -44.9530 C.ar      10 UNK        -0.0972 
     15 C15        18.4884  -31.1914  -46.6847 C.3       10 UNK         0.0209 
     16 S16        20.1366  -30.4927  -47.0410 S.3       10 UNK        -0.2568 
     17 C17        19.7834  -28.7024  -47.0030 C.3       10 UNK        -0.0983 
     18 CA         20.8714  -27.7961  -46.3683 C.3       3 UNK         0.0876 
     19 N          20.4291  -26.4031  -46.4613 N.am      3 UNK        -0.4424 
     20 C          21.1463  -25.3006  -46.2066 C.2       2 UNK         0.4918 
     21 O          22.3508  -25.3002  -45.9568 O.2       2 UNK        -0.4875 
     22 CA         20.3503  -23.9776  -46.1877 C.3       2 UNK         0.0481 
     23 CB         20.3949  -23.3011  -47.5667 C.3       2 UNK        -0.1831 
     24 N          18.9492  -24.1714  -45.7763 N.am      2 UNK        -0.4498 
     25 C          18.5858  -24.5716  -44.5479 C.2       1 UNK         0.5027 
     26 O          19.3843  -24.6915  -43.6172 O.2       1 UNK        -0.4969 
     27 C          21.2448  -28.1998  -44.9183 C.2       3 UNK         0.5005 
     28 O          22.1428  -29.0232  -44.7311 O.2       3 UNK        -0.5279 
     29 N          20.6138  -27.5757  -43.9103 N.am      4 UNK        -0.4463 
     30 CA         20.8861  -27.7863  -42.4858 C.3       4 UNK         0.0283 
     31 CB         19.6085  -27.5192  -41.6690 C.3       4 UNK        -0.1875 
     32 C          22.0800  -26.9344  -42.0168 C.2       4 UNK         0.4949 
     33 O          21.9565  -26.1527  -41.0730 O.2       4 UNK        -0.5039 
     34 N          23.2230  -27.0963  -42.6960 N.am      5 UNK        -0.4663 
     35 CA         24.4817  -26.3977  -42.4109 C.3       5 UNK         0.0242 
     36 CB         25.4321  -26.5794  -43.6051 C.3       5 UNK        -0.1982 
     37 C          25.1559  -26.8592  -41.1048 C.2       5 UNK         0.5017 
     38 O          25.9661  -26.1196  -40.5453 O.2       5 UNK        -0.5012 
     39 N          24.8032  -28.0627  -40.6457 N.am      6 UNK        -0.4439 
     40 CA         25.1976  -28.6779  -39.3867 C.3       6 UNK         0.0297 
     41 CB         26.5643  -29.3693  -39.5461 C.3       6 UNK        -0.2006 
     42 C          24.1042  -29.6857  -39.0152 C.2       6 UNK         0.4892 
     43 O          23.3108  -30.0674  -39.8791 O.2       6 UNK        -0.5089 
     44 N          24.1039  -30.1351  -37.7535 N.am      7 UNK        -0.4243 
     45 CA         23.1621  -31.1294  -37.2180 C.3       7 UNK         0.0196 
     46 CB         23.3332  -31.2094  -35.6920 C.3       7 UNK        -0.2007 
     47 C          23.2890  -32.5318  -37.8484 C.2       7 UNK         0.5020 
     48 O          22.3685  -33.3381  -37.7201 O.2       7 UNK        -0.5147 
     49 N          24.4136  -32.7952  -38.5260 N.am      8 UNK        -0.4734 
     50 CA         24.7042  -34.0261  -39.2646 C.3       8 UNK         0.0238 
     51 CB         26.2321  -34.2150  -39.3089 C.3       8 UNK        -0.1912 
     52 C          24.0939  -34.0620  -40.6833 C.2       8 UNK         0.5038 
     53 O          24.4555  -34.9514  -41.4560 O.2       8 UNK        -0.5046 
     54 N          23.2164  -33.1044  -41.0200 N.am      9 UNK        -0.4200 
     55 CA         22.4984  -33.0075  -42.3007 C.3       9 UNK         0.0839 
     56 C          21.6737  -34.2701  -42.6840 C.2       9 UNK         0.5513 
     57 N          21.4486  -34.4886  -43.9731 N.am      9 UNK        -0.7519 
     58 O          21.2074  -35.0275  -41.8350 O.2       9 UNK        -0.4960 
     59 C59        21.6470  -31.7107  -42.3840 C.3       10 UNK        -0.0876 
     60 S60        20.3974  -31.5021  -41.0587 S.3       10 UNK        -0.2414 
     61 C61        18.8856  -32.2449  -41.7605 C.3       10 UNK         0.0169 
     62 H62        15.9424  -24.4540  -40.5715 H         1 UNK         0.0903 
     63 H63        16.6883  -22.8571  -40.4869 H         1 UNK         0.0903 
     64 H64        14.9956  -23.0175  -40.9640 H         1 UNK         0.0903 
     65 H65        16.5846  -25.5828  -42.3938 H         1 UNK         0.3096 
     66 H66        16.4892  -24.4938  -45.0507 H         1 UNK         0.1121 
     67 H67        17.3525  -26.7191  -45.7435 H         1 UNK         0.0849 
     68 H68        17.7707  -27.1202  -44.1002 H         1 UNK         0.0849 
     69 H69        16.0294  -28.1028  -42.3292 H         1 UNK         0.0865 
     70 H70        14.7729  -29.0908  -43.0285 H         1 UNK         0.0865 
     71 H71        17.0656  -30.2257  -41.5701 H         1 UNK         0.1346 
     72 H72        19.3394  -32.4483  -44.4411 H         1 UNK         0.1412 
     73 H73        16.6529  -29.3974  -45.7646 H         1 UNK         0.1426 
     74 H74        17.7616  -30.7843  -47.3895 H         1 UNK         0.0716 
     75 H75        18.5160  -32.2674  -46.8630 H         1 UNK         0.0716 
     76 H76        18.8353  -28.5373  -46.4941 H         1 UNK         0.0695 
     77 H77        19.6151  -28.3951  -48.0365 H         1 UNK         0.0695 
     78 H78        21.7820  -27.8898  -46.9641 H         1 UNK         0.0983 
     79 H79        19.4624  -26.2707  -46.7136 H         1 UNK         0.3095 
     80 H80        20.8289  -23.3121  -45.4660 H         1 UNK         0.0454 
     81 H81        21.4250  -23.1263  -47.8808 H         1 UNK         0.0851 
     82 H82        19.8957  -22.3322  -47.5499 H         1 UNK         0.0851 
     83 H83        19.9199  -23.9114  -48.3357 H         1 UNK         0.0851 
     84 H84        18.2454  -24.0728  -46.4951 H         1 UNK         0.2976 
     85 H85        19.9971  -26.8057  -44.1259 H         1 UNK         0.3116 
     86 H86        21.1540  -28.8308  -42.3273 H         1 UNK         0.0646 
     87 H87        18.7796  -28.1304  -42.0194 H         1 UNK         0.0847 
     88 H88        19.3016  -26.4746  -41.7154 H         1 UNK         0.0847 
     89 H89        19.7654  -27.7648  -40.6180 H         1 UNK         0.0847 
     90 H90        23.2197  -27.7569  -43.4665 H         1 UNK         0.3040 
     91 H91        24.2620  -25.3331  -42.3037 H         1 UNK         0.1015 
     92 H92        26.3698  -26.0460  -43.4432 H         1 UNK         0.0786 
     93 H93        24.9923  -26.1885  -44.5234 H         1 UNK         0.0786 
     94 H94        25.6774  -27.6295  -43.7698 H         1 UNK         0.0786 
     95 H95        24.0854  -28.5818  -41.1379 H         1 UNK         0.3172 
     96 H96        25.2500  -27.9139  -38.6082 H         1 UNK         0.0595 
     97 H97        26.5336  -30.1516  -40.3059 H         1 UNK         0.0839 
     98 H98        26.8864  -29.8308  -38.6120 H         1 UNK         0.0839 
     99 H99        27.3375  -28.6568  -39.8340 H         1 UNK         0.0839 
    100 H100       24.7945  -29.7757  -37.1094 H         1 UNK         0.2998 
    101 H101       22.1508  -30.7762  -37.4320 H         1 UNK         0.0822 
    102 H102       23.1557  -30.2426  -35.2205 H         1 UNK         0.0787 
    103 H103       22.6243  -31.9144  -35.2553 H         1 UNK         0.0787 
    104 H104       24.3347  -31.5414  -35.4152 H         1 UNK         0.0787 
    105 H105       25.1067  -32.0636  -38.5826 H         1 UNK         0.3055 
    106 H106       24.2746  -34.8702  -38.7202 H         1 UNK         0.1106 
    107 H107       26.6606  -34.2249  -38.3066 H         1 UNK         0.0828 
    108 H108       26.4995  -35.1629  -39.7781 H         1 UNK         0.0828 
    109 H109       26.7203  -33.4217  -39.8763 H         1 UNK         0.0828 
    110 H110       22.9788  -32.4007  -40.3341 H         1 UNK         0.2931 
    111 H111       23.2813  -32.9174  -43.0566 H         1 UNK         0.0412 
    112 H112       21.8321  -33.8826  -44.6815 H         1 UNK         0.3472 
    113 H113       20.9101  -35.2965  -44.2445 H         1 UNK         0.3472 
    114 H114       22.3232  -30.8578  -42.3172 H         1 UNK         0.0970 
    115 H115       21.1841  -31.6079  -43.3642 H         1 UNK         0.0970 
    116 H116       19.0908  -33.2566  -42.1086 H         1 UNK         0.0612 
    117 H117       18.1571  -32.3542  -40.9560 H         1 UNK         0.0612 
@<TRIPOS>BOND
     1    1    2 1    
     2    1   62 1    
     3    1   63 1    
     4    1   64 1    
     5    2    3 2    
     6    2    4 am   BACKBONE|DICT|INTERRES
     7    4    5 1    
     8    4   65 1    
     9    5    6 1    
    10    5   25 1    
    11    5   66 1    
    12    6    7 1    
    13    6   67 1    
    14    6   68 1    
    15    7    8 1    
    16    8    9 1    
    17    8   69 1    
    18    8   70 1    
    19    9   10 ar   
    20    9   14 ar   
    21   10   11 ar   
    22   10   71 1    
    23   11   12 ar   
    24   11   61 1    
    25   12   13 ar   
    26   12   72 1    
    27   13   14 ar   
    28   13   15 1    
    29   14   73 1    
    30   15   16 1    
    31   15   74 1    
    32   15   75 1    
    33   16   17 1    
    34   17   18 1    
    35   17   76 1    
    36   17   77 1    
    37   18   19 1    
    38   18   27 1    
    39   18   78 1    
    40   19   20 am   BACKBONE|DICT|INTERRES
    41   19   79 1    
    42   20   21 2    
    43   20   22 1    
    44   22   23 1    
    45   22   24 1    
    46   22   80 1    
    47   23   81 1    
    48   23   82 1    
    49   23   83 1    
    50   24   25 am   BACKBONE|DICT|INTERRES
    51   24   84 1    
    52   25   26 2    
    53   27   28 2    
    54   27   29 am   BACKBONE|DICT|INTERRES
    55   29   30 1    
    56   29   85 1    
    57   30   31 1    
    58   30   32 1    
    59   30   86 1    
    60   31   87 1    
    61   31   88 1    
    62   31   89 1    
    63   32   33 2    
    64   32   34 am   BACKBONE|DICT|INTERRES
    65   34   35 1    
    66   34   90 1    
    67   35   36 1    
    68   35   37 1    
    69   35   91 1    
    70   36   92 1    
    71   36   93 1    
    72   36   94 1    
    73   37   38 2    
    74   37   39 am   BACKBONE|DICT|INTERRES
    75   39   40 1    
    76   39   95 1    
    77   40   41 1    
    78   40   42 1    
    79   40   96 1    
    80   41   97 1    
    81   41   98 1    
    82   41   99 1    
    83   42   43 2    
    84   42   44 am   BACKBONE|DICT|INTERRES
    85   44   45 1    
    86   44  100 1    
    87   45   46 1    
    88   45   47 1    
    89   45  101 1    
    90   46  102 1    
    91   46  103 1    
    92   46  104 1    
    93   47   48 2    
    94   47   49 am   BACKBONE|DICT|INTERRES
    95   49   50 1    
    96   49  105 1    
    97   50   51 1    
    98   50   52 1    
    99   50  106 1    
   100   51  107 1    
   101   51  108 1    
   102   51  109 1    
   103   52   53 2    
   104   52   54 am   BACKBONE|DICT|INTERRES
   105   54   55 1    
   106   54  110 1    
   107   55   56 1    
   108   55   59 1    
   109   55  111 1    
   110   56   57 am   BACKBONE|DICT|INTERRES
   111   56   58 2    
   112   57  112 1    
   113   57  113 1    
   114   59   60 1    
   115   59  114 1    
   116   59  115 1    
   117   60   61 1    
   118   61  116 1    
   119   61  117 1    
@<TRIPOS>SUBSTRUCTURE
     1 UNK         1 GROUP             0       ****    0 ROOT    
