@<TRIPOS>MOLECULE
3R8
117   119    1
SMALL
USER_CHARGES


@<TRIPOS>ATOM
      1 CA         14.2813  -22.3372  -43.4485 C.3       0 UNK        -0.2013 
      2 C          15.1221  -22.9487  -44.5589 C.2       0 UNK         0.4866 
      3 O          15.7395  -22.2178  -45.3336 O.2       0 UNK        -0.5176 
      4 N          15.1533  -24.2850  -44.6419 N.am      1 UNK        -0.4884 
      5 CA         15.9161  -25.0506  -45.6383 C.3       1 UNK         0.0853 
      6 C6         15.3062  -26.4556  -45.8765 C.3       10 UNK        -0.0849 
      7 S7         15.0573  -27.4436  -44.3585 S.3       10 UNK        -0.2776 
      8 C8         15.0507  -29.1375  -45.0298 C.3       10 UNK         0.0316 
      9 C9         16.4258  -29.7823  -44.9371 C.ar      10 UNK        -0.0863 
     10 C10        16.7449  -30.5908  -43.8402 C.ar      10 UNK        -0.1009 
     11 C11        18.0078  -31.1815  -43.7372 C.ar      10 UNK        -0.0712 
     12 C12        18.9450  -30.9747  -44.7509 C.ar      10 UNK        -0.0894 
     13 C13        18.6517  -30.1420  -45.8348 C.ar      10 UNK        -0.0745 
     14 C14        17.3837  -29.5629  -45.9329 C.ar      10 UNK        -0.0972 
     15 C15        19.7252  -29.8313  -46.8697 C.3       10 UNK         0.0209 
     16 S16        20.5787  -28.2556  -46.5154 S.3       10 UNK        -0.2568 
     17 C17        21.2831  -28.5962  -44.8673 C.3       10 UNK        -0.0983 
     18 CA         21.9543  -27.3837  -44.1765 C.3       3 UNK         0.0876 
     19 N          21.1078  -26.1771  -44.1111 N.am      3 UNK        -0.4424 
     20 C          19.8884  -26.0338  -43.5695 C.2       2 UNK         0.4918 
     21 O          19.3021  -26.9281  -42.9583 O.2       2 UNK        -0.4875 
     22 CA         19.2305  -24.6413  -43.6463 C.3       2 UNK         0.0481 
     23 CB         20.0431  -23.5836  -44.4294 C.3       2 UNK        -0.1831 
     24 N          17.8501  -24.7142  -44.1363 N.am      2 UNK        -0.4498 
     25 C          17.4351  -25.1058  -45.3522 C.2       1 UNK         0.5027 
     26 O          18.1938  -25.4671  -46.2525 O.2       1 UNK        -0.4969 
     27 C          22.5235  -27.8315  -42.8103 C.2       3 UNK         0.5005 
     28 O          23.6663  -28.2874  -42.7547 O.2       3 UNK        -0.5279 
     29 N          21.7348  -27.7046  -41.7337 N.am      4 UNK        -0.4463 
     30 CA         22.0303  -28.1435  -40.3637 C.3       4 UNK         0.0283 
     31 CB         20.8349  -27.8062  -39.4597 C.3       4 UNK        -0.1875 
     32 C          23.3314  -27.5808  -39.7634 C.2       4 UNK         0.4949 
     33 O          23.9202  -28.2276  -38.8983 O.2       4 UNK        -0.5039 
     34 N          23.7942  -26.4275  -40.2662 N.am      5 UNK        -0.4663 
     35 CA         25.0976  -25.8318  -39.9525 C.3       5 UNK         0.0242 
     36 CB         25.1886  -24.4479  -40.6151 C.3       5 UNK        -0.1982 
     37 C          26.2990  -26.7069  -40.3661 C.2       5 UNK         0.5017 
     38 O          27.3627  -26.5850  -39.7585 O.2       5 UNK        -0.5012 
     39 N          26.1058  -27.5855  -41.3612 N.am      6 UNK        -0.4439 
     40 CA         27.0750  -28.5903  -41.8053 C.3       6 UNK         0.0297 
     41 CB         27.0114  -28.6933  -43.3402 C.3       6 UNK        -0.2006 
     42 C          26.8384  -29.9652  -41.1452 C.2       6 UNK         0.4892 
     43 O          27.4428  -30.9444  -41.5842 O.2       6 UNK        -0.5089 
     44 N          25.9668  -30.0252  -40.1237 N.am      7 UNK        -0.4243 
     45 CA         25.5307  -31.2184  -39.3857 C.3       7 UNK         0.0196 
     46 CB         26.7062  -31.8696  -38.6250 C.3       7 UNK        -0.2007 
     47 C          24.7432  -32.2172  -40.2569 C.2       7 UNK         0.5020 
     48 O          24.8323  -33.4281  -40.0423 O.2       7 UNK        -0.5147 
     49 N          23.9771  -31.6955  -41.2255 N.am      8 UNK        -0.4734 
     50 CA         23.1021  -32.4772  -42.1015 C.3       8 UNK         0.0238 
     51 CB         22.5866  -31.5733  -43.2292 C.3       8 UNK        -0.1912 
     52 C          21.9221  -33.1020  -41.3360 C.2       8 UNK         0.5038 
     53 O          21.4470  -32.5174  -40.3593 O.2       8 UNK        -0.5046 
     54 N          21.4668  -34.2650  -41.8184 N.am      9 UNK        -0.4200 
     55 CA         20.3907  -35.0942  -41.2421 C.3       9 UNK         0.0839 
     56 C          20.7411  -35.7611  -39.8753 C.2       9 UNK         0.5513 
     57 N          21.9873  -35.7352  -39.4170 N.am      9 UNK        -0.7519 
     58 O          19.8740  -36.3467  -39.2315 O.2       9 UNK        -0.4960 
     59 C59        18.9992  -34.3940  -41.2143 C.3       10 UNK        -0.0876 
     60 S60        18.4615  -33.7700  -42.8453 S.3       10 UNK        -0.2414 
     61 C61        18.3902  -31.9860  -42.5045 C.3       10 UNK         0.0169 
     62 H62        13.5099  -21.6950  -43.8728 H         1 UNK         0.0903 
     63 H63        13.7918  -23.0981  -42.8407 H         1 UNK         0.0903 
     64 H64        14.9071  -21.7311  -42.7940 H         1 UNK         0.0903 
     65 H65        14.6283  -24.8454  -43.9836 H         1 UNK         0.3096 
     66 H66        15.8318  -24.5144  -46.5868 H         1 UNK         0.1121 
     67 H67        15.9124  -27.0142  -46.5904 H         1 UNK         0.0849 
     68 H68        14.3314  -26.3440  -46.3541 H         1 UNK         0.0849 
     69 H69        14.3255  -29.7300  -44.4696 H         1 UNK         0.0865 
     70 H70        14.6988  -29.1372  -46.0627 H         1 UNK         0.0865 
     71 H71        16.0161  -30.7432  -43.0558 H         1 UNK         0.1346 
     72 H72        19.9248  -31.4218  -44.6679 H         1 UNK         0.1412 
     73 H73        17.1571  -28.9213  -46.7724 H         1 UNK         0.1426 
     74 H74        19.2752  -29.7753  -47.8619 H         1 UNK         0.0716 
     75 H75        20.4600  -30.6368  -46.9123 H         1 UNK         0.0716 
     76 H76        21.9991  -29.4106  -44.9859 H         1 UNK         0.0695 
     77 H77        20.4911  -28.9676  -44.2193 H         1 UNK         0.0695 
     78 H78        22.8162  -27.1007  -44.7831 H         1 UNK         0.0983 
     79 H79        21.5013  -25.3673  -44.5679 H         1 UNK         0.3095 
     80 H80        19.1598  -24.2913  -42.6155 H         1 UNK         0.0454 
     81 H81        20.2059  -23.8710  -45.4689 H         1 UNK         0.0851 
     82 H82        21.0184  -23.4123  -43.9721 H         1 UNK         0.0851 
     83 H83        19.5272  -22.6233  -44.4346 H         1 UNK         0.0851 
     84 H84        17.1339  -24.4706  -43.4673 H         1 UNK         0.2976 
     85 H85        20.7900  -27.3714  -41.9107 H         1 UNK         0.3116 
     86 H86        22.1363  -29.2300  -40.3935 H         1 UNK         0.0646 
     87 H87        19.9231  -28.2906  -39.8100 H         1 UNK         0.0847 
     88 H88        20.6506  -26.7320  -39.4187 H         1 UNK         0.0847 
     89 H89        21.0081  -28.1475  -38.4380 H         1 UNK         0.0847 
     90 H90        23.2409  -25.9661  -40.9735 H         1 UNK         0.3040 
     91 H91        25.1515  -25.7012  -38.8693 H         1 UNK         0.1015 
     92 H92        26.1370  -23.9634  -40.3782 H         1 UNK         0.0786 
     93 H93        24.3945  -23.7871  -40.2667 H         1 UNK         0.0786 
     94 H94        25.1196  -24.5149  -41.7017 H         1 UNK         0.0786 
     95 H95        25.1878  -27.6417  -41.7984 H         1 UNK         0.3172 
     96 H96        28.0842  -28.2743  -41.5338 H         1 UNK         0.0595 
     97 H97        26.0522  -29.0858  -43.6798 H         1 UNK         0.0839 
     98 H98        27.7871  -29.3585  -43.7217 H         1 UNK         0.0839 
     99 H99        27.1620  -27.7216  -43.8106 H         1 UNK         0.0839 
    100 H100       25.5133  -29.1652  -39.8349 H         1 UNK         0.2998 
    101 H101       24.8215  -30.8617  -38.6373 H         1 UNK         0.0822 
    102 H102       27.2347  -31.1400  -38.0115 H         1 UNK         0.0787 
    103 H103       26.3509  -32.6555  -37.9574 H         1 UNK         0.0787 
    104 H104       27.4280  -32.3248  -39.3037 H         1 UNK         0.0787 
    105 H105       23.9569  -30.6923  -41.3384 H         1 UNK         0.3055 
    106 H106       23.7033  -33.2773  -42.5397 H         1 UNK         0.1106 
    107 H107       21.9098  -30.8078  -42.8482 H         1 UNK         0.0828 
    108 H108       22.0412  -32.1551  -43.9725 H         1 UNK         0.0828 
    109 H109       23.4063  -31.0748  -43.7475 H         1 UNK         0.0828 
    110 H110       21.9186  -34.6622  -42.6293 H         1 UNK         0.2931 
    111 H111       20.2999  -35.9355  -41.9301 H         1 UNK         0.0412 
    112 H112       22.7135  -35.2489  -39.9204 H         1 UNK         0.3472 
    113 H113       22.1977  -36.1827  -38.5386 H         1 UNK         0.3472 
    114 H114       18.2327  -35.0944  -40.8776 H         1 UNK         0.0970 
    115 H115       18.9962  -33.5846  -40.4825 H         1 UNK         0.0970 
    116 H116       19.3618  -31.6463  -42.1434 H         1 UNK         0.0612 
    117 H117       17.6806  -31.8052  -41.6956 H         1 UNK         0.0612 
@<TRIPOS>BOND
     1    1    2 1    
     2    1   62 1    
     3    1   63 1    
     4    1   64 1    
     5    2    3 2    
     6    2    4 am   BACKBONE|DICT|INTERRES
     7    4    5 1    
     8    4   65 1    
     9    5    6 1    
    10    5   25 1    
    11    5   66 1    
    12    6    7 1    
    13    6   67 1    
    14    6   68 1    
    15    7    8 1    
    16    8    9 1    
    17    8   69 1    
    18    8   70 1    
    19    9   10 ar   
    20    9   14 ar   
    21   10   11 ar   
    22   10   71 1    
    23   11   12 ar   
    24   11   61 1    
    25   12   13 ar   
    26   12   72 1    
    27   13   14 ar   
    28   13   15 1    
    29   14   73 1    
    30   15   16 1    
    31   15   74 1    
    32   15   75 1    
    33   16   17 1    
    34   17   18 1    
    35   17   76 1    
    36   17   77 1    
    37   18   19 1    
    38   18   27 1    
    39   18   78 1    
    40   19   20 am   BACKBONE|DICT|INTERRES
    41   19   79 1    
    42   20   21 2    
    43   20   22 1    
    44   22   23 1    
    45   22   24 1    
    46   22   80 1    
    47   23   81 1    
    48   23   82 1    
    49   23   83 1    
    50   24   25 am   BACKBONE|DICT|INTERRES
    51   24   84 1    
    52   25   26 2    
    53   27   28 2    
    54   27   29 am   BACKBONE|DICT|INTERRES
    55   29   30 1    
    56   29   85 1    
    57   30   31 1    
    58   30   32 1    
    59   30   86 1    
    60   31   87 1    
    61   31   88 1    
    62   31   89 1    
    63   32   33 2    
    64   32   34 am   BACKBONE|DICT|INTERRES
    65   34   35 1    
    66   34   90 1    
    67   35   36 1    
    68   35   37 1    
    69   35   91 1    
    70   36   92 1    
    71   36   93 1    
    72   36   94 1    
    73   37   38 2    
    74   37   39 am   BACKBONE|DICT|INTERRES
    75   39   40 1    
    76   39   95 1    
    77   40   41 1    
    78   40   42 1    
    79   40   96 1    
    80   41   97 1    
    81   41   98 1    
    82   41   99 1    
    83   42   43 2    
    84   42   44 am   BACKBONE|DICT|INTERRES
    85   44   45 1    
    86   44  100 1    
    87   45   46 1    
    88   45   47 1    
    89   45  101 1    
    90   46  102 1    
    91   46  103 1    
    92   46  104 1    
    93   47   48 2    
    94   47   49 am   BACKBONE|DICT|INTERRES
    95   49   50 1    
    96   49  105 1    
    97   50   51 1    
    98   50   52 1    
    99   50  106 1    
   100   51  107 1    
   101   51  108 1    
   102   51  109 1    
   103   52   53 2    
   104   52   54 am   BACKBONE|DICT|INTERRES
   105   54   55 1    
   106   54  110 1    
   107   55   56 1    
   108   55   59 1    
   109   55  111 1    
   110   56   57 am   BACKBONE|DICT|INTERRES
   111   56   58 2    
   112   57  112 1    
   113   57  113 1    
   114   59   60 1    
   115   59  114 1    
   116   59  115 1    
   117   60   61 1    
   118   61  116 1    
   119   61  117 1    
@<TRIPOS>SUBSTRUCTURE
     1 UNK         1 GROUP             0       ****    0 ROOT    
