@<TRIPOS>MOLECULE
3R8
117   119    1
SMALL
USER_CHARGES


@<TRIPOS>ATOM
      1 CA         16.6002  -23.0413  -39.9165 C.3       0 UNK        -0.2013 
      2 C          16.5040  -23.6182  -41.3211 C.2       0 UNK         0.4866 
      3 O          15.6401  -23.2046  -42.0954 O.2       0 UNK        -0.5176 
      4 N          17.3773  -24.5770  -41.6525 N.am      1 UNK        -0.4884 
      5 CA         17.4620  -25.2163  -42.9703 C.3       1 UNK         0.0853 
      6 C6         18.3409  -26.4927  -42.9389 C.3       10 UNK        -0.0849 
      7 S7         17.7898  -27.7260  -41.7086 S.3       10 UNK        -0.2776 
      8 C8         16.9420  -28.9712  -42.7364 C.3       10 UNK         0.0316 
      9 C9         17.8982  -29.7121  -43.6624 C.ar      10 UNK        -0.0863 
     10 C10        18.8532  -30.5898  -43.1381 C.ar      10 UNK        -0.1009 
     11 C11        19.7467  -31.2623  -43.9819 C.ar      10 UNK        -0.0712 
     12 C12        19.6603  -31.0570  -45.3628 C.ar      10 UNK        -0.0894 
     13 C13        18.6972  -30.1991  -45.9030 C.ar      10 UNK        -0.0745 
     14 C14        17.8157  -29.5333  -45.0463 C.ar      10 UNK        -0.0972 
     15 C15        18.6115  -30.0018  -47.4135 C.3       10 UNK         0.0209 
     16 S16        18.7314  -28.2533  -47.9204 S.3       10 UNK        -0.2568 
     17 C17        20.3023  -27.7597  -47.1357 C.3       10 UNK        -0.0983 
     18 CA         20.6010  -26.2413  -47.2448 C.3       3 UNK         0.0876 
     19 N          19.4612  -25.4460  -46.7849 N.am      3 UNK        -0.4424 
     20 C          19.2589  -24.1431  -47.0114 C.2       2 UNK         0.4918 
     21 O          20.0109  -23.4361  -47.6833 O.2       2 UNK        -0.4875 
     22 CA         17.9828  -23.5303  -46.4006 C.3       2 UNK         0.0481 
     23 CB         16.8761  -23.4370  -47.4634 C.3       2 UNK        -0.1831 
     24 N          17.4812  -24.2896  -45.2475 N.am      2 UNK        -0.4498 
     25 C          18.0171  -24.2303  -44.0200 C.2       1 UNK         0.5027 
     26 O          18.9408  -23.4719  -43.7131 O.2       1 UNK        -0.4969 
     27 C          21.8724  -25.9194  -46.4329 C.2       3 UNK         0.5005 
     28 O          21.7919  -25.3264  -45.3524 O.2       3 UNK        -0.5279 
     29 N          23.0217  -26.4192  -46.9090 N.am      4 UNK        -0.4463 
     30 CA         24.2803  -26.4948  -46.1581 C.3       4 UNK         0.0283 
     31 CB         25.4494  -26.6513  -47.1484 C.3       4 UNK        -0.1875 
     32 C          24.2278  -27.6329  -45.1145 C.2       4 UNK         0.4949 
     33 O          24.9734  -28.6087  -45.2148 O.2       4 UNK        -0.5039 
     34 N          23.2978  -27.5019  -44.1626 N.am      5 UNK        -0.4663 
     35 CA         23.0212  -28.4502  -43.0848 C.3       5 UNK         0.0242 
     36 CB         21.6483  -28.1033  -42.4839 C.3       5 UNK        -0.1982 
     37 C          24.1132  -28.4521  -42.0006 C.2       5 UNK         0.5017 
     38 O          24.9400  -27.5378  -41.9404 O.2       5 UNK        -0.5012 
     39 N          24.0687  -29.4737  -41.1422 N.am      6 UNK        -0.4439 
     40 CA         24.9421  -29.6620  -39.9879 C.3       6 UNK         0.0297 
     41 CB         26.1203  -30.5727  -40.3800 C.3       6 UNK        -0.2006 
     42 C          24.1165  -30.2626  -38.8430 C.2       6 UNK         0.4892 
     43 O          22.9614  -30.6429  -39.0539 O.2       6 UNK        -0.5089 
     44 N          24.7207  -30.3368  -37.6501 N.am      7 UNK        -0.4243 
     45 CA         24.1192  -30.8990  -36.4388 C.3       7 UNK         0.0196 
     46 CB         25.0929  -30.7309  -35.2597 C.3       7 UNK        -0.2007 
     47 C          23.7242  -32.3743  -36.6296 C.2       7 UNK         0.5020 
     48 O          24.6055  -33.2262  -36.7576 O.2       7 UNK        -0.5147 
     49 N          22.4082  -32.6266  -36.6642 N.am      8 UNK        -0.4734 
     50 CA         21.7568  -33.9248  -36.8773 C.3       8 UNK         0.0238 
     51 CB         22.0109  -34.8645  -35.6778 C.3       8 UNK        -0.1912 
     52 C          22.1018  -34.5729  -38.2351 C.2       8 UNK         0.5038 
     53 O          22.3102  -35.7868  -38.2935 O.2       8 UNK        -0.5046 
     54 N          22.1475  -33.7626  -39.3045 N.am      9 UNK        -0.4200 
     55 CA         22.3859  -34.2278  -40.6835 C.3       9 UNK         0.0839 
     56 C          21.2678  -35.1225  -41.2978 C.2       9 UNK         0.5513 
     57 N          20.0649  -35.1664  -40.7373 N.am      9 UNK        -0.7519 
     58 O          21.5026  -35.7930  -42.2998 O.2       9 UNK        -0.4960 
     59 C59        22.7907  -33.0714  -41.6365 C.3       10 UNK        -0.0876 
     60 S60        21.5221  -31.7719  -41.8474 S.3       10 UNK        -0.2414 
     61 C61        20.7783  -32.2523  -43.4425 C.3       10 UNK         0.0169 
     62 H62        15.6627  -23.1952  -39.3826 H         1 UNK         0.0903 
     63 H63        17.3994  -23.5054  -39.3387 H         1 UNK         0.0903 
     64 H64        16.7941  -21.9699  -39.9637 H         1 UNK         0.0903 
     65 H65        18.0684  -24.8783  -40.9804 H         1 UNK         0.3096 
     66 H66        16.4495  -25.5024  -43.2645 H         1 UNK         0.1121 
     67 H67        18.3802  -26.9582  -43.9246 H         1 UNK         0.0849 
     68 H68        19.3719  -26.2285  -42.6973 H         1 UNK         0.0849 
     69 H69        16.4534  -29.6934  -42.0809 H         1 UNK         0.0865 
     70 H70        16.1440  -28.4867  -43.3013 H         1 UNK         0.0865 
     71 H71        18.9003  -30.7417  -42.0686 H         1 UNK         0.1346 
     72 H72        20.3394  -31.5793  -46.0230 H         1 UNK         0.1412 
     73 H73        17.0710  -28.8686  -45.4625 H         1 UNK         0.1426 
     74 H74        17.6636  -30.4072  -47.7694 H         1 UNK         0.0716 
     75 H75        19.3962  -30.5632  -47.9230 H         1 UNK         0.0716 
     76 H76        20.2706  -28.0543  -46.0846 H         1 UNK         0.0695 
     77 H77        21.1004  -28.3475  -47.5928 H         1 UNK         0.0695 
     78 H78        20.7909  -25.9888  -48.2904 H         1 UNK         0.0983 
     79 H79        18.7849  -25.9412  -46.2271 H         1 UNK         0.3095 
     80 H80        18.2247  -22.5161  -46.0756 H         1 UNK         0.0454 
     81 H81        17.2085  -22.8504  -48.3212 H         1 UNK         0.0851 
     82 H82        16.5865  -24.4205  -47.8355 H         1 UNK         0.0851 
     83 H83        15.9847  -22.9502  -47.0676 H         1 UNK         0.0851 
     84 H84        16.7068  -24.9154  -45.4203 H         1 UNK         0.2976 
     85 H85        23.0016  -26.9210  -47.7858 H         1 UNK         0.3116 
     86 H86        24.4282  -25.5584  -45.6154 H         1 UNK         0.0646 
     87 H87        26.4034  -26.6892  -46.6209 H         1 UNK         0.0847 
     88 H88        25.4981  -25.8112  -47.8414 H         1 UNK         0.0847 
     89 H89        25.3655  -27.5669  -47.7351 H         1 UNK         0.0847 
     90 H90        22.7279  -26.6621  -44.1903 H         1 UNK         0.3040 
     91 H91        22.9732  -29.4525  -43.5171 H         1 UNK         0.1015 
     92 H92        21.6290  -27.0887  -42.0844 H         1 UNK         0.0786 
     93 H93        21.3815  -28.7762  -41.6684 H         1 UNK         0.0786 
     94 H94        20.8606  -28.1884  -43.2331 H         1 UNK         0.0786 
     95 H95        23.2885  -30.1213  -41.1791 H         1 UNK         0.3172 
     96 H96        25.3239  -28.6964  -39.6496 H         1 UNK         0.0595 
     97 H97        26.8185  -30.6977  -39.5517 H         1 UNK         0.0839 
     98 H98        25.7846  -31.5670  -40.6747 H         1 UNK         0.0839 
     99 H99        26.6844  -30.1516  -41.2125 H         1 UNK         0.0839 
    100 H100       25.6766  -30.0214  -37.5714 H         1 UNK         0.2998 
    101 H101       23.2213  -30.3183  -36.2161 H         1 UNK         0.0822 
    102 H102       24.6671  -31.1397  -34.3423 H         1 UNK         0.0787 
    103 H103       26.0377  -31.2464  -35.4377 H         1 UNK         0.0787 
    104 H104       25.3137  -29.6798  -35.0727 H         1 UNK         0.0787 
    105 H105       21.7805  -31.8365  -36.5942 H         1 UNK         0.3055 
    106 H106       20.6840  -33.7272  -36.9114 H         1 UNK         0.1106 
    107 H107       23.0588  -35.1580  -35.6070 H         1 UNK         0.0828 
    108 H108       21.7305  -34.3923  -34.7364 H         1 UNK         0.0828 
    109 H109       21.4237  -35.7795  -35.7657 H         1 UNK         0.0828 
    110 H110       22.0060  -32.7673  -39.1850 H         1 UNK         0.2931 
    111 H111       23.2600  -34.8795  -40.6240 H         1 UNK         0.0412 
    112 H112       19.3518  -35.7528  -41.1416 H         1 UNK         0.3472 
    113 H113       19.8596  -34.6082  -39.9248 H         1 UNK         0.3472 
    114 H114       23.0806  -33.4652  -42.6125 H         1 UNK         0.0970 
    115 H115       23.6889  -32.5918  -41.2479 H         1 UNK         0.0970 
    116 H116       20.2966  -33.2243  -43.3350 H         1 UNK         0.0612 
    117 H117       21.5830  -32.3792  -44.1684 H         1 UNK         0.0612 
@<TRIPOS>BOND
     1    1    2 1    
     2    1   62 1    
     3    1   63 1    
     4    1   64 1    
     5    2    3 2    
     6    2    4 am   BACKBONE|DICT|INTERRES
     7    4    5 1    
     8    4   65 1    
     9    5    6 1    
    10    5   25 1    
    11    5   66 1    
    12    6    7 1    
    13    6   67 1    
    14    6   68 1    
    15    7    8 1    
    16    8    9 1    
    17    8   69 1    
    18    8   70 1    
    19    9   10 ar   
    20    9   14 ar   
    21   10   11 ar   
    22   10   71 1    
    23   11   12 ar   
    24   11   61 1    
    25   12   13 ar   
    26   12   72 1    
    27   13   14 ar   
    28   13   15 1    
    29   14   73 1    
    30   15   16 1    
    31   15   74 1    
    32   15   75 1    
    33   16   17 1    
    34   17   18 1    
    35   17   76 1    
    36   17   77 1    
    37   18   19 1    
    38   18   27 1    
    39   18   78 1    
    40   19   20 am   BACKBONE|DICT|INTERRES
    41   19   79 1    
    42   20   21 2    
    43   20   22 1    
    44   22   23 1    
    45   22   24 1    
    46   22   80 1    
    47   23   81 1    
    48   23   82 1    
    49   23   83 1    
    50   24   25 am   BACKBONE|DICT|INTERRES
    51   24   84 1    
    52   25   26 2    
    53   27   28 2    
    54   27   29 am   BACKBONE|DICT|INTERRES
    55   29   30 1    
    56   29   85 1    
    57   30   31 1    
    58   30   32 1    
    59   30   86 1    
    60   31   87 1    
    61   31   88 1    
    62   31   89 1    
    63   32   33 2    
    64   32   34 am   BACKBONE|DICT|INTERRES
    65   34   35 1    
    66   34   90 1    
    67   35   36 1    
    68   35   37 1    
    69   35   91 1    
    70   36   92 1    
    71   36   93 1    
    72   36   94 1    
    73   37   38 2    
    74   37   39 am   BACKBONE|DICT|INTERRES
    75   39   40 1    
    76   39   95 1    
    77   40   41 1    
    78   40   42 1    
    79   40   96 1    
    80   41   97 1    
    81   41   98 1    
    82   41   99 1    
    83   42   43 2    
    84   42   44 am   BACKBONE|DICT|INTERRES
    85   44   45 1    
    86   44  100 1    
    87   45   46 1    
    88   45   47 1    
    89   45  101 1    
    90   46  102 1    
    91   46  103 1    
    92   46  104 1    
    93   47   48 2    
    94   47   49 am   BACKBONE|DICT|INTERRES
    95   49   50 1    
    96   49  105 1    
    97   50   51 1    
    98   50   52 1    
    99   50  106 1    
   100   51  107 1    
   101   51  108 1    
   102   51  109 1    
   103   52   53 2    
   104   52   54 am   BACKBONE|DICT|INTERRES
   105   54   55 1    
   106   54  110 1    
   107   55   56 1    
   108   55   59 1    
   109   55  111 1    
   110   56   57 am   BACKBONE|DICT|INTERRES
   111   56   58 2    
   112   57  112 1    
   113   57  113 1    
   114   59   60 1    
   115   59  114 1    
   116   59  115 1    
   117   60   61 1    
   118   61  116 1    
   119   61  117 1    
@<TRIPOS>SUBSTRUCTURE
     1 UNK         1 GROUP             0       ****    0 ROOT    
