@<TRIPOS>MOLECULE
3R8
117   119    1
SMALL
USER_CHARGES


@<TRIPOS>ATOM
      1 CA         21.1107  -32.1204  -48.0337 C.3       0 UNK        -0.2013 
      2 C          20.2011  -30.9304  -47.7657 C.2       0 UNK         0.4866 
      3 O          19.8500  -30.2159  -48.7045 O.2       0 UNK        -0.5176 
      4 N          19.8233  -30.7172  -46.4960 N.am      1 UNK        -0.4884 
      5 CA         18.9304  -29.6457  -46.0201 C.3       1 UNK         0.0853 
      6 C6         17.4630  -29.8061  -46.5087 C.3       10 UNK        -0.0849 
      7 S7         16.6473  -31.2276  -45.7063 S.3       10 UNK        -0.2776 
      8 C8         15.3699  -30.4058  -44.6927 C.3       10 UNK         0.0316 
      9 C9         15.9632  -29.4840  -43.6332 C.ar      10 UNK        -0.0863 
     10 C10        16.6307  -30.0218  -42.5295 C.ar      10 UNK        -0.1009 
     11 C11        17.1916  -29.1840  -41.5600 C.ar      10 UNK        -0.0712 
     12 C12        17.0323  -27.8011  -41.6719 C.ar      10 UNK        -0.0894 
     13 C13        16.3783  -27.2491  -42.7750 C.ar      10 UNK        -0.0745 
     14 C14        15.8437  -28.0951  -43.7523 C.ar      10 UNK        -0.0972 
     15 C15        16.2594  -25.7399  -42.9191 C.3       10 UNK         0.0209 
     16 S16        17.6317  -25.0602  -43.9045 S.3       10 UNK        -0.2568 
     17 C17        18.9397  -24.7639  -42.6594 C.3       10 UNK        -0.0983 
     18 CA         19.9578  -25.9333  -42.4857 C.3       3 UNK         0.0876 
     19 N          20.4478  -26.5087  -43.7386 N.am      3 UNK        -0.4424 
     20 C          21.1074  -25.8908  -44.7273 C.2       2 UNK         0.4918 
     21 O          21.4170  -24.6988  -44.7171 O.2       2 UNK        -0.4875 
     22 CA         21.4872  -26.7580  -45.9471 C.3       2 UNK         0.0481 
     23 CB         23.0090  -26.9727  -45.9961 C.3       2 UNK        -0.1831 
     24 N          20.8035  -28.0603  -45.9594 N.am      2 UNK        -0.4498 
     25 C          19.5121  -28.2366  -46.2833 C.2       1 UNK         0.5027 
     26 O          18.8009  -27.3395  -46.7386 O.2       1 UNK        -0.4969 
     27 C          21.1210  -25.6223  -41.5170 C.2       3 UNK         0.5005 
     28 O          22.1768  -26.2542  -41.6108 O.2       3 UNK        -0.5279 
     29 N          20.8919  -24.7098  -40.5575 N.am      4 UNK        -0.4463 
     30 CA         21.8393  -24.2237  -39.5391 C.3       4 UNK         0.0283 
     31 CB         22.9581  -23.3966  -40.2081 C.3       4 UNK        -0.1875 
     32 C          22.4103  -25.3163  -38.6073 C.2       4 UNK         0.4949 
     33 O          23.4625  -25.1057  -38.0027 O.2       4 UNK        -0.5039 
     34 N          21.7171  -26.4632  -38.5210 N.am      5 UNK        -0.4663 
     35 CA         22.1193  -27.7012  -37.8383 C.3       5 UNK         0.0242 
     36 CB         22.1285  -27.5048  -36.3069 C.3       5 UNK        -0.1982 
     37 C          23.4387  -28.2998  -38.3761 C.2       5 UNK         0.5017 
     38 O          24.1682  -28.9466  -37.6213 O.2       5 UNK        -0.5012 
     39 N          23.7264  -28.0716  -39.6664 N.am      6 UNK        -0.4439 
     40 CA         24.8912  -28.6044  -40.3746 C.3       6 UNK         0.0297 
     41 CB         25.0320  -27.8578  -41.7129 C.3       6 UNK        -0.2006 
     42 C          24.7810  -30.1193  -40.6179 C.2       6 UNK         0.4892 
     43 O          23.6934  -30.6917  -40.5132 O.2       6 UNK        -0.5089 
     44 N          25.9002  -30.7347  -41.0262 N.am      7 UNK        -0.4243 
     45 CA         26.0076  -32.1533  -41.4055 C.3       7 UNK         0.0196 
     46 CB         27.4763  -32.4751  -41.7267 C.3       7 UNK        -0.2007 
     47 C          25.0942  -32.5809  -42.5748 C.2       7 UNK         0.5020 
     48 O          24.8608  -33.7753  -42.7570 O.2       7 UNK        -0.5147 
     49 N          24.5686  -31.6004  -43.3210 N.am      8 UNK        -0.4734 
     50 CA         23.5347  -31.7533  -44.3446 C.3       8 UNK         0.0238 
     51 CB         23.4635  -30.4524  -45.1572 C.3       8 UNK        -0.1912 
     52 C          22.1407  -32.1159  -43.7900 C.2       8 UNK         0.5038 
     53 O          21.2591  -32.4263  -44.5928 O.2       8 UNK        -0.5046 
     54 N          21.9415  -32.0650  -42.4659 N.am      9 UNK        -0.4200 
     55 CA         20.7320  -32.5677  -41.7990 C.3       9 UNK         0.0839 
     56 C          20.9613  -33.1201  -40.3650 C.2       9 UNK         0.5513 
     57 N          22.0518  -32.7963  -39.6819 N.am      9 UNK        -0.7519 
     58 O          20.1391  -33.8875  -39.8709 O.2       9 UNK        -0.4960 
     59 C59        19.5332  -31.5897  -41.8907 C.3       10 UNK        -0.0876 
     60 S60        19.7278  -30.0523  -40.9191 S.3       10 UNK        -0.2414 
     61 C61        18.0023  -29.7616  -40.4100 C.3       10 UNK         0.0169 
     62 H62        22.1221  -31.7795  -48.2532 H         1 UNK         0.0903 
     63 H63        21.1545  -32.8014  -47.1848 H         1 UNK         0.0903 
     64 H64        20.7475  -32.6839  -48.8929 H         1 UNK         0.0903 
     65 H65        20.1614  -31.3570  -45.7797 H         1 UNK         0.3096 
     66 H66        18.9119  -29.7296  -44.9318 H         1 UNK         0.1121 
     67 H67        16.8742  -28.9121  -46.3000 H         1 UNK         0.0849 
     68 H68        17.4214  -29.9357  -47.5909 H         1 UNK         0.0849 
     69 H69        14.6902  -29.8580  -45.3474 H         1 UNK         0.0865 
     70 H70        14.7649  -31.1699  -44.2024 H         1 UNK         0.0865 
     71 H71        16.7316  -31.0942  -42.4431 H         1 UNK         0.1346 
     72 H72        17.4447  -27.1508  -40.9131 H         1 UNK         0.1412 
     73 H73        15.3385  -27.6680  -44.6081 H         1 UNK         0.1426 
     74 H74        16.2156  -25.2569  -41.9419 H         1 UNK         0.0716 
     75 H75        15.3201  -25.4952  -43.4172 H         1 UNK         0.0716 
     76 H76        18.4563  -24.5273  -41.7106 H         1 UNK         0.0695 
     77 H77        19.4645  -23.8562  -42.9631 H         1 UNK         0.0695 
     78 H78        19.4339  -26.7555  -42.0051 H         1 UNK         0.0983 
     79 H79        20.2870  -27.4976  -43.8405 H         1 UNK         0.3095 
     80 H80        21.1964  -26.2100  -46.8457 H         1 UNK         0.0454 
     81 H81        23.3921  -27.3875  -45.0639 H         1 UNK         0.0851 
     82 H82        23.5243  -26.0246  -46.1550 H         1 UNK         0.0851 
     83 H83        23.2973  -27.6358  -46.8119 H         1 UNK         0.0851 
     84 H84        21.3302  -28.8587  -45.6399 H         1 UNK         0.2976 
     85 H85        19.9823  -24.2691  -40.5363 H         1 UNK         0.3116 
     86 H86        21.2725  -23.5502  -38.8945 H         1 UNK         0.0646 
     87 H87        23.6095  -24.0216  -40.8201 H         1 UNK         0.0847 
     88 H88        23.5855  -22.9055  -39.4633 H         1 UNK         0.0847 
     89 H89        22.5474  -22.6147  -40.8467 H         1 UNK         0.0847 
     90 H90        20.8644  -26.5223  -39.0588 H         1 UNK         0.3040 
     91 H91        21.3499  -28.4401  -38.0695 H         1 UNK         0.1015 
     92 H92        22.9245  -26.8305  -35.9896 H         1 UNK         0.0786 
     93 H93        22.2826  -28.4535  -35.7913 H         1 UNK         0.0786 
     94 H94        21.1817  -27.0969  -35.9533 H         1 UNK         0.0786 
     95 H95        23.0768  -27.5228  -40.2212 H         1 UNK         0.3172 
     96 H96        25.7790  -28.4151  -39.7677 H         1 UNK         0.0595 
     97 H97        25.9320  -28.1604  -42.2492 H         1 UNK         0.0839 
     98 H98        25.0992  -26.7803  -41.5589 H         1 UNK         0.0839 
     99 H99        24.1804  -28.0436  -42.3693 H         1 UNK         0.0839 
    100 H100       26.7482  -30.1900  -41.0974 H         1 UNK         0.2998 
    101 H101       25.7077  -32.7454  -40.5383 H         1 UNK         0.0822 
    102 H102       27.5998  -33.5291  -41.9801 H         1 UNK         0.0787 
    103 H103       27.8409  -31.8919  -42.5734 H         1 UNK         0.0787 
    104 H104       28.1240  -32.2726  -40.8735 H         1 UNK         0.0787 
    105 H105       24.8344  -30.6547  -43.0909 H         1 UNK         0.3055 
    106 H106       23.8348  -32.5652  -45.0109 H         1 UNK         0.1106 
    107 H107       22.7721  -30.5483  -45.9939 H         1 UNK         0.0828 
    108 H108       23.1259  -29.6233  -44.5361 H         1 UNK         0.0828 
    109 H109       24.4349  -30.1887  -45.5763 H         1 UNK         0.0828 
    110 H110       22.6827  -31.7354  -41.8577 H         1 UNK         0.2931 
    111 H111       20.4362  -33.4575  -42.3595 H         1 UNK         0.0412 
    112 H112       22.6882  -32.0731  -40.0083 H         1 UNK         0.3472 
    113 H113       22.1774  -33.1847  -38.7611 H         1 UNK         0.3472 
    114 H114       18.6340  -32.1123  -41.5620 H         1 UNK         0.0970 
    115 H115       19.3473  -31.3180  -42.9302 H         1 UNK         0.0970 
    116 H116       17.5510  -30.6862  -40.0473 H         1 UNK         0.0612 
    117 H117       18.0001  -29.0717  -39.5648 H         1 UNK         0.0612 
@<TRIPOS>BOND
     1    1    2 1    
     2    1   62 1    
     3    1   63 1    
     4    1   64 1    
     5    2    3 2    
     6    2    4 am   BACKBONE|DICT|INTERRES
     7    4    5 1    
     8    4   65 1    
     9    5    6 1    
    10    5   25 1    
    11    5   66 1    
    12    6    7 1    
    13    6   67 1    
    14    6   68 1    
    15    7    8 1    
    16    8    9 1    
    17    8   69 1    
    18    8   70 1    
    19    9   10 ar   
    20    9   14 ar   
    21   10   11 ar   
    22   10   71 1    
    23   11   12 ar   
    24   11   61 1    
    25   12   13 ar   
    26   12   72 1    
    27   13   14 ar   
    28   13   15 1    
    29   14   73 1    
    30   15   16 1    
    31   15   74 1    
    32   15   75 1    
    33   16   17 1    
    34   17   18 1    
    35   17   76 1    
    36   17   77 1    
    37   18   19 1    
    38   18   27 1    
    39   18   78 1    
    40   19   20 am   BACKBONE|DICT|INTERRES
    41   19   79 1    
    42   20   21 2    
    43   20   22 1    
    44   22   23 1    
    45   22   24 1    
    46   22   80 1    
    47   23   81 1    
    48   23   82 1    
    49   23   83 1    
    50   24   25 am   BACKBONE|DICT|INTERRES
    51   24   84 1    
    52   25   26 2    
    53   27   28 2    
    54   27   29 am   BACKBONE|DICT|INTERRES
    55   29   30 1    
    56   29   85 1    
    57   30   31 1    
    58   30   32 1    
    59   30   86 1    
    60   31   87 1    
    61   31   88 1    
    62   31   89 1    
    63   32   33 2    
    64   32   34 am   BACKBONE|DICT|INTERRES
    65   34   35 1    
    66   34   90 1    
    67   35   36 1    
    68   35   37 1    
    69   35   91 1    
    70   36   92 1    
    71   36   93 1    
    72   36   94 1    
    73   37   38 2    
    74   37   39 am   BACKBONE|DICT|INTERRES
    75   39   40 1    
    76   39   95 1    
    77   40   41 1    
    78   40   42 1    
    79   40   96 1    
    80   41   97 1    
    81   41   98 1    
    82   41   99 1    
    83   42   43 2    
    84   42   44 am   BACKBONE|DICT|INTERRES
    85   44   45 1    
    86   44  100 1    
    87   45   46 1    
    88   45   47 1    
    89   45  101 1    
    90   46  102 1    
    91   46  103 1    
    92   46  104 1    
    93   47   48 2    
    94   47   49 am   BACKBONE|DICT|INTERRES
    95   49   50 1    
    96   49  105 1    
    97   50   51 1    
    98   50   52 1    
    99   50  106 1    
   100   51  107 1    
   101   51  108 1    
   102   51  109 1    
   103   52   53 2    
   104   52   54 am   BACKBONE|DICT|INTERRES
   105   54   55 1    
   106   54  110 1    
   107   55   56 1    
   108   55   59 1    
   109   55  111 1    
   110   56   57 am   BACKBONE|DICT|INTERRES
   111   56   58 2    
   112   57  112 1    
   113   57  113 1    
   114   59   60 1    
   115   59  114 1    
   116   59  115 1    
   117   60   61 1    
   118   61  116 1    
   119   61  117 1    
@<TRIPOS>SUBSTRUCTURE
     1 UNK         1 GROUP             0       ****    0 ROOT    
