@<TRIPOS>MOLECULE
3R8
117   119    1
SMALL
USER_CHARGES


@<TRIPOS>ATOM
      1 CA         18.0833  -27.5773  -38.9722 C.3       0 UNK        -0.2013 
      2 C          17.5506  -27.0703  -40.3041 C.2       0 UNK         0.4866 
      3 O          16.7401  -26.1431  -40.3275 O.2       0 UNK        -0.5176 
      4 N          17.9928  -27.6773  -41.4115 N.am      1 UNK        -0.4884 
      5 CA         17.6333  -27.2854  -42.7793 C.3       1 UNK         0.0853 
      6 C6         17.8916  -28.4337  -43.7852 C.3       10 UNK        -0.0849 
      7 S7         16.8363  -29.8851  -43.4712 S.3       10 UNK        -0.2776 
      8 C8         16.9748  -30.7815  -45.0527 C.3       10 UNK         0.0316 
      9 C9         18.4188  -31.1346  -45.3819 C.ar      10 UNK        -0.0863 
     10 C10        19.0290  -32.2366  -44.7775 C.ar      10 UNK        -0.1009 
     11 C11        20.3616  -32.5512  -45.0530 C.ar      10 UNK        -0.0712 
     12 C12        21.0805  -31.7574  -45.9541 C.ar      10 UNK        -0.0894 
     13 C13        20.4819  -30.6570  -46.5777 C.ar      10 UNK        -0.0745 
     14 C14        19.1445  -30.3595  -46.2916 C.ar      10 UNK        -0.0972 
     15 C15        21.2757  -29.8450  -47.6008 C.3       10 UNK         0.0209 
     16 S16        20.9512  -28.0483  -47.5585 S.3       10 UNK        -0.2568 
     17 C17        21.9079  -27.5341  -46.0961 C.3       10 UNK        -0.0983 
     18 CA         21.7930  -26.0101  -45.8397 C.3       3 UNK         0.0876 
     19 N          20.4064  -25.6130  -45.5747 N.am      3 UNK        -0.4424 
     20 C          19.9561  -24.3590  -45.4276 C.2       2 UNK         0.4918 
     21 O          20.6394  -23.3573  -45.6401 O.2       2 UNK        -0.4875 
     22 CA         18.5076  -24.1871  -44.9228 C.3       2 UNK         0.0481 
     23 CB         17.5943  -23.7323  -46.0727 C.3       2 UNK        -0.1831 
     24 N          17.9202  -25.3761  -44.2855 N.am      2 UNK        -0.4498 
     25 C          18.4057  -26.0232  -43.2137 C.2       1 UNK         0.5027 
     26 O          19.4500  -25.7029  -42.6381 O.2       1 UNK        -0.4969 
     27 C          22.7631  -25.5772  -44.7160 C.2       3 UNK         0.5005 
     28 O          23.9410  -25.3566  -45.0024 O.2       3 UNK        -0.5279 
     29 N          22.2578  -25.4506  -43.4757 N.am      4 UNK        -0.4463 
     30 CA         22.9149  -24.9777  -42.2496 C.3       4 UNK         0.0283 
     31 CB         23.3689  -23.5106  -42.3825 C.3       4 UNK        -0.1875 
     32 C          24.0545  -25.8811  -41.7523 C.2       4 UNK         0.4949 
     33 O          23.9480  -26.4451  -40.6639 O.2       4 UNK        -0.5039 
     34 N          25.1079  -26.0306  -42.5650 N.am      5 UNK        -0.4663 
     35 CA         26.3002  -26.8415  -42.2898 C.3       5 UNK         0.0242 
     36 CB         27.3602  -26.5515  -43.3644 C.3       5 UNK        -0.1982 
     37 C          26.0164  -28.3518  -42.2043 C.2       5 UNK         0.5017 
     38 O          26.8017  -29.0812  -41.5985 O.2       5 UNK        -0.5012 
     39 N          24.8923  -28.7842  -42.7922 N.am      6 UNK        -0.4439 
     40 CA         24.3501  -30.1402  -42.6970 C.3       6 UNK         0.0297 
     41 CB         23.2091  -30.2836  -43.7131 C.3       6 UNK        -0.2006 
     42 C          23.8666  -30.5046  -41.2778 C.2       6 UNK         0.4892 
     43 O          23.8800  -31.6842  -40.9256 O.2       6 UNK        -0.5089 
     44 N          23.4886  -29.4877  -40.4869 N.am      7 UNK        -0.4243 
     45 CA         23.0922  -29.5541  -39.0803 C.3       7 UNK         0.0196 
     46 CB         24.3171  -29.8854  -38.1951 C.3       7 UNK        -0.2007 
     47 C          21.8640  -30.4543  -38.8371 C.2       7 UNK         0.5020 
     48 O          20.7844  -30.1475  -39.3452 O.2       7 UNK        -0.5147 
     49 N          22.0399  -31.5071  -38.0259 N.am      8 UNK        -0.4734 
     50 CA         20.9954  -32.3252  -37.3984 C.3       8 UNK         0.0238 
     51 CB         21.6643  -33.3905  -36.5133 C.3       8 UNK        -0.1912 
     52 C          19.9697  -32.9834  -38.3368 C.2       8 UNK         0.5038 
     53 O          18.8557  -33.2543  -37.8846 O.2       8 UNK        -0.5046 
     54 N          20.3387  -33.2355  -39.5995 N.am      9 UNK        -0.4200 
     55 CA         19.4124  -33.7413  -40.6253 C.3       9 UNK         0.0839 
     56 C          18.3801  -32.6979  -41.1395 C.2       9 UNK         0.5513 
     57 N          18.5498  -31.4051  -40.8880 N.am      9 UNK        -0.7519 
     58 O          17.3899  -33.0807  -41.7567 O.2       9 UNK        -0.4960 
     59 C59        20.1405  -34.4798  -41.7788 C.3       10 UNK        -0.0876 
     60 S60        21.4021  -33.4796  -42.6421 S.3       10 UNK        -0.2414 
     61 C61        21.0159  -33.7631  -44.4020 C.3       10 UNK         0.0169 
     62 H62        17.2574  -27.8217  -38.3048 H         1 UNK         0.0903 
     63 H63        18.6940  -28.4717  -39.0924 H         1 UNK         0.0903 
     64 H64        18.6932  -26.8105  -38.4954 H         1 UNK         0.0903 
     65 H65        18.6866  -28.4067  -41.3338 H         1 UNK         0.3096 
     66 H66        16.5685  -27.0405  -42.7964 H         1 UNK         0.1121 
     67 H67        18.9371  -28.7487  -43.7539 H         1 UNK         0.0849 
     68 H68        17.6991  -28.1046  -44.8081 H         1 UNK         0.0849 
     69 H69        16.3797  -31.6941  -44.9940 H         1 UNK         0.0865 
     70 H70        16.5326  -30.1816  -45.8497 H         1 UNK         0.0865 
     71 H71        18.4669  -32.8469  -44.0861 H         1 UNK         0.1346 
     72 H72        22.1085  -32.0058  -46.1802 H         1 UNK         0.1412 
     73 H73        18.6652  -29.5210  -46.7773 H         1 UNK         0.1426 
     74 H74        21.0217  -30.2147  -48.5949 H         1 UNK         0.0716 
     75 H75        22.3472  -30.0100  -47.4771 H         1 UNK         0.0716 
     76 H76        22.9490  -27.8205  -46.2595 H         1 UNK         0.0695 
     77 H77        21.5585  -28.1013  -45.2314 H         1 UNK         0.0695 
     78 H78        22.1121  -25.4850  -46.7428 H         1 UNK         0.0983 
     79 H79        19.7551  -26.3682  -45.4299 H         1 UNK         0.3095 
     80 H80        18.5263  -23.3960  -44.1706 H         1 UNK         0.0454 
     81 H81        17.5100  -24.4953  -46.8476 H         1 UNK         0.0851 
     82 H82        17.9820  -22.8294  -46.5470 H         1 UNK         0.0851 
     83 H83        16.5905  -23.5000  -45.7170 H         1 UNK         0.0851 
     84 H84        17.0642  -25.7157  -44.7016 H         1 UNK         0.2976 
     85 H85        21.2696  -25.6574  -43.3506 H         1 UNK         0.3116 
     86 H86        22.1410  -25.0038  -41.4803 H         1 UNK         0.0646 
     87 H87        22.5303  -22.8610  -42.6332 H         1 UNK         0.0847 
     88 H88        24.1307  -23.3805  -43.1516 H         1 UNK         0.0847 
     89 H89        23.7908  -23.1474  -41.4445 H         1 UNK         0.0847 
     90 H90        25.0424  -25.5955  -43.4828 H         1 UNK         0.3040 
     91 H91        26.6964  -26.5342  -41.3195 H         1 UNK         0.1015 
     92 H92        28.2719  -27.1217  -43.1795 H         1 UNK         0.0786 
     93 H93        27.6361  -25.4969  -43.3746 H         1 UNK         0.0786 
     94 H94        27.0056  -26.8156  -44.3616 H         1 UNK         0.0786 
     95 H95        24.3338  -28.0992  -43.2788 H         1 UNK         0.3172 
     96 H96        25.1441  -30.8385  -42.9695 H         1 UNK         0.0595 
     97 H97        22.3433  -29.6761  -43.4466 H         1 UNK         0.0839 
     98 H98        22.8763  -31.3184  -43.7601 H         1 UNK         0.0839 
     99 H99        23.5253  -30.0059  -44.7186 H         1 UNK         0.0839 
    100 H100       23.5301  -28.5497  -40.8670 H         1 UNK         0.2998 
    101 H101       22.7704  -28.5452  -38.8167 H         1 UNK         0.0822 
    102 H102       25.1144  -29.1584  -38.3523 H         1 UNK         0.0787 
    103 H103       24.0630  -29.8500  -37.1347 H         1 UNK         0.0787 
    104 H104       24.7303  -30.8715  -38.4103 H         1 UNK         0.0787 
    105 H105       22.9825  -31.6816  -37.7085 H         1 UNK         0.3055 
    106 H106       20.4262  -31.6566  -36.7488 H         1 UNK         0.1106 
    107 H107       22.2915  -34.0640  -37.0989 H         1 UNK         0.0828 
    108 H108       20.9184  -34.0022  -36.0030 H         1 UNK         0.0828 
    109 H109       22.2859  -32.9359  -35.7417 H         1 UNK         0.0828 
    110 H110       21.2562  -32.9527  -39.9146 H         1 UNK         0.2931 
    111 H111       18.8054  -34.5070  -40.1375 H         1 UNK         0.0412 
    112 H112       17.8689  -30.7584  -41.2535 H         1 UNK         0.3472 
    113 H113       19.3552  -31.0727  -40.3677 H         1 UNK         0.3472 
    114 H114       20.6432  -35.3611  -41.3781 H         1 UNK         0.0970 
    115 H115       19.4106  -34.8666  -42.4918 H         1 UNK         0.0970 
    116 H116       20.3768  -34.6379  -44.5254 H         1 UNK         0.0612 
    117 H117       21.9479  -34.0048  -44.9149 H         1 UNK         0.0612 
@<TRIPOS>BOND
     1    1    2 1    
     2    1   62 1    
     3    1   63 1    
     4    1   64 1    
     5    2    3 2    
     6    2    4 am   BACKBONE|DICT|INTERRES
     7    4    5 1    
     8    4   65 1    
     9    5    6 1    
    10    5   25 1    
    11    5   66 1    
    12    6    7 1    
    13    6   67 1    
    14    6   68 1    
    15    7    8 1    
    16    8    9 1    
    17    8   69 1    
    18    8   70 1    
    19    9   10 ar   
    20    9   14 ar   
    21   10   11 ar   
    22   10   71 1    
    23   11   12 ar   
    24   11   61 1    
    25   12   13 ar   
    26   12   72 1    
    27   13   14 ar   
    28   13   15 1    
    29   14   73 1    
    30   15   16 1    
    31   15   74 1    
    32   15   75 1    
    33   16   17 1    
    34   17   18 1    
    35   17   76 1    
    36   17   77 1    
    37   18   19 1    
    38   18   27 1    
    39   18   78 1    
    40   19   20 am   BACKBONE|DICT|INTERRES
    41   19   79 1    
    42   20   21 2    
    43   20   22 1    
    44   22   23 1    
    45   22   24 1    
    46   22   80 1    
    47   23   81 1    
    48   23   82 1    
    49   23   83 1    
    50   24   25 am   BACKBONE|DICT|INTERRES
    51   24   84 1    
    52   25   26 2    
    53   27   28 2    
    54   27   29 am   BACKBONE|DICT|INTERRES
    55   29   30 1    
    56   29   85 1    
    57   30   31 1    
    58   30   32 1    
    59   30   86 1    
    60   31   87 1    
    61   31   88 1    
    62   31   89 1    
    63   32   33 2    
    64   32   34 am   BACKBONE|DICT|INTERRES
    65   34   35 1    
    66   34   90 1    
    67   35   36 1    
    68   35   37 1    
    69   35   91 1    
    70   36   92 1    
    71   36   93 1    
    72   36   94 1    
    73   37   38 2    
    74   37   39 am   BACKBONE|DICT|INTERRES
    75   39   40 1    
    76   39   95 1    
    77   40   41 1    
    78   40   42 1    
    79   40   96 1    
    80   41   97 1    
    81   41   98 1    
    82   41   99 1    
    83   42   43 2    
    84   42   44 am   BACKBONE|DICT|INTERRES
    85   44   45 1    
    86   44  100 1    
    87   45   46 1    
    88   45   47 1    
    89   45  101 1    
    90   46  102 1    
    91   46  103 1    
    92   46  104 1    
    93   47   48 2    
    94   47   49 am   BACKBONE|DICT|INTERRES
    95   49   50 1    
    96   49  105 1    
    97   50   51 1    
    98   50   52 1    
    99   50  106 1    
   100   51  107 1    
   101   51  108 1    
   102   51  109 1    
   103   52   53 2    
   104   52   54 am   BACKBONE|DICT|INTERRES
   105   54   55 1    
   106   54  110 1    
   107   55   56 1    
   108   55   59 1    
   109   55  111 1    
   110   56   57 am   BACKBONE|DICT|INTERRES
   111   56   58 2    
   112   57  112 1    
   113   57  113 1    
   114   59   60 1    
   115   59  114 1    
   116   59  115 1    
   117   60   61 1    
   118   61  116 1    
   119   61  117 1    
@<TRIPOS>SUBSTRUCTURE
     1 UNK         1 GROUP             0       ****    0 ROOT    
