@<TRIPOS>MOLECULE
3R8
117   119    1
SMALL
USER_CHARGES


@<TRIPOS>ATOM
      1 CA         19.2917  -28.6595  -41.9254 C.3       0 UNK        -0.2013 
      2 C          17.9499  -27.9772  -42.1139 C.2       0 UNK         0.4866 
      3 O          17.4681  -27.3159  -41.1944 O.2       0 UNK        -0.5176 
      4 N          17.3482  -28.1060  -43.3053 N.am      1 UNK        -0.4884 
      5 CA         16.1054  -27.4113  -43.6770 C.3       1 UNK         0.0853 
      6 C6         15.4043  -28.0953  -44.8787 C.3       10 UNK        -0.0849 
      7 S7         16.2708  -27.9239  -46.4818 S.3       10 UNK        -0.2776 
      8 C8         16.7916  -29.6294  -46.8467 C.3       10 UNK         0.0316 
      9 C9         18.1041  -29.9943  -46.1671 C.ar      10 UNK        -0.0863 
     10 C10        18.1577  -31.0350  -45.2364 C.ar      10 UNK        -0.1009 
     11 C11        19.3796  -31.4288  -44.6816 C.ar      10 UNK        -0.0712 
     12 C12        20.5509  -30.7490  -45.0363 C.ar      10 UNK        -0.0894 
     13 C13        20.5110  -29.7042  -45.9675 C.ar      10 UNK        -0.0745 
     14 C14        19.2838  -29.3389  -46.5311 C.ar      10 UNK        -0.0972 
     15 C15        21.8026  -29.0402  -46.4376 C.3       10 UNK         0.0209 
     16 S16        21.7237  -27.2172  -46.4532 S.3       10 UNK        -0.2568 
     17 C17        22.1461  -26.8445  -44.7236 C.3       10 UNK        -0.0983 
     18 CA         21.7266  -25.4196  -44.2872 C.3       3 UNK         0.0876 
     19 N          20.2842  -25.2188  -44.4495 N.am      3 UNK        -0.4424 
     20 C          19.5957  -24.0993  -44.1753 C.2       2 UNK         0.4918 
     21 O          20.1111  -23.0519  -43.7841 O.2       2 UNK        -0.4875 
     22 CA         18.0715  -24.1551  -44.3694 C.3       2 UNK         0.0481 
     23 CB         17.6798  -23.6580  -45.7731 C.3       2 UNK        -0.1831 
     24 N          17.5777  -25.5118  -44.1453 N.am      2 UNK        -0.4498 
     25 C          16.3182  -25.8944  -43.9063 C.2       1 UNK         0.5027 
     26 O          15.3578  -25.1241  -43.8606 O.2       1 UNK        -0.4969 
     27 C          22.1917  -25.1746  -42.8363 C.2       3 UNK         0.5005 
     28 O          21.5900  -25.7216  -41.9095 O.2       3 UNK        -0.5279 
     29 N          23.2640  -24.3880  -42.6699 N.am      4 UNK        -0.4463 
     30 CA         23.9179  -24.1600  -41.3780 C.3       4 UNK         0.0283 
     31 CB         24.6249  -22.7944  -41.3865 C.3       4 UNK        -0.1875 
     32 C          24.9109  -25.2846  -41.0424 C.2       4 UNK         0.4949 
     33 O          24.9330  -25.7579  -39.9062 O.2       4 UNK        -0.5039 
     34 N          25.7076  -25.6949  -42.0380 N.am      5 UNK        -0.4663 
     35 CA         26.6350  -26.8231  -41.9506 C.3       5 UNK         0.0242 
     36 CB         27.8402  -26.5549  -42.8666 C.3       5 UNK        -0.1982 
     37 C          25.9180  -28.1127  -42.3720 C.2       5 UNK         0.5017 
     38 O          25.0789  -28.0664  -43.2728 O.2       5 UNK        -0.5012 
     39 N          26.2723  -29.2355  -41.7291 N.am      6 UNK        -0.4439 
     40 CA         25.6868  -30.5727  -41.9211 C.3       6 UNK         0.0297 
     41 CB         26.0389  -31.1349  -43.3155 C.3       6 UNK        -0.2006 
     42 C          24.1719  -30.6177  -41.6236 C.2       6 UNK         0.4892 
     43 O          23.4282  -31.3362  -42.2929 O.2       6 UNK        -0.5089 
     44 N          23.7478  -29.8448  -40.6131 N.am      7 UNK        -0.4243 
     45 CA         22.3517  -29.6946  -40.1954 C.3       7 UNK         0.0196 
     46 CB         22.2053  -28.3782  -39.4149 C.3       7 UNK        -0.2007 
     47 C          21.8085  -30.8803  -39.3771 C.2       7 UNK         0.5020 
     48 O          20.6072  -30.9280  -39.1104 O.2       7 UNK        -0.5147 
     49 N          22.6808  -31.8190  -38.9868 N.am      8 UNK        -0.4734 
     50 CA         22.3329  -33.0678  -38.3071 C.3       8 UNK         0.0238 
     51 CB         23.5808  -33.6023  -37.5790 C.3       8 UNK        -0.1912 
     52 C          21.7472  -34.0860  -39.3045 C.2       8 UNK         0.5038 
     53 O          22.4071  -35.0719  -39.6389 O.2       8 UNK        -0.5046 
     54 N          20.5311  -33.8024  -39.7862 N.am      9 UNK        -0.4200 
     55 CA         19.7978  -34.6012  -40.7818 C.3       9 UNK         0.0839 
     56 C          19.3610  -36.0177  -40.3045 C.2       9 UNK         0.5513 
     57 N          19.3481  -36.3116  -39.0097 N.am      9 UNK        -0.7519 
     58 O          19.0265  -36.8646  -41.1288 O.2       9 UNK        -0.4960 
     59 C59        18.5790  -33.8313  -41.3557 C.3       10 UNK        -0.0876 
     60 S60        18.9931  -32.1937  -42.0480 S.3       10 UNK        -0.2414 
     61 C61        19.4312  -32.6342  -43.7540 C.3       10 UNK         0.0169 
     62 H62        19.5978  -29.2147  -42.8104 H         1 UNK         0.0903 
     63 H63        20.0585  -27.9167  -41.7095 H         1 UNK         0.0903 
     64 H64        19.2424  -29.3512  -41.0850 H         1 UNK         0.0903 
     65 H65        17.7624  -28.6829  -44.0269 H         1 UNK         0.3096 
     66 H66        15.4242  -27.4903  -42.8262 H         1 UNK         0.1121 
     67 H67        15.2451  -29.1515  -44.6562 H         1 UNK         0.0849 
     68 H68        14.4039  -27.6763  -45.0023 H         1 UNK         0.0849 
     69 H69        15.9962  -30.3275  -46.5812 H         1 UNK         0.0865 
     70 H70        16.9238  -29.7255  -47.9253 H         1 UNK         0.0865 
     71 H71        17.2549  -31.5677  -44.9690 H         1 UNK         0.1346 
     72 H72        21.4973  -31.0594  -44.6128 H         1 UNK         0.1412 
     73 H73        19.2479  -28.5547  -47.2755 H         1 UNK         0.1426 
     74 H74        22.6510  -29.3570  -45.8282 H         1 UNK         0.0716 
     75 H75        22.0106  -29.3833  -47.4518 H         1 UNK         0.0716 
     76 H76        21.6898  -27.5976  -44.0768 H         1 UNK         0.0695 
     77 H77        23.2250  -26.9657  -44.6264 H         1 UNK         0.0695 
     78 H78        22.2229  -24.6972  -44.9385 H         1 UNK         0.0983 
     79 H79        19.8039  -25.9967  -44.8713 H         1 UNK         0.3095 
     80 H80        17.6213  -23.4987  -43.6220 H         1 UNK         0.0454 
     81 H81        18.0663  -24.3134  -46.5544 H         1 UNK         0.0851 
     82 H82        16.5976  -23.6018  -45.8899 H         1 UNK         0.0851 
     83 H83        18.0752  -22.6583  -45.9579 H         1 UNK         0.0851 
     84 H84        18.2759  -26.2351  -44.0716 H         1 UNK         0.2976 
     85 H85        23.6869  -23.9561  -43.4792 H         1 UNK         0.3116 
     86 H86        23.1597  -24.1365  -40.5917 H         1 UNK         0.0646 
     87 H87        25.1064  -22.6006  -40.4269 H         1 UNK         0.0847 
     88 H88        23.9173  -21.9837  -41.5610 H         1 UNK         0.0847 
     89 H89        25.3971  -22.7370  -42.1546 H         1 UNK         0.0847 
     90 H90        25.5815  -25.2943  -42.9553 H         1 UNK         0.3040 
     91 H91        26.9927  -26.9262  -40.9234 H         1 UNK         0.1015 
     92 H92        28.3597  -25.6401  -42.5803 H         1 UNK         0.0786 
     93 H93        27.5416  -26.4583  -43.9115 H         1 UNK         0.0786 
     94 H94        28.5638  -27.3692  -42.8090 H         1 UNK         0.0786 
     95 H95        26.9867  -29.1720  -41.0159 H         1 UNK         0.3172 
     96 H96        26.1575  -31.2206  -41.1802 H         1 UNK         0.0595 
     97 H97        25.7269  -32.1760  -43.4072 H         1 UNK         0.0839 
     98 H98        27.1129  -31.1029  -43.4981 H         1 UNK         0.0839 
     99 H99        25.5456  -30.5791  -44.1136 H         1 UNK         0.0839 
    100 H100       24.4286  -29.2856  -40.1195 H         1 UNK         0.2998 
    101 H101       21.7430  -29.6291  -41.0981 H         1 UNK         0.0822 
    102 H102       22.5262  -27.5251  -40.0136 H         1 UNK         0.0787 
    103 H103       21.1652  -28.2009  -39.1373 H         1 UNK         0.0787 
    104 H104       22.7933  -28.3844  -38.4964 H         1 UNK         0.0787 
    105 H105       23.6436  -31.7111  -39.2690 H         1 UNK         0.3055 
    106 H106       21.5681  -32.8646  -37.5537 H         1 UNK         0.1106 
    107 H107       23.9406  -32.8914  -36.8350 H         1 UNK         0.0828 
    108 H108       23.3571  -34.5321  -37.0543 H         1 UNK         0.0828 
    109 H109       24.3992  -33.8073  -38.2704 H         1 UNK         0.0828 
    110 H110       20.1066  -32.9226  -39.5151 H         1 UNK         0.2931 
    111 H111       20.4903  -34.7682  -41.6091 H         1 UNK         0.0412 
    112 H112       19.0653  -37.2332  -38.7145 H         1 UNK         0.3472 
    113 H113       19.6178  -35.6229  -38.3259 H         1 UNK         0.3472 
    114 H114       17.8352  -33.6770  -40.5718 H         1 UNK         0.0970 
    115 H115       18.0762  -34.4212  -42.1245 H         1 UNK         0.0970 
    116 H116       18.7476  -33.3986  -44.1262 H         1 UNK         0.0612 
    117 H117       20.4263  -33.0819  -43.7603 H         1 UNK         0.0612 
@<TRIPOS>BOND
     1    1    2 1    
     2    1   62 1    
     3    1   63 1    
     4    1   64 1    
     5    2    3 2    
     6    2    4 am   BACKBONE|DICT|INTERRES
     7    4    5 1    
     8    4   65 1    
     9    5    6 1    
    10    5   25 1    
    11    5   66 1    
    12    6    7 1    
    13    6   67 1    
    14    6   68 1    
    15    7    8 1    
    16    8    9 1    
    17    8   69 1    
    18    8   70 1    
    19    9   10 ar   
    20    9   14 ar   
    21   10   11 ar   
    22   10   71 1    
    23   11   12 ar   
    24   11   61 1    
    25   12   13 ar   
    26   12   72 1    
    27   13   14 ar   
    28   13   15 1    
    29   14   73 1    
    30   15   16 1    
    31   15   74 1    
    32   15   75 1    
    33   16   17 1    
    34   17   18 1    
    35   17   76 1    
    36   17   77 1    
    37   18   19 1    
    38   18   27 1    
    39   18   78 1    
    40   19   20 am   BACKBONE|DICT|INTERRES
    41   19   79 1    
    42   20   21 2    
    43   20   22 1    
    44   22   23 1    
    45   22   24 1    
    46   22   80 1    
    47   23   81 1    
    48   23   82 1    
    49   23   83 1    
    50   24   25 am   BACKBONE|DICT|INTERRES
    51   24   84 1    
    52   25   26 2    
    53   27   28 2    
    54   27   29 am   BACKBONE|DICT|INTERRES
    55   29   30 1    
    56   29   85 1    
    57   30   31 1    
    58   30   32 1    
    59   30   86 1    
    60   31   87 1    
    61   31   88 1    
    62   31   89 1    
    63   32   33 2    
    64   32   34 am   BACKBONE|DICT|INTERRES
    65   34   35 1    
    66   34   90 1    
    67   35   36 1    
    68   35   37 1    
    69   35   91 1    
    70   36   92 1    
    71   36   93 1    
    72   36   94 1    
    73   37   38 2    
    74   37   39 am   BACKBONE|DICT|INTERRES
    75   39   40 1    
    76   39   95 1    
    77   40   41 1    
    78   40   42 1    
    79   40   96 1    
    80   41   97 1    
    81   41   98 1    
    82   41   99 1    
    83   42   43 2    
    84   42   44 am   BACKBONE|DICT|INTERRES
    85   44   45 1    
    86   44  100 1    
    87   45   46 1    
    88   45   47 1    
    89   45  101 1    
    90   46  102 1    
    91   46  103 1    
    92   46  104 1    
    93   47   48 2    
    94   47   49 am   BACKBONE|DICT|INTERRES
    95   49   50 1    
    96   49  105 1    
    97   50   51 1    
    98   50   52 1    
    99   50  106 1    
   100   51  107 1    
   101   51  108 1    
   102   51  109 1    
   103   52   53 2    
   104   52   54 am   BACKBONE|DICT|INTERRES
   105   54   55 1    
   106   54  110 1    
   107   55   56 1    
   108   55   59 1    
   109   55  111 1    
   110   56   57 am   BACKBONE|DICT|INTERRES
   111   56   58 2    
   112   57  112 1    
   113   57  113 1    
   114   59   60 1    
   115   59  114 1    
   116   59  115 1    
   117   60   61 1    
   118   61  116 1    
   119   61  117 1    
@<TRIPOS>SUBSTRUCTURE
     1 UNK         1 GROUP             0       ****    0 ROOT    
