@<TRIPOS>MOLECULE
3R8
117   119    1
SMALL
USER_CHARGES


@<TRIPOS>ATOM
      1 CA         16.2934  -24.3178  -49.0671 C.3       0 UNK        -0.2013 
      2 C          16.8657  -25.3040  -48.0592 C.2       0 UNK         0.4866 
      3 O          16.7768  -25.0588  -46.8558 O.2       0 UNK        -0.5176 
      4 N          17.4370  -26.4144  -48.5505 N.am      1 UNK        -0.4884 
      5 CA         18.1123  -27.4828  -47.7972 C.3       1 UNK         0.0853 
      6 C6         17.2434  -28.0554  -46.6392 C.3       10 UNK        -0.0849 
      7 S7         17.6283  -29.7910  -46.2176 S.3       10 UNK        -0.2776 
      8 C8         16.2635  -30.2063  -45.0820 C.3       10 UNK         0.0316 
      9 C9         16.5180  -29.7227  -43.6587 C.ar      10 UNK        -0.0863 
     10 C10        16.9481  -30.6181  -42.6732 C.ar      10 UNK        -0.1009 
     11 C11        17.1368  -30.1917  -41.3530 C.ar      10 UNK        -0.0712 
     12 C12        16.9123  -28.8499  -41.0287 C.ar      10 UNK        -0.0894 
     13 C13        16.4925  -27.9431  -42.0074 C.ar      10 UNK        -0.0745 
     14 C14        16.2794  -28.3900  -43.3135 C.ar      10 UNK        -0.0972 
     15 C15        16.2592  -26.4807  -41.6579 C.3       10 UNK         0.0209 
     16 S16        17.8106  -25.6204  -41.2501 S.3       10 UNK        -0.2568 
     17 C17        18.7726  -25.7632  -42.8012 C.3       10 UNK        -0.0983 
     18 CA         19.7389  -26.9795  -42.8818 C.3       3 UNK         0.0876 
     19 N          20.4085  -27.0028  -44.1837 N.am      3 UNK        -0.4424 
     20 C          21.1681  -27.9993  -44.6549 C.2       2 UNK         0.4918 
     21 O          21.4864  -28.9891  -44.0016 O.2       2 UNK        -0.4875 
     22 CA         21.5429  -27.9098  -46.1446 C.3       2 UNK         0.0481 
     23 CB         22.5305  -29.0067  -46.5826 C.3       2 UNK        -0.1831 
     24 N          20.3141  -28.0563  -46.9207 N.am      2 UNK        -0.4498 
     25 C          19.5104  -27.0556  -47.2946 C.2       1 UNK         0.5027 
     26 O          19.8252  -25.8663  -47.2028 O.2       1 UNK        -0.4969 
     27 C          20.7266  -27.0391  -41.6939 C.2       3 UNK         0.5005 
     28 O          21.7909  -26.4159  -41.7450 O.2       3 UNK        -0.5279 
     29 N          20.2874  -27.7351  -40.6337 N.am      4 UNK        -0.4463 
     30 CA         20.8945  -27.8993  -39.3098 C.3       4 UNK         0.0283 
     31 CB         21.2395  -26.5372  -38.6705 C.3       4 UNK        -0.1875 
     32 C          22.0972  -28.8532  -39.2931 C.2       4 UNK         0.4949 
     33 O          22.6811  -29.1672  -40.3321 O.2       4 UNK        -0.5039 
     34 N          22.4555  -29.2898  -38.0769 N.am      5 UNK        -0.4663 
     35 CA         23.5457  -30.2295  -37.7897 C.3       5 UNK         0.0242 
     36 CB         23.5489  -30.5600  -36.2890 C.3       5 UNK        -0.1982 
     37 C          24.9345  -29.7414  -38.2358 C.2       5 UNK         0.5017 
     38 O          25.7909  -30.5720  -38.5373 O.2       5 UNK        -0.5012 
     39 N          25.1115  -28.4159  -38.3365 N.am      6 UNK        -0.4439 
     40 CA         26.2928  -27.7531  -38.8985 C.3       6 UNK         0.0297 
     41 CB         26.1448  -26.2324  -38.7292 C.3       6 UNK        -0.2006 
     42 C          26.5632  -28.1040  -40.3760 C.2       6 UNK         0.4892 
     43 O          27.7180  -28.0457  -40.7994 O.2       6 UNK        -0.5089 
     44 N          25.5124  -28.4807  -41.1174 N.am      7 UNK        -0.4243 
     45 CA         25.5781  -28.9913  -42.4877 C.3       7 UNK         0.0196 
     46 CB         24.8690  -27.9942  -43.4171 C.3       7 UNK        -0.2007 
     47 C          24.9815  -30.4112  -42.5761 C.2       7 UNK         0.5020 
     48 O          24.6148  -30.8548  -43.6655 O.2       7 UNK        -0.5147 
     49 N          24.8992  -31.1007  -41.4260 N.am      8 UNK        -0.4734 
     50 CA         24.4169  -32.4713  -41.2121 C.3       8 UNK         0.0238 
     51 CB         25.4069  -33.4785  -41.8351 C.3       8 UNK        -0.1912 
     52 C          22.9627  -32.7385  -41.6562 C.2       8 UNK         0.5038 
     53 O          22.6118  -33.9036  -41.8535 O.2       8 UNK        -0.5046 
     54 N          22.1450  -31.6852  -41.8116 N.am      9 UNK        -0.4200 
     55 CA         20.7870  -31.7362  -42.3871 C.3       9 UNK         0.0839 
     56 C          20.7405  -32.2614  -43.8592 C.2       9 UNK         0.5513 
     57 N          21.8263  -32.1790  -44.6213 N.am      9 UNK        -0.7519 
     58 O          19.7099  -32.7397  -44.3265 O.2       9 UNK        -0.4960 
     59 C59        19.7671  -32.4316  -41.4392 C.3       10 UNK        -0.0876 
     60 S60        19.3167  -31.3534  -40.0369 S.3       10 UNK        -0.2414 
     61 C61        17.5159  -31.1856  -40.2605 C.3       10 UNK         0.0169 
     62 H62        16.7887  -23.3523  -48.9682 H         1 UNK         0.0903 
     63 H63        16.4208  -24.6604  -50.0938 H         1 UNK         0.0903 
     64 H64        15.2281  -24.1741  -48.8878 H         1 UNK         0.0903 
     65 H65        17.4807  -26.5225  -49.5550 H         1 UNK         0.3096 
     66 H66        18.2722  -28.2765  -48.5295 H         1 UNK         0.1121 
     67 H67        17.3449  -27.4361  -45.7475 H         1 UNK         0.0849 
     68 H68        16.1886  -28.0170  -46.9160 H         1 UNK         0.0849 
     69 H69        15.3261  -29.7924  -45.4566 H         1 UNK         0.0865 
     70 H70        16.1324  -31.2895  -45.0874 H         1 UNK         0.0865 
     71 H71        17.1071  -31.6552  -42.9327 H         1 UNK         0.1346 
     72 H72        17.0508  -28.5106  -40.0108 H         1 UNK         0.1412 
     73 H73        15.9217  -27.6969  -44.0614 H         1 UNK         0.1426 
     74 H74        15.5858  -26.4198  -40.8019 H         1 UNK         0.0716 
     75 H75        15.7637  -25.9546  -42.4755 H         1 UNK         0.0716 
     76 H76        18.0732  -25.7884  -43.6389 H         1 UNK         0.0695 
     77 H77        19.3381  -24.8368  -42.9169 H         1 UNK         0.0695 
     78 H78        19.1397  -27.8914  -42.8502 H         1 UNK         0.0983 
     79 H79        20.2125  -26.2267  -44.8000 H         1 UNK         0.3095 
     80 H80        22.0058  -26.9377  -46.3269 H         1 UNK         0.0454 
     81 H81        22.1089  -30.0042  -46.4574 H         1 UNK         0.0851 
     82 H82        22.8107  -28.8916  -47.6295 H         1 UNK         0.0851 
     83 H83        23.4469  -28.9700  -45.9960 H         1 UNK         0.0851 
     84 H84        19.9417  -28.9960  -46.9700 H         1 UNK         0.2976 
     85 H85        19.4071  -28.2185  -40.7438 H         1 UNK         0.3116 
     86 H86        20.1179  -28.3643  -38.7004 H         1 UNK         0.0646 
     87 H87        21.5022  -26.6478  -37.6181 H         1 UNK         0.0847 
     88 H88        20.3929  -25.8520  -38.7182 H         1 UNK         0.0847 
     89 H89        22.0855  -26.0573  -39.1636 H         1 UNK         0.0847 
     90 H90        21.9145  -28.9831  -37.2806 H         1 UNK         0.3040 
     91 H91        23.3354  -31.1478  -38.3420 H         1 UNK         0.1015 
     92 H92        22.6027  -31.0031  -35.9775 H         1 UNK         0.0786 
     93 H93        23.7224  -29.6721  -35.6795 H         1 UNK         0.0786 
     94 H94        24.3341  -31.2785  -36.0488 H         1 UNK         0.0786 
     95 H95        24.3423  -27.8211  -38.0650 H         1 UNK         0.3172 
     96 H96        27.1596  -28.0807  -38.3209 H         1 UNK         0.0595 
     97 H97        26.0410  -25.9561  -37.6798 H         1 UNK         0.0839 
     98 H98        25.2769  -25.8484  -39.2673 H         1 UNK         0.0839 
     99 H99        27.0223  -25.7103  -39.1135 H         1 UNK         0.0839 
    100 H100       24.5893  -28.5070  -40.6932 H         1 UNK         0.2998 
    101 H101       26.6168  -29.0777  -42.8123 H         1 UNK         0.0822 
    102 H102       25.2984  -26.9963  -43.3293 H         1 UNK         0.0787 
    103 H103       24.9672  -28.2952  -44.4591 H         1 UNK         0.0787 
    104 H104       23.8068  -27.9215  -43.1834 H         1 UNK         0.0787 
    105 H105       25.2463  -30.6443  -40.5904 H         1 UNK         0.3055 
    106 H106       24.4266  -32.6292  -40.1327 H         1 UNK         0.1106 
    107 H107       25.4055  -33.4224  -42.9242 H         1 UNK         0.0828 
    108 H108       26.4253  -33.2990  -41.4909 H         1 UNK         0.0828 
    109 H109       25.1534  -34.5036  -41.5620 H         1 UNK         0.0828 
    110 H110       22.4954  -30.7575  -41.5958 H         1 UNK         0.2931 
    111 H111       20.4675  -30.6986  -42.4723 H         1 UNK         0.0412 
    112 H112       21.7945  -32.5196  -45.5680 H         1 UNK         0.3472 
    113 H113       22.6661  -31.7404  -44.2629 H         1 UNK         0.3472 
    114 H114       20.1651  -33.3690  -41.0502 H         1 UNK         0.0970 
    115 H115       18.8567  -32.7115  -41.9666 H         1 UNK         0.0970 
    116 H116       17.0774  -32.1631  -40.4673 H         1 UNK         0.0612 
    117 H117       17.0841  -30.8638  -39.3116 H         1 UNK         0.0612 
@<TRIPOS>BOND
     1    1    2 1    
     2    1   62 1    
     3    1   63 1    
     4    1   64 1    
     5    2    3 2    
     6    2    4 am   BACKBONE|DICT|INTERRES
     7    4    5 1    
     8    4   65 1    
     9    5    6 1    
    10    5   25 1    
    11    5   66 1    
    12    6    7 1    
    13    6   67 1    
    14    6   68 1    
    15    7    8 1    
    16    8    9 1    
    17    8   69 1    
    18    8   70 1    
    19    9   10 ar   
    20    9   14 ar   
    21   10   11 ar   
    22   10   71 1    
    23   11   12 ar   
    24   11   61 1    
    25   12   13 ar   
    26   12   72 1    
    27   13   14 ar   
    28   13   15 1    
    29   14   73 1    
    30   15   16 1    
    31   15   74 1    
    32   15   75 1    
    33   16   17 1    
    34   17   18 1    
    35   17   76 1    
    36   17   77 1    
    37   18   19 1    
    38   18   27 1    
    39   18   78 1    
    40   19   20 am   BACKBONE|DICT|INTERRES
    41   19   79 1    
    42   20   21 2    
    43   20   22 1    
    44   22   23 1    
    45   22   24 1    
    46   22   80 1    
    47   23   81 1    
    48   23   82 1    
    49   23   83 1    
    50   24   25 am   BACKBONE|DICT|INTERRES
    51   24   84 1    
    52   25   26 2    
    53   27   28 2    
    54   27   29 am   BACKBONE|DICT|INTERRES
    55   29   30 1    
    56   29   85 1    
    57   30   31 1    
    58   30   32 1    
    59   30   86 1    
    60   31   87 1    
    61   31   88 1    
    62   31   89 1    
    63   32   33 2    
    64   32   34 am   BACKBONE|DICT|INTERRES
    65   34   35 1    
    66   34   90 1    
    67   35   36 1    
    68   35   37 1    
    69   35   91 1    
    70   36   92 1    
    71   36   93 1    
    72   36   94 1    
    73   37   38 2    
    74   37   39 am   BACKBONE|DICT|INTERRES
    75   39   40 1    
    76   39   95 1    
    77   40   41 1    
    78   40   42 1    
    79   40   96 1    
    80   41   97 1    
    81   41   98 1    
    82   41   99 1    
    83   42   43 2    
    84   42   44 am   BACKBONE|DICT|INTERRES
    85   44   45 1    
    86   44  100 1    
    87   45   46 1    
    88   45   47 1    
    89   45  101 1    
    90   46  102 1    
    91   46  103 1    
    92   46  104 1    
    93   47   48 2    
    94   47   49 am   BACKBONE|DICT|INTERRES
    95   49   50 1    
    96   49  105 1    
    97   50   51 1    
    98   50   52 1    
    99   50  106 1    
   100   51  107 1    
   101   51  108 1    
   102   51  109 1    
   103   52   53 2    
   104   52   54 am   BACKBONE|DICT|INTERRES
   105   54   55 1    
   106   54  110 1    
   107   55   56 1    
   108   55   59 1    
   109   55  111 1    
   110   56   57 am   BACKBONE|DICT|INTERRES
   111   56   58 2    
   112   57  112 1    
   113   57  113 1    
   114   59   60 1    
   115   59  114 1    
   116   59  115 1    
   117   60   61 1    
   118   61  116 1    
   119   61  117 1    
@<TRIPOS>SUBSTRUCTURE
     1 UNK         1 GROUP             0       ****    0 ROOT    
