@<TRIPOS>MOLECULE
3R8
117   119    1
SMALL
USER_CHARGES


@<TRIPOS>ATOM
      1 CA         20.0216  -29.4843  -42.4186 C.3       0 UNK        -0.2013 
      2 C          18.5885  -28.9857  -42.3968 C.2       0 UNK         0.4866 
      3 O          18.0701  -28.6901  -41.3206 O.2       0 UNK        -0.5176 
      4 N          17.9456  -28.8923  -43.5708 N.am      1 UNK        -0.4884 
      5 CA         16.6835  -28.1620  -43.7606 C.3       1 UNK         0.0853 
      6 C6         15.9827  -28.4928  -45.1033 C.3       10 UNK        -0.0849 
      7 S7         15.4463  -30.2309  -45.2146 S.3       10 UNK        -0.2776 
      8 C8         16.4713  -30.8571  -46.5887 C.3       10 UNK         0.0316 
      9 C9         17.9249  -31.0452  -46.1774 C.ar      10 UNK        -0.0863 
     10 C10        18.2418  -31.9560  -45.1674 C.ar      10 UNK        -0.1009 
     11 C11        19.5644  -32.1347  -44.7443 C.ar      10 UNK        -0.0712 
     12 C12        20.5786  -31.4280  -45.4031 C.ar      10 UNK        -0.0894 
     13 C13        20.2817  -30.5274  -46.4325 C.ar      10 UNK        -0.0745 
     14 C14        18.9488  -30.3325  -46.8079 C.ar      10 UNK        -0.0972 
     15 C15        21.4004  -29.8072  -47.1790 C.3       10 UNK         0.0209 
     16 S16        21.4331  -28.0115  -46.8651 S.3       10 UNK        -0.2568 
     17 C17        22.2865  -27.9291  -45.2542 C.3       10 UNK        -0.0983 
     18 CA         22.0416  -26.5964  -44.4887 C.3       3 UNK         0.0876 
     19 N          20.6156  -26.2525  -44.4280 N.am      3 UNK        -0.4424 
     20 C          20.0959  -25.0184  -44.3424 C.2       2 UNK         0.4918 
     21 O          20.7851  -24.0071  -44.2065 O.2       2 UNK        -0.4875 
     22 CA         18.5620  -24.8815  -44.4075 C.3       2 UNK         0.0481 
     23 CB         18.1383  -24.0399  -45.6231 C.3       2 UNK        -0.1831 
     24 N          17.9159  -26.1931  -44.4823 N.am      2 UNK        -0.4498 
     25 C          16.9668  -26.6509  -43.6547 C.2       1 UNK         0.5027 
     26 O          16.3835  -25.9658  -42.8139 O.2       1 UNK        -0.4969 
     27 C          22.6650  -26.6145  -43.0740 C.2       3 UNK         0.5005 
     28 O          23.2905  -27.6041  -42.6900 O.2       3 UNK        -0.5279 
     29 N          22.4415  -25.5389  -42.3054 N.am      4 UNK        -0.4463 
     30 CA         22.8539  -25.3777  -40.9092 C.3       4 UNK         0.0283 
     31 CB         22.3619  -24.0168  -40.3919 C.3       4 UNK        -0.1875 
     32 C          24.3732  -25.5075  -40.7200 C.2       4 UNK         0.4949 
     33 O          25.1373  -25.0408  -41.5677 O.2       4 UNK        -0.5039 
     34 N          24.7738  -26.1610  -39.6215 N.am      5 UNK        -0.4663 
     35 CA         26.1409  -26.5194  -39.2079 C.3       5 UNK         0.0242 
     36 CB         27.0363  -25.2750  -39.0449 C.3       5 UNK        -0.1982 
     37 C          26.8178  -27.5832  -40.0941 C.2       5 UNK         0.5017 
     38 O          27.5334  -28.4323  -39.5616 O.2       5 UNK        -0.5012 
     39 N          26.5729  -27.5421  -41.4100 N.am      6 UNK        -0.4439 
     40 CA         27.0122  -28.5400  -42.3865 C.3       6 UNK         0.0297 
     41 CB         26.7952  -27.9937  -43.8070 C.3       6 UNK        -0.2006 
     42 C          26.2974  -29.8915  -42.2127 C.2       6 UNK         0.4892 
     43 O          26.9241  -30.9337  -42.4090 O.2       6 UNK        -0.5089 
     44 N          25.0135  -29.8503  -41.8403 N.am      7 UNK        -0.4243 
     45 CA         24.1643  -31.0051  -41.5736 C.3       7 UNK         0.0196 
     46 CB         23.5006  -31.4536  -42.8889 C.3       7 UNK        -0.2007 
     47 C          23.1167  -30.6346  -40.5139 C.2       7 UNK         0.5020 
     48 O          23.0250  -29.4741  -40.1053 O.2       7 UNK        -0.5147 
     49 N          22.3283  -31.6305  -40.0997 N.am      8 UNK        -0.4734 
     50 CA         21.1768  -31.4742  -39.2165 C.3       8 UNK         0.0238 
     51 CB         21.5795  -31.7823  -37.7638 C.3       8 UNK        -0.1912 
     52 C          20.0808  -32.4237  -39.7107 C.2       8 UNK         0.5038 
     53 O          20.3453  -33.6194  -39.8504 O.2       8 UNK        -0.5046 
     54 N          18.8945  -31.8701  -39.9749 N.am      9 UNK        -0.4200 
     55 CA         17.6908  -32.5714  -40.4383 C.3       9 UNK         0.0839 
     56 C          16.4302  -31.8928  -39.8437 C.2       9 UNK         0.5513 
     57 N          16.3306  -30.5668  -39.8535 N.am      9 UNK        -0.7519 
     58 O          15.5359  -32.5764  -39.3532 O.2       9 UNK        -0.4960 
     59 C59        17.5882  -32.6586  -41.9880 C.3       10 UNK        -0.0876 
     60 S60        18.6028  -33.9744  -42.7507 S.3       10 UNK        -0.2414 
     61 C61        19.9537  -33.0605  -43.5845 C.3       10 UNK         0.0169 
     62 H62        20.1073  -30.4313  -41.8971 H         1 UNK         0.0903 
     63 H63        20.3748  -29.6272  -43.4336 H         1 UNK         0.0903 
     64 H64        20.6801  -28.7676  -41.9278 H         1 UNK         0.0903 
     65 H65        18.3595  -29.2845  -44.4060 H         1 UNK         0.3096 
     66 H66        16.0041  -28.4272  -42.9467 H         1 UNK         0.1121 
     67 H67        15.0897  -27.8758  -45.2228 H         1 UNK         0.0849 
     68 H68        16.6251  -28.2538  -45.9525 H         1 UNK         0.0849 
     69 H69        16.0722  -31.8194  -46.9127 H         1 UNK         0.0865 
     70 H70        16.3840  -30.1887  -47.4468 H         1 UNK         0.0865 
     71 H71        17.4345  -32.5053  -44.7068 H         1 UNK         0.1346 
     72 H72        21.6083  -31.5815  -45.1126 H         1 UNK         0.1412 
     73 H73        18.7157  -29.6399  -47.6057 H         1 UNK         0.1426 
     74 H74        21.2638  -29.9673  -48.2494 H         1 UNK         0.0716 
     75 H75        22.3741  -30.2343  -46.9334 H         1 UNK         0.0716 
     76 H76        23.3547  -28.0665  -45.4321 H         1 UNK         0.0695 
     77 H77        21.9747  -28.7845  -44.6586 H         1 UNK         0.0695 
     78 H78        22.5569  -25.8082  -45.0424 H         1 UNK         0.0983 
     79 H79        19.9860  -27.0345  -44.4828 H         1 UNK         0.3095 
     80 H80        18.2552  -24.3598  -43.4987 H         1 UNK         0.0454 
     81 H81        18.5844  -23.0451  -45.5867 H         1 UNK         0.0851 
     82 H82        17.0569  -23.9068  -45.6538 H         1 UNK         0.0851 
     83 H83        18.4462  -24.5018  -46.5619 H         1 UNK         0.0851 
     84 H84        18.2756  -26.8215  -45.1854 H         1 UNK         0.2976 
     85 H85        21.9381  -24.7664  -42.7282 H         1 UNK         0.3116 
     86 H86        22.3622  -26.1672  -40.3365 H         1 UNK         0.0646 
     87 H87        22.6298  -23.8760  -39.3438 H         1 UNK         0.0847 
     88 H88        21.2773  -23.9321  -40.4616 H         1 UNK         0.0847 
     89 H89        22.8007  -23.1910  -40.9536 H         1 UNK         0.0847 
     90 H90        24.0485  -26.5356  -39.0238 H         1 UNK         0.3040 
     91 H91        26.0348  -26.9723  -38.2204 H         1 UNK         0.1015 
     92 H92        28.0023  -25.5474  -38.6177 H         1 UNK         0.0786 
     93 H93        26.5815  -24.5435  -38.3770 H         1 UNK         0.0786 
     94 H94        27.2345  -24.7831  -39.9974 H         1 UNK         0.0786 
     95 H95        25.9921  -26.7797  -41.7476 H         1 UNK         0.3172 
     96 H96        28.0820  -28.7054  -42.2429 H         1 UNK         0.0595 
     97 H97        25.7418  -27.7919  -44.0057 H         1 UNK         0.0839 
     98 H98        27.1364  -28.7096  -44.5560 H         1 UNK         0.0839 
     99 H99        27.3499  -27.0689  -43.9663 H         1 UNK         0.0839 
    100 H100       24.5512  -28.9525  -41.7191 H         1 UNK         0.2998 
    101 H101       24.7724  -31.8182  -41.1712 H         1 UNK         0.0822 
    102 H102       24.2442  -31.6717  -43.6557 H         1 UNK         0.0787 
    103 H103       22.8390  -30.6791  -43.2775 H         1 UNK         0.0787 
    104 H104       22.9113  -32.3597  -42.7501 H         1 UNK         0.0787 
    105 H105       22.4439  -32.5582  -40.4879 H         1 UNK         0.3055 
    106 H106       20.8073  -30.4468  -39.2669 H         1 UNK         0.1106 
    107 H107       21.9645  -32.7973  -37.6575 H         1 UNK         0.0828 
    108 H108       22.3492  -31.0945  -37.4133 H         1 UNK         0.0828 
    109 H109       20.7255  -31.6838  -37.0926 H         1 UNK         0.0828 
    110 H110       18.7525  -30.8917  -39.7672 H         1 UNK         0.2931 
    111 H111       17.7078  -33.5874  -40.0376 H         1 UNK         0.0412 
    112 H112       17.0044  -29.9690  -40.3216 H         1 UNK         0.3472 
    113 H113       15.5078  -30.1480  -39.4492 H         1 UNK         0.3472 
    114 H114       16.5601  -32.8732  -42.2877 H         1 UNK         0.0970 
    115 H115       17.8212  -31.6956  -42.4371 H         1 UNK         0.0970 
    116 H116       20.6631  -33.7982  -43.9618 H         1 UNK         0.0612 
    117 H117       20.4887  -32.4860  -42.8301 H         1 UNK         0.0612 
@<TRIPOS>BOND
     1    1    2 1    
     2    1   62 1    
     3    1   63 1    
     4    1   64 1    
     5    2    3 2    
     6    2    4 am   BACKBONE|DICT|INTERRES
     7    4    5 1    
     8    4   65 1    
     9    5    6 1    
    10    5   25 1    
    11    5   66 1    
    12    6    7 1    
    13    6   67 1    
    14    6   68 1    
    15    7    8 1    
    16    8    9 1    
    17    8   69 1    
    18    8   70 1    
    19    9   10 ar   
    20    9   14 ar   
    21   10   11 ar   
    22   10   71 1    
    23   11   12 ar   
    24   11   61 1    
    25   12   13 ar   
    26   12   72 1    
    27   13   14 ar   
    28   13   15 1    
    29   14   73 1    
    30   15   16 1    
    31   15   74 1    
    32   15   75 1    
    33   16   17 1    
    34   17   18 1    
    35   17   76 1    
    36   17   77 1    
    37   18   19 1    
    38   18   27 1    
    39   18   78 1    
    40   19   20 am   BACKBONE|DICT|INTERRES
    41   19   79 1    
    42   20   21 2    
    43   20   22 1    
    44   22   23 1    
    45   22   24 1    
    46   22   80 1    
    47   23   81 1    
    48   23   82 1    
    49   23   83 1    
    50   24   25 am   BACKBONE|DICT|INTERRES
    51   24   84 1    
    52   25   26 2    
    53   27   28 2    
    54   27   29 am   BACKBONE|DICT|INTERRES
    55   29   30 1    
    56   29   85 1    
    57   30   31 1    
    58   30   32 1    
    59   30   86 1    
    60   31   87 1    
    61   31   88 1    
    62   31   89 1    
    63   32   33 2    
    64   32   34 am   BACKBONE|DICT|INTERRES
    65   34   35 1    
    66   34   90 1    
    67   35   36 1    
    68   35   37 1    
    69   35   91 1    
    70   36   92 1    
    71   36   93 1    
    72   36   94 1    
    73   37   38 2    
    74   37   39 am   BACKBONE|DICT|INTERRES
    75   39   40 1    
    76   39   95 1    
    77   40   41 1    
    78   40   42 1    
    79   40   96 1    
    80   41   97 1    
    81   41   98 1    
    82   41   99 1    
    83   42   43 2    
    84   42   44 am   BACKBONE|DICT|INTERRES
    85   44   45 1    
    86   44  100 1    
    87   45   46 1    
    88   45   47 1    
    89   45  101 1    
    90   46  102 1    
    91   46  103 1    
    92   46  104 1    
    93   47   48 2    
    94   47   49 am   BACKBONE|DICT|INTERRES
    95   49   50 1    
    96   49  105 1    
    97   50   51 1    
    98   50   52 1    
    99   50  106 1    
   100   51  107 1    
   101   51  108 1    
   102   51  109 1    
   103   52   53 2    
   104   52   54 am   BACKBONE|DICT|INTERRES
   105   54   55 1    
   106   54  110 1    
   107   55   56 1    
   108   55   59 1    
   109   55  111 1    
   110   56   57 am   BACKBONE|DICT|INTERRES
   111   56   58 2    
   112   57  112 1    
   113   57  113 1    
   114   59   60 1    
   115   59  114 1    
   116   59  115 1    
   117   60   61 1    
   118   61  116 1    
   119   61  117 1    
@<TRIPOS>SUBSTRUCTURE
     1 UNK         1 GROUP             0       ****    0 ROOT    
