@<TRIPOS>MOLECULE
3R8
117   119    1
SMALL
USER_CHARGES


@<TRIPOS>ATOM
      1 CA         20.8018  -29.8523  -43.3793 C.3       0 UNK        -0.2013 
      2 C          20.4839  -28.5995  -42.5846 C.2       0 UNK         0.4866 
      3 O          21.4020  -27.9903  -42.0431 O.2       0 UNK        -0.5176 
      4 N          19.2058  -28.1965  -42.5002 N.am      1 UNK        -0.4884 
      5 CA         18.7727  -27.0105  -41.7409 C.3       1 UNK         0.0853 
      6 C6         17.2363  -26.9535  -41.5389 C.3       10 UNK        -0.0849 
      7 S7         16.2543  -26.6107  -43.0438 S.3       10 UNK        -0.2776 
      8 C8         15.3900  -28.1867  -43.3306 C.3       10 UNK         0.0316 
      9 C9         16.2887  -29.2131  -44.0028 C.ar      10 UNK        -0.0863 
     10 C10        16.6715  -30.3754  -43.3273 C.ar      10 UNK        -0.1009 
     11 C11        17.4714  -31.3329  -43.9602 C.ar      10 UNK        -0.0712 
     12 C12        17.8819  -31.1201  -45.2820 C.ar      10 UNK        -0.0894 
     13 C13        17.5113  -29.9583  -45.9661 C.ar      10 UNK        -0.0745 
     14 C14        16.7077  -29.0137  -45.3216 C.ar      10 UNK        -0.0972 
     15 C15        17.9290  -29.7500  -47.4176 C.3       10 UNK         0.0209 
     16 S16        18.8475  -28.1975  -47.6810 S.3       10 UNK        -0.2568 
     17 C17        20.5196  -28.6420  -47.1058 C.3       10 UNK        -0.0983 
     18 CA         21.3756  -27.3811  -46.8142 C.3       3 UNK         0.0876 
     19 N          20.8035  -26.5883  -45.7263 N.am      3 UNK        -0.4424 
     20 C          20.9185  -25.2617  -45.5750 C.2       2 UNK         0.4918 
     21 O          21.5968  -24.5556  -46.3228 O.2       2 UNK        -0.4875 
     22 CA         20.1460  -24.6091  -44.4121 C.3       2 UNK         0.0481 
     23 CB         19.1663  -23.5396  -44.9244 C.3       2 UNK        -0.1831 
     24 N          19.4077  -25.6077  -43.6377 N.am      2 UNK        -0.4498 
     25 C          19.3667  -25.6986  -42.3033 C.2       1 UNK         0.5027 
     26 O          19.8140  -24.8465  -41.5341 O.2       1 UNK        -0.4969 
     27 C          22.8460  -27.7161  -46.4971 C.2       3 UNK         0.5005 
     28 O          23.1596  -28.8586  -46.1582 O.2       3 UNK        -0.5279 
     29 N          23.7125  -26.6950  -46.5733 N.am      4 UNK        -0.4463 
     30 CA         25.1720  -26.6889  -46.3730 C.3       4 UNK         0.0283 
     31 CB         25.8804  -27.6332  -47.3641 C.3       4 UNK        -0.1875 
     32 C          25.6455  -26.9524  -44.9299 C.2       4 UNK         0.4949 
     33 O          26.6165  -26.3291  -44.4988 O.2       4 UNK        -0.5039 
     34 N          24.9692  -27.8539  -44.2112 N.am      5 UNK        -0.4663 
     35 CA         25.1893  -28.1565  -42.7959 C.3       5 UNK         0.0242 
     36 CB         24.6485  -29.5711  -42.5089 C.3       5 UNK        -0.1982 
     37 C          24.5544  -27.0961  -41.8711 C.2       5 UNK         0.5017 
     38 O          24.0473  -26.0736  -42.3403 O.2       5 UNK        -0.5012 
     39 N          24.6006  -27.3664  -40.5620 N.am      6 UNK        -0.4439 
     40 CA         23.9911  -26.5595  -39.5080 C.3       6 UNK         0.0297 
     41 CB         25.0995  -25.8882  -38.6743 C.3       6 UNK        -0.2006 
     42 C          23.0791  -27.4705  -38.6751 C.2       6 UNK         0.4892 
     43 O          23.3917  -27.7689  -37.5209 O.2       6 UNK        -0.5089 
     44 N          21.9859  -27.9202  -39.3052 N.am      7 UNK        -0.4243 
     45 CA         21.0021  -28.8869  -38.8098 C.3       7 UNK         0.0196 
     46 CB         20.2986  -28.3817  -37.5285 C.3       7 UNK        -0.2007 
     47 C          21.6037  -30.3002  -38.7036 C.2       7 UNK         0.5020 
     48 O          22.4542  -30.6601  -39.5214 O.2       7 UNK        -0.5147 
     49 N          21.1119  -31.0954  -37.7433 N.am      8 UNK        -0.4734 
     50 CA         21.4280  -32.5037  -37.4561 C.3       8 UNK         0.0238 
     51 CB         22.9227  -32.7046  -37.1347 C.3       8 UNK        -0.1912 
     52 C          20.9483  -33.4932  -38.5340 C.2       8 UNK         0.5038 
     53 O          20.3103  -34.4866  -38.1837 O.2       8 UNK        -0.5046 
     54 N          21.2471  -33.2047  -39.8077 N.am      9 UNK        -0.4200 
     55 CA         20.8691  -33.9862  -40.9999 C.3       9 UNK         0.0839 
     56 C          21.4913  -35.4164  -41.0625 C.2       9 UNK         0.5513 
     57 N          22.5787  -35.6924  -40.3521 N.am      9 UNK        -0.7519 
     58 O          21.0082  -36.2816  -41.7888 O.2       9 UNK        -0.4960 
     59 C59        19.3327  -33.9715  -41.2552 C.3       10 UNK        -0.0876 
     60 S60        18.7232  -32.2960  -41.6554 S.3       10 UNK        -0.2414 
     61 C61        17.8703  -32.6130  -43.2357 C.3       10 UNK         0.0169 
     62 H62        21.0946  -30.6572  -42.7058 H         1 UNK         0.0903 
     63 H63        19.9520  -30.1851  -43.9640 H         1 UNK         0.0903 
     64 H64        21.6280  -29.6661  -44.0637 H         1 UNK         0.0903 
     65 H65        18.4725  -28.7275  -42.9538 H         1 UNK         0.3096 
     66 H66        19.2051  -27.1153  -40.7434 H         1 UNK         0.1121 
     67 H67        16.9962  -26.1763  -40.8110 H         1 UNK         0.0849 
     68 H68        16.8942  -27.8842  -41.0837 H         1 UNK         0.0849 
     69 H69        14.9843  -28.5655  -42.3911 H         1 UNK         0.0865 
     70 H70        14.5297  -27.9995  -43.9748 H         1 UNK         0.0865 
     71 H71        16.3416  -30.5439  -42.3109 H         1 UNK         0.1346 
     72 H72        18.4895  -31.8628  -45.7810 H         1 UNK         0.1412 
     73 H73        16.4024  -28.1209  -45.8510 H         1 UNK         0.1426 
     74 H74        17.0298  -29.7285  -48.0346 H         1 UNK         0.0716 
     75 H75        18.5281  -30.5865  -47.7808 H         1 UNK         0.0716 
     76 H76        20.9870  -29.2533  -47.8802 H         1 UNK         0.0695 
     77 H77        20.4381  -29.2738  -46.2209 H         1 UNK         0.0695 
     78 H78        21.3803  -26.7771  -47.7250 H         1 UNK         0.0983 
     79 H79        20.2933  -27.1097  -45.0336 H         1 UNK         0.3095 
     80 H80        20.8922  -24.1271  -43.7774 H         1 UNK         0.0454 
     81 H81        19.6884  -22.7654  -45.4881 H         1 UNK         0.0851 
     82 H82        18.6526  -23.0467  -44.0990 H         1 UNK         0.0851 
     83 H83        18.4091  -23.9692  -45.5814 H         1 UNK         0.0851 
     84 H84        18.9144  -26.3148  -44.1634 H         1 UNK         0.2976 
     85 H85        23.3075  -25.7832  -46.7603 H         1 UNK         0.3116 
     86 H86        25.4877  -25.6727  -46.6150 H         1 UNK         0.0646 
     87 H87        25.6312  -28.6789  -47.1818 H         1 UNK         0.0847 
     88 H88        25.6154  -27.3992  -48.3950 H         1 UNK         0.0847 
     89 H89        26.9641  -27.5416  -47.2798 H         1 UNK         0.0847 
     90 H90        24.1946  -28.3232  -44.6723 H         1 UNK         0.3040 
     91 H91        26.2650  -28.1535  -42.6065 H         1 UNK         0.1015 
     92 H92        24.9292  -29.9172  -41.5138 H         1 UNK         0.0786 
     93 H93        25.0419  -30.2988  -43.2190 H         1 UNK         0.0786 
     94 H94        23.5613  -29.6044  -42.5660 H         1 UNK         0.0786 
     95 H95        24.9909  -28.2499  -40.2637 H         1 UNK         0.3172 
     96 H96        23.3597  -25.7751  -39.9313 H         1 UNK         0.0595 
     97 H97        25.7699  -26.6212  -38.2240 H         1 UNK         0.0839 
     98 H98        24.6726  -25.2942  -37.8652 H         1 UNK         0.0839 
     99 H99        25.7013  -25.2166  -39.2868 H         1 UNK         0.0839 
    100 H100       21.8935  -27.7086  -40.2986 H         1 UNK         0.2998 
    101 H101       20.2408  -28.9596  -39.5863 H         1 UNK         0.0822 
    102 H102       19.4168  -28.9795  -37.2959 H         1 UNK         0.0787 
    103 H103       19.9570  -27.3535  -37.6492 H         1 UNK         0.0787 
    104 H104       20.9576  -28.4105  -36.6598 H         1 UNK         0.0787 
    105 H105       20.3960  -30.6973  -37.1508 H         1 UNK         0.3055 
    106 H106       20.8708  -32.7478  -36.5497 H         1 UNK         0.1106 
    107 H107       23.2436  -32.0517  -36.3230 H         1 UNK         0.0828 
    108 H108       23.1169  -33.7308  -36.8202 H         1 UNK         0.0828 
    109 H109       23.5615  -32.5054  -37.9954 H         1 UNK         0.0828 
    110 H110       21.7779  -32.3537  -39.9738 H         1 UNK         0.2931 
    111 H111       21.3349  -33.4657  -41.8376 H         1 UNK         0.0412 
    112 H112       22.9966  -34.9893  -39.7643 H         1 UNK         0.3472 
    113 H113       22.9831  -36.6144  -40.4050 H         1 UNK         0.3472 
    114 H114       19.0721  -34.6408  -42.0764 H         1 UNK         0.0970 
    115 H115       18.7887  -34.3494  -40.3887 H         1 UNK         0.0970 
    116 H116       18.5212  -33.2155  -43.8713 H         1 UNK         0.0612 
    117 H117       16.9772  -33.2101  -43.0466 H         1 UNK         0.0612 
@<TRIPOS>BOND
     1    1    2 1    
     2    1   62 1    
     3    1   63 1    
     4    1   64 1    
     5    2    3 2    
     6    2    4 am   BACKBONE|DICT|INTERRES
     7    4    5 1    
     8    4   65 1    
     9    5    6 1    
    10    5   25 1    
    11    5   66 1    
    12    6    7 1    
    13    6   67 1    
    14    6   68 1    
    15    7    8 1    
    16    8    9 1    
    17    8   69 1    
    18    8   70 1    
    19    9   10 ar   
    20    9   14 ar   
    21   10   11 ar   
    22   10   71 1    
    23   11   12 ar   
    24   11   61 1    
    25   12   13 ar   
    26   12   72 1    
    27   13   14 ar   
    28   13   15 1    
    29   14   73 1    
    30   15   16 1    
    31   15   74 1    
    32   15   75 1    
    33   16   17 1    
    34   17   18 1    
    35   17   76 1    
    36   17   77 1    
    37   18   19 1    
    38   18   27 1    
    39   18   78 1    
    40   19   20 am   BACKBONE|DICT|INTERRES
    41   19   79 1    
    42   20   21 2    
    43   20   22 1    
    44   22   23 1    
    45   22   24 1    
    46   22   80 1    
    47   23   81 1    
    48   23   82 1    
    49   23   83 1    
    50   24   25 am   BACKBONE|DICT|INTERRES
    51   24   84 1    
    52   25   26 2    
    53   27   28 2    
    54   27   29 am   BACKBONE|DICT|INTERRES
    55   29   30 1    
    56   29   85 1    
    57   30   31 1    
    58   30   32 1    
    59   30   86 1    
    60   31   87 1    
    61   31   88 1    
    62   31   89 1    
    63   32   33 2    
    64   32   34 am   BACKBONE|DICT|INTERRES
    65   34   35 1    
    66   34   90 1    
    67   35   36 1    
    68   35   37 1    
    69   35   91 1    
    70   36   92 1    
    71   36   93 1    
    72   36   94 1    
    73   37   38 2    
    74   37   39 am   BACKBONE|DICT|INTERRES
    75   39   40 1    
    76   39   95 1    
    77   40   41 1    
    78   40   42 1    
    79   40   96 1    
    80   41   97 1    
    81   41   98 1    
    82   41   99 1    
    83   42   43 2    
    84   42   44 am   BACKBONE|DICT|INTERRES
    85   44   45 1    
    86   44  100 1    
    87   45   46 1    
    88   45   47 1    
    89   45  101 1    
    90   46  102 1    
    91   46  103 1    
    92   46  104 1    
    93   47   48 2    
    94   47   49 am   BACKBONE|DICT|INTERRES
    95   49   50 1    
    96   49  105 1    
    97   50   51 1    
    98   50   52 1    
    99   50  106 1    
   100   51  107 1    
   101   51  108 1    
   102   51  109 1    
   103   52   53 2    
   104   52   54 am   BACKBONE|DICT|INTERRES
   105   54   55 1    
   106   54  110 1    
   107   55   56 1    
   108   55   59 1    
   109   55  111 1    
   110   56   57 am   BACKBONE|DICT|INTERRES
   111   56   58 2    
   112   57  112 1    
   113   57  113 1    
   114   59   60 1    
   115   59  114 1    
   116   59  115 1    
   117   60   61 1    
   118   61  116 1    
   119   61  117 1    
@<TRIPOS>SUBSTRUCTURE
     1 UNK         1 GROUP             0       ****    0 ROOT    
