@<TRIPOS>MOLECULE
3R8
117   119    1
SMALL
USER_CHARGES


@<TRIPOS>ATOM
      1 CA         13.7919  -23.6842  -45.8280 C.3       0 UNK        -0.2013 
      2 C          14.6434  -24.8379  -46.3362 C.2       0 UNK         0.4866 
      3 O          14.6016  -25.1522  -47.5259 O.2       0 UNK        -0.5176 
      4 N          15.4166  -25.4715  -45.4443 N.am      1 UNK        -0.4884 
      5 CA         16.2846  -26.6175  -45.7540 C.3       1 UNK         0.0853 
      6 C6         16.7094  -27.3825  -44.4738 C.3       10 UNK        -0.0849 
      7 S7         15.2892  -28.0993  -43.5802 S.3       10 UNK        -0.2776 
      8 C8         15.8237  -27.9559  -41.8424 C.3       10 UNK         0.0316 
      9 C9         17.0556  -28.8026  -41.5463 C.ar      10 UNK        -0.0863 
     10 C10        16.9540  -30.1956  -41.4790 C.ar      10 UNK        -0.1009 
     11 C11        18.0809  -30.9784  -41.2083 C.ar      10 UNK        -0.0712 
     12 C12        19.3178  -30.3590  -41.0063 C.ar      10 UNK        -0.0894 
     13 C13        19.4331  -28.9680  -41.0735 C.ar      10 UNK        -0.0745 
     14 C14        18.2961  -28.1946  -41.3303 C.ar      10 UNK        -0.0972 
     15 C15        20.7878  -28.3048  -40.8702 C.3       10 UNK         0.0209 
     16 S16        21.6837  -28.1098  -42.4448 S.3       10 UNK        -0.2568 
     17 C17        20.6833  -26.8106  -43.2358 C.3       10 UNK        -0.0983 
     18 CA         21.3746  -26.1108  -44.4293 C.3       3 UNK         0.0876 
     19 N          20.3756  -25.3654  -45.1876 N.am      3 UNK        -0.4424 
     20 C          20.4472  -25.0432  -46.4829 C.2       2 UNK         0.4918 
     21 O          21.4212  -25.2818  -47.1990 O.2       2 UNK        -0.4875 
     22 CA         19.1812  -24.3773  -47.0662 C.3       2 UNK         0.0481 
     23 CB         19.1496  -24.3910  -48.6090 C.3       2 UNK        -0.1831 
     24 N          17.9424  -24.9453  -46.5056 N.am      2 UNK        -0.4498 
     25 C          17.5365  -26.2269  -46.5703 C.2       1 UNK         0.5027 
     26 O          18.1233  -27.1011  -47.2095 O.2       1 UNK        -0.4969 
     27 C          22.5129  -25.1807  -43.9664 C.2       3 UNK         0.5005 
     28 O          22.2671  -24.0104  -43.6629 O.2       3 UNK        -0.5279 
     29 N          23.7232  -25.7421  -43.8592 N.am      4 UNK        -0.4463 
     30 CA         24.9197  -25.0945  -43.3131 C.3       4 UNK         0.0283 
     31 CB         26.1046  -25.3565  -44.2623 C.3       4 UNK        -0.1875 
     32 C          25.2013  -25.5822  -41.8772 C.2       4 UNK         0.4949 
     33 O          26.3632  -25.7566  -41.5084 O.2       4 UNK        -0.5039 
     34 N          24.1290  -25.8177  -41.1033 N.am      5 UNK        -0.4663 
     35 CA         24.1117  -26.3519  -39.7320 C.3       5 UNK         0.0242 
     36 CB         24.7596  -25.3578  -38.7442 C.3       5 UNK        -0.1982 
     37 C          24.6962  -27.7767  -39.6210 C.2       5 UNK         0.5017 
     38 O          25.3023  -28.1201  -38.6043 O.2       5 UNK        -0.5012 
     39 N          24.4985  -28.5841  -40.6709 N.am      6 UNK        -0.4439 
     40 CA         24.9182  -29.9791  -40.7528 C.3       6 UNK         0.0297 
     41 CB         25.0324  -30.3847  -42.2334 C.3       6 UNK        -0.2006 
     42 C          23.9171  -30.8690  -40.0043 C.2       6 UNK         0.4892 
     43 O          22.8608  -31.1895  -40.5511 O.2       6 UNK        -0.5089 
     44 N          24.2680  -31.2658  -38.7738 N.am      7 UNK        -0.4243 
     45 CA         23.4547  -32.1202  -37.8961 C.3       7 UNK         0.0196 
     46 CB         24.1527  -32.2510  -36.5328 C.3       7 UNK        -0.2007 
     47 C          23.1393  -33.5138  -38.4753 C.2       7 UNK         0.5020 
     48 O          22.1437  -34.1215  -38.0825 O.2       7 UNK        -0.5147 
     49 N          23.9719  -33.9819  -39.4152 N.am      8 UNK        -0.4734 
     50 CA         23.7655  -35.2048  -40.1946 C.3       8 UNK         0.0238 
     51 CB         25.1036  -35.6138  -40.8340 C.3       8 UNK        -0.1912 
     52 C          22.6680  -35.0832  -41.2723 C.2       8 UNK         0.5038 
     53 O          22.2857  -36.1088  -41.8370 O.2       8 UNK        -0.5046 
     54 N          22.1883  -33.8603  -41.5504 N.am      9 UNK        -0.4200 
     55 CA         21.1753  -33.5416  -42.5709 C.3       9 UNK         0.0839 
     56 C          21.6861  -33.6579  -44.0406 C.2       9 UNK         0.5513 
     57 N          22.9922  -33.6640  -44.2824 N.am      9 UNK        -0.7519 
     58 O          20.8982  -33.7233  -44.9804 O.2       9 UNK        -0.4960 
     59 C59        19.8236  -34.2741  -42.3111 C.3       10 UNK        -0.0876 
     60 S60        18.3604  -33.2654  -42.7300 S.3       10 UNK        -0.2414 
     61 C61        17.9602  -32.4916  -41.1305 C.3       10 UNK         0.0169 
     62 H62        13.9255  -23.5177  -44.7592 H         1 UNK         0.0903 
     63 H63        14.0552  -22.7648  -46.3502 H         1 UNK         0.0903 
     64 H64        12.7371  -23.8889  -46.0093 H         1 UNK         0.0903 
     65 H65        15.3875  -25.1928  -44.4734 H         1 UNK         0.3096 
     66 H66        15.7145  -27.3065  -46.3821 H         1 UNK         0.1121 
     67 H67        17.3857  -28.2053  -44.7169 H         1 UNK         0.0849 
     68 H68        17.2636  -26.7215  -43.8054 H         1 UNK         0.0849 
     69 H69        16.0037  -26.9065  -41.6038 H         1 UNK         0.0865 
     70 H70        15.0058  -28.2761  -41.1951 H         1 UNK         0.0865 
     71 H71        15.9962  -30.6702  -41.6450 H         1 UNK         0.1346 
     72 H72        20.1941  -30.9592  -40.8026 H         1 UNK         0.1412 
     73 H73        18.3809  -27.1177  -41.3746 H         1 UNK         0.1426 
     74 H74        21.3944  -28.9048  -40.1907 H         1 UNK         0.0716 
     75 H75        20.6682  -27.3331  -40.3889 H         1 UNK         0.0716 
     76 H76        20.3718  -26.0795  -42.4868 H         1 UNK         0.0695 
     77 H77        19.7714  -27.2982  -43.5838 H         1 UNK         0.0695 
     78 H78        21.7923  -26.8753  -45.0890 H         1 UNK         0.0983 
     79 H79        19.5616  -25.0688  -44.6719 H         1 UNK         0.3095 
     80 H80        19.2116  -23.3344  -46.7477 H         1 UNK         0.0454 
     81 H81        19.1848  -25.4051  -49.0080 H         1 UNK         0.0851 
     82 H82        20.0032  -23.8518  -49.0214 H         1 UNK         0.0851 
     83 H83        18.2489  -23.9112  -48.9916 H         1 UNK         0.0851 
     84 H84        17.3707  -24.3097  -45.9664 H         1 UNK         0.2976 
     85 H85        23.8200  -26.7205  -44.0949 H         1 UNK         0.3116 
     86 H86        24.7722  -24.0141  -43.2565 H         1 UNK         0.0646 
     87 H87        26.3504  -26.4176  -44.3192 H         1 UNK         0.0847 
     88 H88        27.0000  -24.8314  -43.9271 H         1 UNK         0.0847 
     89 H89        25.8882  -25.0073  -45.2720 H         1 UNK         0.0847 
     90 H90        23.2225  -25.6359  -41.5114 H         1 UNK         0.3040 
     91 H91        23.0605  -26.4443  -39.4547 H         1 UNK         0.1015 
     92 H92        25.8332  -25.2626  -38.9095 H         1 UNK         0.0786 
     93 H93        24.6187  -25.6828  -37.7126 H         1 UNK         0.0786 
     94 H94        24.3171  -24.3656  -38.8321 H         1 UNK         0.0786 
     95 H95        23.9327  -28.2409  -41.4347 H         1 UNK         0.3172 
     96 H96        25.9053  -30.0867  -40.2977 H         1 UNK         0.0595 
     97 H97        25.3443  -31.4254  -42.3293 H         1 UNK         0.0839 
     98 H98        25.7716  -29.7762  -42.7545 H         1 UNK         0.0839 
     99 H99        24.0827  -30.2808  -42.7605 H         1 UNK         0.0839 
    100 H100       25.1395  -30.9248  -38.3916 H         1 UNK         0.2998 
    101 H101       22.4987  -31.6143  -37.7451 H         1 UNK         0.0822 
    102 H102       23.5585  -32.8554  -35.8458 H         1 UNK         0.0787 
    103 H103       25.1299  -32.7269  -36.6238 H         1 UNK         0.0787 
    104 H104       24.2944  -31.2770  -36.0637 H         1 UNK         0.0787 
    105 H105       24.7724  -33.4170  -39.6590 H         1 UNK         0.3055 
    106 H106       23.4538  -35.9987  -39.5120 H         1 UNK         0.1106 
    107 H107       25.0017  -36.5443  -41.3946 H         1 UNK         0.0828 
    108 H108       25.4704  -34.8556  -41.5269 H         1 UNK         0.0828 
    109 H109       25.8713  -35.7788  -40.0777 H         1 UNK         0.0828 
    110 H110       22.5565  -33.0564  -41.0508 H         1 UNK         0.2931 
    111 H111       21.0036  -32.4742  -42.4328 H         1 UNK         0.0412 
    112 H112       23.6522  -33.6013  -43.5250 H         1 UNK         0.3472 
    113 H113       23.3174  -33.7326  -45.2339 H         1 UNK         0.3472 
    114 H114       19.7771  -35.2083  -42.8738 H         1 UNK         0.0970 
    115 H115       19.7419  -34.5761  -41.2663 H         1 UNK         0.0970 
    116 H116       18.6078  -32.8677  -40.3376 H         1 UNK         0.0612 
    117 H117       16.9447  -32.7746  -40.8495 H         1 UNK         0.0612 
@<TRIPOS>BOND
     1    1    2 1    
     2    1   62 1    
     3    1   63 1    
     4    1   64 1    
     5    2    3 2    
     6    2    4 am   BACKBONE|DICT|INTERRES
     7    4    5 1    
     8    4   65 1    
     9    5    6 1    
    10    5   25 1    
    11    5   66 1    
    12    6    7 1    
    13    6   67 1    
    14    6   68 1    
    15    7    8 1    
    16    8    9 1    
    17    8   69 1    
    18    8   70 1    
    19    9   10 ar   
    20    9   14 ar   
    21   10   11 ar   
    22   10   71 1    
    23   11   12 ar   
    24   11   61 1    
    25   12   13 ar   
    26   12   72 1    
    27   13   14 ar   
    28   13   15 1    
    29   14   73 1    
    30   15   16 1    
    31   15   74 1    
    32   15   75 1    
    33   16   17 1    
    34   17   18 1    
    35   17   76 1    
    36   17   77 1    
    37   18   19 1    
    38   18   27 1    
    39   18   78 1    
    40   19   20 am   BACKBONE|DICT|INTERRES
    41   19   79 1    
    42   20   21 2    
    43   20   22 1    
    44   22   23 1    
    45   22   24 1    
    46   22   80 1    
    47   23   81 1    
    48   23   82 1    
    49   23   83 1    
    50   24   25 am   BACKBONE|DICT|INTERRES
    51   24   84 1    
    52   25   26 2    
    53   27   28 2    
    54   27   29 am   BACKBONE|DICT|INTERRES
    55   29   30 1    
    56   29   85 1    
    57   30   31 1    
    58   30   32 1    
    59   30   86 1    
    60   31   87 1    
    61   31   88 1    
    62   31   89 1    
    63   32   33 2    
    64   32   34 am   BACKBONE|DICT|INTERRES
    65   34   35 1    
    66   34   90 1    
    67   35   36 1    
    68   35   37 1    
    69   35   91 1    
    70   36   92 1    
    71   36   93 1    
    72   36   94 1    
    73   37   38 2    
    74   37   39 am   BACKBONE|DICT|INTERRES
    75   39   40 1    
    76   39   95 1    
    77   40   41 1    
    78   40   42 1    
    79   40   96 1    
    80   41   97 1    
    81   41   98 1    
    82   41   99 1    
    83   42   43 2    
    84   42   44 am   BACKBONE|DICT|INTERRES
    85   44   45 1    
    86   44  100 1    
    87   45   46 1    
    88   45   47 1    
    89   45  101 1    
    90   46  102 1    
    91   46  103 1    
    92   46  104 1    
    93   47   48 2    
    94   47   49 am   BACKBONE|DICT|INTERRES
    95   49   50 1    
    96   49  105 1    
    97   50   51 1    
    98   50   52 1    
    99   50  106 1    
   100   51  107 1    
   101   51  108 1    
   102   51  109 1    
   103   52   53 2    
   104   52   54 am   BACKBONE|DICT|INTERRES
   105   54   55 1    
   106   54  110 1    
   107   55   56 1    
   108   55   59 1    
   109   55  111 1    
   110   56   57 am   BACKBONE|DICT|INTERRES
   111   56   58 2    
   112   57  112 1    
   113   57  113 1    
   114   59   60 1    
   115   59  114 1    
   116   59  115 1    
   117   60   61 1    
   118   61  116 1    
   119   61  117 1    
@<TRIPOS>SUBSTRUCTURE
     1 UNK         1 GROUP             0       ****    0 ROOT    
