@<TRIPOS>MOLECULE
3R8
117   119    1
SMALL
USER_CHARGES


@<TRIPOS>ATOM
      1 CA         15.3397  -29.8538  -40.6755 C.3       0 UNK        -0.2013 
      2 C          15.5543  -28.3496  -40.7621 C.2       0 UNK         0.4866 
      3 O          14.7288  -27.5876  -40.2588 O.2       0 UNK        -0.5176 
      4 N          16.6428  -27.9136  -41.4057 N.am      1 UNK        -0.4884 
      5 CA         16.9630  -26.5088  -41.6565 C.3       1 UNK         0.0853 
      6 C6         16.1386  -25.9308  -42.8454 C.3       10 UNK        -0.0849 
      7 S7         16.6405  -26.3973  -44.5441 S.3       10 UNK        -0.2776 
      8 C8         16.3441  -28.2029  -44.6354 C.3       10 UNK         0.0316 
      9 C9         17.5498  -29.0824  -44.2836 C.ar      10 UNK        -0.0863 
     10 C10        17.3393  -30.4176  -43.9196 C.ar      10 UNK        -0.1009 
     11 C11        18.4104  -31.2608  -43.5979 C.ar      10 UNK        -0.0712 
     12 C12        19.7125  -30.7440  -43.6433 C.ar      10 UNK        -0.0894 
     13 C13        19.9442  -29.4172  -44.0094 C.ar      10 UNK        -0.0745 
     14 C14        18.8627  -28.5996  -44.3366 C.ar      10 UNK        -0.0972 
     15 C15        21.3575  -28.8542  -43.9885 C.3       10 UNK         0.0209 
     16 S16        22.0928  -28.6859  -45.6457 S.3       10 UNK        -0.2568 
     17 C17        21.5669  -27.0260  -46.2093 C.3       10 UNK        -0.0983 
     18 CA         22.2939  -25.7999  -45.5700 C.3       3 UNK         0.0876 
     19 N          21.8354  -25.4940  -44.2159 N.am      3 UNK        -0.4424 
     20 C          20.6309  -25.0174  -43.8923 C.2       2 UNK         0.4918 
     21 O          19.7668  -24.7207  -44.7195 O.2       2 UNK        -0.4875 
     22 CA         20.3499  -24.8130  -42.3951 C.3       2 UNK         0.0481 
     23 CB         20.6446  -23.3611  -41.9865 C.3       2 UNK        -0.1831 
     24 N          18.9468  -25.1195  -42.1059 N.am      2 UNK        -0.4498 
     25 C          18.4937  -26.3312  -41.7598 C.2       1 UNK         0.5027 
     26 O          19.2361  -27.2864  -41.5118 O.2       1 UNK        -0.4969 
     27 C          23.8351  -25.8815  -45.5548 C.2       3 UNK         0.5005 
     28 O          24.4557  -25.4713  -44.5693 O.2       3 UNK        -0.5279 
     29 N          24.4296  -26.3980  -46.6400 N.am      4 UNK        -0.4463 
     30 CA         25.8742  -26.6209  -46.7723 C.3       4 UNK         0.0283 
     31 CB         26.2190  -26.8231  -48.2570 C.3       4 UNK        -0.1875 
     32 C          26.3976  -27.8058  -45.9355 C.2       4 UNK         0.4949 
     33 O          27.5874  -27.8341  -45.6181 O.2       4 UNK        -0.5039 
     34 N          25.5173  -28.7601  -45.6052 N.am      5 UNK        -0.4663 
     35 CA         25.7961  -29.8967  -44.7238 C.3       5 UNK         0.0242 
     36 CB         24.9501  -31.0989  -45.1884 C.3       5 UNK        -0.1982 
     37 C          25.5106  -29.5322  -43.2536 C.2       5 UNK         0.5017 
     38 O          25.2421  -28.3695  -42.9416 O.2       5 UNK        -0.5012 
     39 N          25.5694  -30.5370  -42.3675 N.am      6 UNK        -0.4439 
     40 CA         25.2113  -30.4225  -40.9505 C.3       6 UNK         0.0297 
     41 CB         25.4810  -31.7611  -40.2436 C.3       6 UNK        -0.2006 
     42 C          23.7386  -30.0142  -40.7806 C.2       6 UNK         0.4892 
     43 O          22.8663  -30.6608  -41.3659 O.2       6 UNK        -0.5089 
     44 N          23.5004  -28.9508  -39.9995 N.am      7 UNK        -0.4243 
     45 CA         22.1819  -28.3568  -39.7629 C.3       7 UNK         0.0196 
     46 CB         22.3175  -27.1482  -38.8240 C.3       7 UNK        -0.2007 
     47 C          21.1772  -29.3742  -39.2028 C.2       7 UNK         0.5020 
     48 O          21.5177  -30.1420  -38.2991 O.2       7 UNK        -0.5147 
     49 N          19.9761  -29.3821  -39.7918 N.am      8 UNK        -0.4734 
     50 CA         18.8782  -30.3242  -39.5515 C.3       8 UNK         0.0238 
     51 CB         18.2474  -30.0773  -38.1652 C.3       8 UNK        -0.1912 
     52 C          19.2451  -31.8041  -39.7884 C.2       8 UNK         0.5038 
     53 O          18.5909  -32.6828  -39.2250 O.2       8 UNK        -0.5046 
     54 N          20.2712  -32.0516  -40.6170 N.am      9 UNK        -0.4200 
     55 CA         20.8637  -33.3674  -40.9016 C.3       9 UNK         0.0839 
     56 C          21.5911  -33.9991  -39.6735 C.2       9 UNK         0.5513 
     57 N          21.9637  -33.2296  -38.6554 N.am      9 UNK        -0.7519 
     58 O          21.8548  -35.1987  -39.6511 O.2       9 UNK        -0.4960 
     59 C59        19.8779  -34.3390  -41.6212 C.3       10 UNK        -0.0876 
     60 S60        19.5239  -33.8633  -43.3504 S.3       10 UNK        -0.2414 
     61 C61        18.1132  -32.7089  -43.1926 C.3       10 UNK         0.0169 
     62 H62        15.4733  -30.1955  -39.6499 H         1 UNK         0.0903 
     63 H63        14.3250  -30.1033  -40.9849 H         1 UNK         0.0903 
     64 H64        16.0254  -30.4058  -41.3163 H         1 UNK         0.0903 
     65 H65        17.3244  -28.5560  -41.7890 H         1 UNK         0.3096 
     66 H66        16.6824  -25.9499  -40.7606 H         1 UNK         0.1121 
     67 H67        15.0839  -26.1827  -42.7246 H         1 UNK         0.0849 
     68 H68        16.1648  -24.8411  -42.7998 H         1 UNK         0.0849 
     69 H69        15.4912  -28.4568  -44.0042 H         1 UNK         0.0865 
     70 H70        16.0466  -28.4423  -45.6570 H         1 UNK         0.0865 
     71 H71        16.3302  -30.8065  -43.8880 H         1 UNK         0.1346 
     72 H72        20.5583  -31.3640  -43.3835 H         1 UNK         0.1412 
     73 H73        19.0527  -27.5721  -44.6029 H         1 UNK         0.1426 
     74 H74        22.0079  -29.5180  -43.4227 H         1 UNK         0.0716 
     75 H75        21.3709  -27.9113  -43.4475 H         1 UNK         0.0716 
     76 H76        21.7260  -27.0041  -47.2883 H         1 UNK         0.0695 
     77 H77        20.4880  -26.9337  -46.1030 H         1 UNK         0.0695 
     78 H78        22.0601  -24.9257  -46.1818 H         1 UNK         0.0983 
     79 H79        22.5472  -25.6265  -43.5078 H         1 UNK         0.3095 
     80 H80        21.0015  -25.4708  -41.8153 H         1 UNK         0.0454 
     81 H81        21.6892  -23.1075  -42.1715 H         1 UNK         0.0851 
     82 H82        20.0334  -22.6507  -42.5447 H         1 UNK         0.0851 
     83 H83        20.4573  -23.2029  -40.9244 H         1 UNK         0.0851 
     84 H84        18.2794  -24.4037  -42.3547 H         1 UNK         0.2976 
     85 H85        23.8516  -26.7130  -47.4063 H         1 UNK         0.3116 
     86 H86        26.3909  -25.7236  -46.4245 H         1 UNK         0.0646 
     87 H87        27.2929  -26.9594  -48.3925 H         1 UNK         0.0847 
     88 H88        25.9271  -25.9597  -48.8550 H         1 UNK         0.0847 
     89 H89        25.7255  -27.7033  -48.6710 H         1 UNK         0.0847 
     90 H90        24.5473  -28.6190  -45.8528 H         1 UNK         0.3040 
     91 H91        26.8521  -30.1652  -44.8016 H         1 UNK         0.1015 
     92 H92        25.0571  -31.2694  -46.2599 H         1 UNK         0.0786 
     93 H93        23.8897  -30.9557  -44.9778 H         1 UNK         0.0786 
     94 H94        25.2576  -32.0191  -44.6911 H         1 UNK         0.0786 
     95 H95        25.7712  -31.4664  -42.7052 H         1 UNK         0.3172 
     96 H96        25.8515  -29.6590  -40.5036 H         1 UNK         0.0595 
     97 H97        26.5298  -32.0487  -40.3180 H         1 UNK         0.0839 
     98 H98        24.8781  -32.5681  -40.6629 H         1 UNK         0.0839 
     99 H99        25.2376  -31.6959  -39.1822 H         1 UNK         0.0839 
    100 H100       24.2823  -28.5004  -39.5473 H         1 UNK         0.2998 
    101 H101       21.8179  -27.9999  -40.7291 H         1 UNK         0.0822 
    102 H102       22.9820  -26.3915  -39.2417 H         1 UNK         0.0787 
    103 H103       21.3490  -26.6727  -38.6621 H         1 UNK         0.0787 
    104 H104       22.7066  -27.4390  -37.8472 H         1 UNK         0.0787 
    105 H105       19.7933  -28.6771  -40.5072 H         1 UNK         0.3055 
    106 H106       18.1295  -30.0968  -40.3063 H         1 UNK         0.1106 
    107 H107       18.9405  -30.3183  -37.3587 H         1 UNK         0.0828 
    108 H108       17.9445  -29.0368  -38.0485 H         1 UNK         0.0828 
    109 H109       17.3568  -30.6895  -38.0199 H         1 UNK         0.0828 
    110 H110       20.7971  -31.2663  -40.9807 H         1 UNK         0.2931 
    111 H111       21.6750  -33.1653  -41.6017 H         1 UNK         0.0412 
    112 H112       22.4412  -33.6467  -37.8725 H         1 UNK         0.3472 
    113 H113       21.7672  -32.2355  -38.6558 H         1 UNK         0.3472 
    114 H114       18.9483  -34.4598  -41.0647 H         1 UNK         0.0970 
    115 H115       20.3078  -35.3402  -41.6777 H         1 UNK         0.0970 
    116 H116       17.7306  -32.7197  -42.1722 H         1 UNK         0.0612 
    117 H117       17.3087  -33.0940  -43.8209 H         1 UNK         0.0612 
@<TRIPOS>BOND
     1    1    2 1    
     2    1   62 1    
     3    1   63 1    
     4    1   64 1    
     5    2    3 2    
     6    2    4 am   BACKBONE|DICT|INTERRES
     7    4    5 1    
     8    4   65 1    
     9    5    6 1    
    10    5   25 1    
    11    5   66 1    
    12    6    7 1    
    13    6   67 1    
    14    6   68 1    
    15    7    8 1    
    16    8    9 1    
    17    8   69 1    
    18    8   70 1    
    19    9   10 ar   
    20    9   14 ar   
    21   10   11 ar   
    22   10   71 1    
    23   11   12 ar   
    24   11   61 1    
    25   12   13 ar   
    26   12   72 1    
    27   13   14 ar   
    28   13   15 1    
    29   14   73 1    
    30   15   16 1    
    31   15   74 1    
    32   15   75 1    
    33   16   17 1    
    34   17   18 1    
    35   17   76 1    
    36   17   77 1    
    37   18   19 1    
    38   18   27 1    
    39   18   78 1    
    40   19   20 am   BACKBONE|DICT|INTERRES
    41   19   79 1    
    42   20   21 2    
    43   20   22 1    
    44   22   23 1    
    45   22   24 1    
    46   22   80 1    
    47   23   81 1    
    48   23   82 1    
    49   23   83 1    
    50   24   25 am   BACKBONE|DICT|INTERRES
    51   24   84 1    
    52   25   26 2    
    53   27   28 2    
    54   27   29 am   BACKBONE|DICT|INTERRES
    55   29   30 1    
    56   29   85 1    
    57   30   31 1    
    58   30   32 1    
    59   30   86 1    
    60   31   87 1    
    61   31   88 1    
    62   31   89 1    
    63   32   33 2    
    64   32   34 am   BACKBONE|DICT|INTERRES
    65   34   35 1    
    66   34   90 1    
    67   35   36 1    
    68   35   37 1    
    69   35   91 1    
    70   36   92 1    
    71   36   93 1    
    72   36   94 1    
    73   37   38 2    
    74   37   39 am   BACKBONE|DICT|INTERRES
    75   39   40 1    
    76   39   95 1    
    77   40   41 1    
    78   40   42 1    
    79   40   96 1    
    80   41   97 1    
    81   41   98 1    
    82   41   99 1    
    83   42   43 2    
    84   42   44 am   BACKBONE|DICT|INTERRES
    85   44   45 1    
    86   44  100 1    
    87   45   46 1    
    88   45   47 1    
    89   45  101 1    
    90   46  102 1    
    91   46  103 1    
    92   46  104 1    
    93   47   48 2    
    94   47   49 am   BACKBONE|DICT|INTERRES
    95   49   50 1    
    96   49  105 1    
    97   50   51 1    
    98   50   52 1    
    99   50  106 1    
   100   51  107 1    
   101   51  108 1    
   102   51  109 1    
   103   52   53 2    
   104   52   54 am   BACKBONE|DICT|INTERRES
   105   54   55 1    
   106   54  110 1    
   107   55   56 1    
   108   55   59 1    
   109   55  111 1    
   110   56   57 am   BACKBONE|DICT|INTERRES
   111   56   58 2    
   112   57  112 1    
   113   57  113 1    
   114   59   60 1    
   115   59  114 1    
   116   59  115 1    
   117   60   61 1    
   118   61  116 1    
   119   61  117 1    
@<TRIPOS>SUBSTRUCTURE
     1 UNK         1 GROUP             0       ****    0 ROOT    
