@<TRIPOS>MOLECULE
3R8
117   119    1
SMALL
USER_CHARGES


@<TRIPOS>ATOM
      1 CA         14.5979  -27.4075  -38.9049 C.3       0 UNK        -0.2013 
      2 C          14.9311  -26.5158  -40.0919 C.2       0 UNK         0.4866 
      3 O          14.1100  -25.6897  -40.4908 O.2       0 UNK        -0.5176 
      4 N          16.1303  -26.6758  -40.6577 N.am      1 UNK        -0.4884 
      5 CA         16.6654  -25.9028  -41.7778 C.3       1 UNK         0.0853 
      6 C6         16.0025  -26.2953  -43.1420 C.3       10 UNK        -0.0849 
      7 S7         16.9021  -27.4294  -44.2641 S.3       10 UNK        -0.2776 
      8 C8         16.8440  -29.0002  -43.3413 C.3       10 UNK         0.0316 
      9 C9         18.0119  -29.9083  -43.7054 C.ar      10 UNK        -0.0863 
     10 C10        17.7890  -31.2208  -44.1327 C.ar      10 UNK        -0.1009 
     11 C11        18.8652  -32.0616  -44.4398 C.ar      10 UNK        -0.0712 
     12 C12        20.1715  -31.5699  -44.3443 C.ar      10 UNK        -0.0894 
     13 C13        20.4069  -30.2714  -43.8871 C.ar      10 UNK        -0.0745 
     14 C14        19.3249  -29.4471  -43.5722 C.ar      10 UNK        -0.0972 
     15 C15        21.8256  -29.7777  -43.6613 C.3       10 UNK         0.0209 
     16 S16        22.7399  -29.4647  -45.1988 S.3       10 UNK        -0.2568 
     17 C17        21.8819  -27.9990  -45.8766 C.3       10 UNK        -0.0983 
     18 CA         22.3962  -26.6065  -45.4021 C.3       3 UNK         0.0876 
     19 N          21.8668  -26.2250  -44.0931 N.am      3 UNK        -0.4424 
     20 C          20.7113  -25.5796  -43.9122 C.2       2 UNK         0.4918 
     21 O          19.9393  -25.2855  -44.8283 O.2       2 UNK        -0.4875 
     22 CA         20.3795  -25.1418  -42.4790 C.3       2 UNK         0.0481 
     23 CB         20.9723  -23.7527  -42.1944 C.3       2 UNK        -0.1831 
     24 N          18.9258  -25.0863  -42.3086 N.am      2 UNK        -0.4498 
     25 C          18.1996  -26.0390  -41.7153 C.2       1 UNK         0.5027 
     26 O          18.6899  -27.0168  -41.1419 O.2       1 UNK        -0.4969 
     27 C          23.9255  -26.4113  -45.4082 C.2       3 UNK         0.5005 
     28 O          24.4777  -25.8340  -44.4677 O.2       3 UNK        -0.5279 
     29 N          24.5907  -26.8724  -46.4755 N.am      4 UNK        -0.4463 
     30 CA         26.0469  -26.8016  -46.6254 C.3       4 UNK         0.0283 
     31 CB         26.4215  -27.0836  -48.0895 C.3       4 UNK        -0.1875 
     32 C          26.8053  -27.7576  -45.6861 C.2       4 UNK         0.4949 
     33 O          27.9407  -27.4572  -45.3167 O.2       4 UNK        -0.5039 
     34 N          26.1851  -28.8940  -45.3386 N.am      5 UNK        -0.4663 
     35 CA         26.7942  -29.9375  -44.5127 C.3       5 UNK         0.0242 
     36 CB         26.1500  -31.2952  -44.8410 C.3       5 UNK        -0.1982 
     37 C          26.6959  -29.6449  -43.0081 C.2       5 UNK         0.5017 
     38 O          27.6817  -29.8416  -42.2966 O.2       5 UNK        -0.5012 
     39 N          25.5152  -29.2091  -42.5499 N.am      6 UNK        -0.4439 
     40 CA         25.1640  -28.9985  -41.1436 C.3       6 UNK         0.0297 
     41 CB         25.1851  -30.3375  -40.3610 C.3       6 UNK        -0.2006 
     42 C          23.8038  -28.2810  -41.0814 C.2       6 UNK         0.4892 
     43 O          23.5491  -27.3921  -41.8969 O.2       6 UNK        -0.5089 
     44 N          22.9380  -28.6929  -40.1493 N.am      7 UNK        -0.4243 
     45 CA         21.5570  -28.2469  -40.0165 C.3       7 UNK         0.0196 
     46 CB         21.4800  -27.0534  -39.0495 C.3       7 UNK        -0.2007 
     47 C          20.7014  -29.4203  -39.5295 C.2       7 UNK         0.5020 
     48 O          21.2269  -30.3468  -38.9059 O.2       7 UNK        -0.5147 
     49 N          19.4006  -29.3570  -39.8436 N.am      8 UNK        -0.4734 
     50 CA         18.3266  -30.2940  -39.4719 C.3       8 UNK         0.0238 
     51 CB         18.0177  -30.1639  -37.9660 C.3       8 UNK        -0.1912 
     52 C          18.5673  -31.7611  -39.8905 C.2       8 UNK         0.5038 
     53 O          17.9766  -32.6682  -39.3019 O.2       8 UNK        -0.5046 
     54 N          19.4329  -31.9658  -40.8906 N.am      9 UNK        -0.4200 
     55 CA         19.9416  -33.2652  -41.3502 C.3       9 UNK         0.0839 
     56 C          20.7925  -34.0400  -40.2973 C.2       9 UNK         0.5513 
     57 N          21.3531  -33.3757  -39.2917 N.am      9 UNK        -0.7519 
     58 O          20.9764  -35.2498  -40.4037 O.2       9 UNK        -0.4960 
     59 C59        18.8444  -34.1209  -42.0596 C.3       10 UNK        -0.0876 
     60 S60        19.3995  -34.7095  -43.6986 S.3       10 UNK        -0.2414 
     61 C61        18.6139  -33.5125  -44.8362 C.3       10 UNK         0.0169 
     62 H62        15.4109  -28.0935  -38.6679 H         1 UNK         0.0903 
     63 H63        14.3995  -26.7993  -38.0227 H         1 UNK         0.0903 
     64 H64        13.7077  -27.9986  -39.1184 H         1 UNK         0.0903 
     65 H65        16.8078  -27.3177  -40.2655 H         1 UNK         0.3096 
     66 H66        16.4364  -24.8540  -41.5736 H         1 UNK         0.1121 
     67 H67        14.9976  -26.6921  -42.9903 H         1 UNK         0.0849 
     68 H68        15.8485  -25.3795  -43.7145 H         1 UNK         0.0849 
     69 H69        16.8814  -28.8110  -42.2696 H         1 UNK         0.0865 
     70 H70        15.8877  -29.4883  -43.5354 H         1 UNK         0.0865 
     71 H71        16.7773  -31.5952  -44.2093 H         1 UNK         0.1346 
     72 H72        21.0070  -32.2163  -44.5765 H         1 UNK         0.1412 
     73 H73        19.5018  -28.4406  -43.2198 H         1 UNK         0.1426 
     74 H74        22.3719  -30.5113  -43.0666 H         1 UNK         0.0716 
     75 H75        21.8067  -28.8602  -43.0790 H         1 UNK         0.0716 
     76 H76        21.9741  -28.0605  -46.9618 H         1 UNK         0.0695 
     77 H77        20.8112  -28.0885  -45.6878 H         1 UNK         0.0695 
     78 H78        22.0373  -25.8728  -46.1279 H         1 UNK         0.0983 
     79 H79        22.5001  -26.3931  -43.3138 H         1 UNK         0.3095 
     80 H80        20.8261  -25.8491  -41.7802 H         1 UNK         0.0454 
     81 H81        22.0583  -23.7639  -42.2974 H         1 UNK         0.0851 
     82 H82        20.5869  -22.9979  -42.8810 H         1 UNK         0.0851 
     83 H83        20.7481  -23.4282  -41.1782 H         1 UNK         0.0851 
     84 H84        18.4508  -24.3613  -42.8281 H         1 UNK         0.2976 
     85 H85        24.0762  -27.3316  -47.2139 H         1 UNK         0.3116 
     86 H86        26.3653  -25.7846  -46.3856 H         1 UNK         0.0646 
     87 H87        27.5002  -27.0105  -48.2364 H         1 UNK         0.0847 
     88 H88        25.9564  -26.3655  -48.7651 H         1 UNK         0.0847 
     89 H89        26.1190  -28.0844  -48.4003 H         1 UNK         0.0847 
     90 H90        25.2459  -29.0580  -45.6745 H         1 UNK         0.3040 
     91 H91        27.8555  -30.0073  -44.7640 H         1 UNK         0.1015 
     92 H92        26.2659  -31.5444  -45.8960 H         1 UNK         0.0786 
     93 H93        25.0850  -31.3108  -44.6077 H         1 UNK         0.0786 
     94 H94        26.6186  -32.0960  -44.2671 H         1 UNK         0.0786 
     95 H95        24.7856  -28.9788  -43.2119 H         1 UNK         0.3172 
     96 H96        25.9007  -28.3222  -40.7063 H         1 UNK         0.0595 
     97 H97        26.1578  -30.8253  -40.4138 H         1 UNK         0.0839 
     98 H98        24.4458  -31.0422  -40.7448 H         1 UNK         0.0839 
     99 H99        24.9853  -30.1852  -39.2997 H         1 UNK         0.0839 
    100 H100       23.1820  -29.4689  -39.5465 H         1 UNK         0.2998 
    101 H101       21.1810  -27.9481  -40.9951 H         1 UNK         0.0822 
    102 H102       22.0714  -26.2125  -39.4122 H         1 UNK         0.0787 
    103 H103       20.4528  -26.7026  -38.9417 H         1 UNK         0.0787 
    104 H104       21.8438  -27.3169  -38.0557 H         1 UNK         0.0787 
    105 H105       19.0995  -28.5325  -40.3656 H         1 UNK         0.3055 
    106 H106       17.4390  -29.9766  -40.0206 H         1 UNK         0.1106 
    107 H107       18.8463  -30.5228  -37.3545 H         1 UNK         0.0828 
    108 H108       17.8210  -29.1284  -37.6886 H         1 UNK         0.0828 
    109 H109       17.1352  -30.7431  -37.6914 H         1 UNK         0.0828 
    110 H110       19.8507  -31.1560  -41.3232 H         1 UNK         0.2931 
    111 H111       20.6881  -32.9860  -42.0923 H         1 UNK         0.0412 
    112 H112       21.9098  -33.8788  -38.6194 H         1 UNK         0.3472 
    113 H113       21.2249  -32.3743  -39.1919 H         1 UNK         0.3472 
    114 H114       17.9251  -33.5494  -42.1951 H         1 UNK         0.0970 
    115 H115       18.5504  -34.9798  -41.4539 H         1 UNK         0.0970 
    116 H116       18.9973  -33.6786  -45.8436 H         1 UNK         0.0612 
    117 H117       17.5440  -33.7228  -44.8750 H         1 UNK         0.0612 
@<TRIPOS>BOND
     1    1    2 1    
     2    1   62 1    
     3    1   63 1    
     4    1   64 1    
     5    2    3 2    
     6    2    4 am   BACKBONE|DICT|INTERRES
     7    4    5 1    
     8    4   65 1    
     9    5    6 1    
    10    5   25 1    
    11    5   66 1    
    12    6    7 1    
    13    6   67 1    
    14    6   68 1    
    15    7    8 1    
    16    8    9 1    
    17    8   69 1    
    18    8   70 1    
    19    9   10 ar   
    20    9   14 ar   
    21   10   11 ar   
    22   10   71 1    
    23   11   12 ar   
    24   11   61 1    
    25   12   13 ar   
    26   12   72 1    
    27   13   14 ar   
    28   13   15 1    
    29   14   73 1    
    30   15   16 1    
    31   15   74 1    
    32   15   75 1    
    33   16   17 1    
    34   17   18 1    
    35   17   76 1    
    36   17   77 1    
    37   18   19 1    
    38   18   27 1    
    39   18   78 1    
    40   19   20 am   BACKBONE|DICT|INTERRES
    41   19   79 1    
    42   20   21 2    
    43   20   22 1    
    44   22   23 1    
    45   22   24 1    
    46   22   80 1    
    47   23   81 1    
    48   23   82 1    
    49   23   83 1    
    50   24   25 am   BACKBONE|DICT|INTERRES
    51   24   84 1    
    52   25   26 2    
    53   27   28 2    
    54   27   29 am   BACKBONE|DICT|INTERRES
    55   29   30 1    
    56   29   85 1    
    57   30   31 1    
    58   30   32 1    
    59   30   86 1    
    60   31   87 1    
    61   31   88 1    
    62   31   89 1    
    63   32   33 2    
    64   32   34 am   BACKBONE|DICT|INTERRES
    65   34   35 1    
    66   34   90 1    
    67   35   36 1    
    68   35   37 1    
    69   35   91 1    
    70   36   92 1    
    71   36   93 1    
    72   36   94 1    
    73   37   38 2    
    74   37   39 am   BACKBONE|DICT|INTERRES
    75   39   40 1    
    76   39   95 1    
    77   40   41 1    
    78   40   42 1    
    79   40   96 1    
    80   41   97 1    
    81   41   98 1    
    82   41   99 1    
    83   42   43 2    
    84   42   44 am   BACKBONE|DICT|INTERRES
    85   44   45 1    
    86   44  100 1    
    87   45   46 1    
    88   45   47 1    
    89   45  101 1    
    90   46  102 1    
    91   46  103 1    
    92   46  104 1    
    93   47   48 2    
    94   47   49 am   BACKBONE|DICT|INTERRES
    95   49   50 1    
    96   49  105 1    
    97   50   51 1    
    98   50   52 1    
    99   50  106 1    
   100   51  107 1    
   101   51  108 1    
   102   51  109 1    
   103   52   53 2    
   104   52   54 am   BACKBONE|DICT|INTERRES
   105   54   55 1    
   106   54  110 1    
   107   55   56 1    
   108   55   59 1    
   109   55  111 1    
   110   56   57 am   BACKBONE|DICT|INTERRES
   111   56   58 2    
   112   57  112 1    
   113   57  113 1    
   114   59   60 1    
   115   59  114 1    
   116   59  115 1    
   117   60   61 1    
   118   61  116 1    
   119   61  117 1    
@<TRIPOS>SUBSTRUCTURE
     1 UNK         1 GROUP             0       ****    0 ROOT    
