@<TRIPOS>MOLECULE
3R8
117   119    1
SMALL
USER_CHARGES


@<TRIPOS>ATOM
      1 CA         16.5191  -27.2581  -40.4679 C.3       0 UNK        -0.2013 
      2 C          16.1741  -26.3163  -41.6120 C.2       0 UNK         0.4866 
      3 O          15.2406  -25.5231  -41.4873 O.2       0 UNK        -0.5176 
      4 N          16.9203  -26.3914  -42.7200 N.am      1 UNK        -0.4884 
      5 CA         16.7788  -25.5147  -43.8803 C.3       1 UNK         0.0853 
      6 C6         15.5781  -25.8851  -44.8055 C.3       10 UNK        -0.0849 
      7 S7         15.7548  -27.2986  -45.9533 S.3       10 UNK        -0.2776 
      8 C8         15.6758  -28.7536  -44.8599 C.3       10 UNK         0.0316 
      9 C9         17.0562  -29.3515  -44.6159 C.ar      10 UNK        -0.0863 
     10 C10        17.5313  -29.5375  -43.3139 C.ar      10 UNK        -0.1009 
     11 C11        18.7914  -30.0992  -43.0902 C.ar      10 UNK        -0.0712 
     12 C12        19.5695  -30.4944  -44.1807 C.ar      10 UNK        -0.0894 
     13 C13        19.1032  -30.3281  -45.4872 C.ar      10 UNK        -0.0745 
     14 C14        17.8467  -29.7561  -45.6977 C.ar      10 UNK        -0.0972 
     15 C15        19.9429  -30.7913  -46.6698 C.3       10 UNK         0.0209 
     16 S16        20.9313  -29.4404  -47.3888 S.3       10 UNK        -0.2568 
     17 C17        22.0949  -29.0733  -46.0244 C.3       10 UNK        -0.0983 
     18 CA         21.9513  -27.6746  -45.3357 C.3       3 UNK         0.0876 
     19 N          20.7493  -26.9223  -45.7218 N.am      3 UNK        -0.4424 
     20 C          20.7655  -25.6999  -46.2696 C.2       2 UNK         0.4918 
     21 O          21.7901  -25.0400  -46.4470 O.2       2 UNK        -0.4875 
     22 CA         19.4157  -25.0925  -46.6967 C.3       2 UNK         0.0481 
     23 CB         19.1052  -25.4797  -48.1514 C.3       2 UNK        -0.1831 
     24 N          18.2574  -25.4240  -45.8590 N.am      2 UNK        -0.4498 
     25 C          18.1630  -25.3099  -44.5285 C.2       1 UNK         0.5027 
     26 O          19.1208  -25.0335  -43.8040 O.2       1 UNK        -0.4969 
     27 C          22.1151  -27.7501  -43.8008 C.2       3 UNK         0.5005 
     28 O          22.9395  -28.5349  -43.3284 O.2       3 UNK        -0.5279 
     29 N          21.3769  -26.9281  -43.0315 N.am      4 UNK        -0.4463 
     30 CA         21.4134  -26.8936  -41.5587 C.3       4 UNK         0.0283 
     31 CB         20.3776  -25.8912  -41.0291 C.3       4 UNK        -0.1875 
     32 C          22.7944  -26.5954  -40.9453 C.2       4 UNK         0.4949 
     33 O          23.0336  -26.9705  -39.7981 O.2       4 UNK        -0.5039 
     34 N          23.6968  -25.9833  -41.7255 N.am      5 UNK        -0.4663 
     35 CA         25.1087  -25.7711  -41.3896 C.3       5 UNK         0.0242 
     36 CB         25.7682  -24.9430  -42.5042 C.3       5 UNK        -0.1982 
     37 C          25.9022  -27.0714  -41.1436 C.2       5 UNK         0.5017 
     38 O          26.9226  -27.0232  -40.4562 O.2       5 UNK        -0.5012 
     39 N          25.4192  -28.2063  -41.6742 N.am      6 UNK        -0.4439 
     40 CA         25.9602  -29.5434  -41.4124 C.3       6 UNK         0.0297 
     41 CB         25.5120  -30.4928  -42.5359 C.3       6 UNK        -0.2006 
     42 C          25.5548  -30.1131  -40.0369 C.2       6 UNK         0.4892 
     43 O          26.0865  -31.1558  -39.6517 O.2       6 UNK        -0.5089 
     44 N          24.6213  -29.4498  -39.3338 N.am      7 UNK        -0.4243 
     45 CA         24.0018  -29.8035  -38.0493 C.3       7 UNK         0.0196 
     46 CB         25.0401  -29.9448  -36.9181 C.3       7 UNK        -0.2007 
     47 C          23.0788  -31.0294  -38.1399 C.2       7 UNK         0.5020 
     48 O          21.8989  -30.9224  -37.8055 O.2       7 UNK        -0.5147 
     49 N          23.6163  -32.1599  -38.6082 N.am      8 UNK        -0.4734 
     50 CA         22.8566  -33.3578  -38.9556 C.3       8 UNK         0.0238 
     51 CB         23.7575  -34.5930  -38.7952 C.3       8 UNK        -0.1912 
     52 C          22.3610  -33.2288  -40.4022 C.2       8 UNK         0.5038 
     53 O          23.1552  -32.8858  -41.2812 O.2       8 UNK        -0.5046 
     54 N          21.0731  -33.5111  -40.6260 N.am      9 UNK        -0.4200 
     55 CA         20.4306  -33.4200  -41.9479 C.3       9 UNK         0.0839 
     56 C          20.6878  -34.6393  -42.8799 C.2       9 UNK         0.5513 
     57 N          21.3070  -35.7174  -42.4139 N.am      9 UNK        -0.7519 
     58 O          20.3247  -34.6017  -44.0524 O.2       9 UNK        -0.4960 
     59 C59        18.9139  -33.1034  -41.8439 C.3       10 UNK        -0.0876 
     60 S60        18.5089  -31.6588  -40.7983 S.3       10 UNK        -0.2414 
     61 C61        19.3167  -30.2803  -41.6734 C.3       10 UNK         0.0169 
     62 H62        16.5480  -26.7097  -39.5266 H         1 UNK         0.0903 
     63 H63        15.7643  -28.0394  -40.3829 H         1 UNK         0.0903 
     64 H64        17.4898  -27.7310  -40.6062 H         1 UNK         0.0903 
     65 H65        17.6956  -27.0371  -42.7733 H         1 UNK         0.3096 
     66 H66        16.5506  -24.5212  -43.4863 H         1 UNK         0.1121 
     67 H67        15.3362  -25.0171  -45.4214 H         1 UNK         0.0849 
     68 H68        14.6835  -26.0477  -44.2025 H         1 UNK         0.0849 
     69 H69        15.1833  -28.4908  -43.9226 H         1 UNK         0.0865 
     70 H70        15.0487  -29.5113  -45.3315 H         1 UNK         0.0865 
     71 H71        16.9149  -29.2633  -42.4703 H         1 UNK         0.1346 
     72 H72        20.5388  -30.9398  -44.0114 H         1 UNK         0.1412 
     73 H73        17.4798  -29.6291  -46.7074 H         1 UNK         0.1426 
     74 H74        19.2905  -31.1976  -47.4442 H         1 UNK         0.0716 
     75 H75        20.6029  -31.6084  -46.3739 H         1 UNK         0.0716 
     76 H76        23.0998  -29.1540  -46.4419 H         1 UNK         0.0695 
     77 H77        22.0477  -29.8929  -45.3084 H         1 UNK         0.0695 
     78 H78        22.8280  -27.1056  -45.6520 H         1 UNK         0.0983 
     79 H79        19.8686  -27.4080  -45.6277 H         1 UNK         0.3095 
     80 H80        19.5281  -24.0075  -46.6545 H         1 UNK         0.0454 
     81 H81        18.2240  -24.9577  -48.5244 H         1 UNK         0.0851 
     82 H82        18.9300  -26.5518  -48.2532 H         1 UNK         0.0851 
     83 H83        19.9346  -25.2218  -48.8117 H         1 UNK         0.0851 
     84 H84        17.4253  -25.7289  -46.3483 H         1 UNK         0.2976 
     85 H85        20.7322  -26.2851  -43.4812 H         1 UNK         0.3116 
     86 H86        21.1293  -27.8876  -41.2094 H         1 UNK         0.0646 
     87 H87        19.3688  -26.1678  -41.3277 H         1 UNK         0.0847 
     88 H88        20.5709  -24.8815  -41.3932 H         1 UNK         0.0847 
     89 H89        20.3878  -25.8528  -39.9389 H         1 UNK         0.0847 
     90 H90        23.4047  -25.7067  -42.6514 H         1 UNK         0.3040 
     91 H91        25.1441  -25.1945  -40.4626 H         1 UNK         0.1015 
     92 H92        26.8151  -24.7405  -42.2730 H         1 UNK         0.0786 
     93 H93        25.2747  -23.9790  -42.6288 H         1 UNK         0.0786 
     94 H94        25.7411  -25.4626  -43.4629 H         1 UNK         0.0786 
     95 H95        24.5692  -28.1679  -42.2318 H         1 UNK         0.3172 
     96 H96        27.0504  -29.4868  -41.4333 H         1 UNK         0.0595 
     97 H97        24.4299  -30.6318  -42.5375 H         1 UNK         0.0839 
     98 H98        25.9611  -31.4797  -42.4166 H         1 UNK         0.0839 
     99 H99        25.8044  -30.1190  -43.5171 H         1 UNK         0.0839 
    100 H100       24.2380  -28.6071  -39.7499 H         1 UNK         0.2998 
    101 H101       23.3654  -28.9540  -37.7950 H         1 UNK         0.0822 
    102 H102       25.6513  -29.0467  -36.8292 H         1 UNK         0.0787 
    103 H103       24.5459  -30.0974  -35.9578 H         1 UNK         0.0787 
    104 H104       25.7094  -30.7913  -37.0726 H         1 UNK         0.0787 
    105 H105       24.5758  -32.1103  -38.9420 H         1 UNK         0.3055 
    106 H106       22.0026  -33.4596  -38.2816 H         1 UNK         0.1106 
    107 H107       24.6269  -34.5478  -39.4529 H         1 UNK         0.0828 
    108 H108       23.2136  -35.5076  -39.0347 H         1 UNK         0.0828 
    109 H109       24.1181  -34.6896  -37.7710 H         1 UNK         0.0828 
    110 H110       20.4776  -33.7874  -39.8593 H         1 UNK         0.2931 
    111 H111       20.8916  -32.5802  -42.4672 H         1 UNK         0.0412 
    112 H112       21.4709  -36.4978  -43.0308 H         1 UNK         0.3472 
    113 H113       21.6143  -35.7581  -41.4558 H         1 UNK         0.3472 
    114 H114       18.4888  -32.9351  -42.8354 H         1 UNK         0.0970 
    115 H115       18.3805  -33.9640  -41.4366 H         1 UNK         0.0970 
    116 H116       19.1460  -29.3650  -41.1072 H         1 UNK         0.0612 
    117 H117       20.3973  -30.4310  -41.6733 H         1 UNK         0.0612 
@<TRIPOS>BOND
     1    1    2 1    
     2    1   62 1    
     3    1   63 1    
     4    1   64 1    
     5    2    3 2    
     6    2    4 am   BACKBONE|DICT|INTERRES
     7    4    5 1    
     8    4   65 1    
     9    5    6 1    
    10    5   25 1    
    11    5   66 1    
    12    6    7 1    
    13    6   67 1    
    14    6   68 1    
    15    7    8 1    
    16    8    9 1    
    17    8   69 1    
    18    8   70 1    
    19    9   10 ar   
    20    9   14 ar   
    21   10   11 ar   
    22   10   71 1    
    23   11   12 ar   
    24   11   61 1    
    25   12   13 ar   
    26   12   72 1    
    27   13   14 ar   
    28   13   15 1    
    29   14   73 1    
    30   15   16 1    
    31   15   74 1    
    32   15   75 1    
    33   16   17 1    
    34   17   18 1    
    35   17   76 1    
    36   17   77 1    
    37   18   19 1    
    38   18   27 1    
    39   18   78 1    
    40   19   20 am   BACKBONE|DICT|INTERRES
    41   19   79 1    
    42   20   21 2    
    43   20   22 1    
    44   22   23 1    
    45   22   24 1    
    46   22   80 1    
    47   23   81 1    
    48   23   82 1    
    49   23   83 1    
    50   24   25 am   BACKBONE|DICT|INTERRES
    51   24   84 1    
    52   25   26 2    
    53   27   28 2    
    54   27   29 am   BACKBONE|DICT|INTERRES
    55   29   30 1    
    56   29   85 1    
    57   30   31 1    
    58   30   32 1    
    59   30   86 1    
    60   31   87 1    
    61   31   88 1    
    62   31   89 1    
    63   32   33 2    
    64   32   34 am   BACKBONE|DICT|INTERRES
    65   34   35 1    
    66   34   90 1    
    67   35   36 1    
    68   35   37 1    
    69   35   91 1    
    70   36   92 1    
    71   36   93 1    
    72   36   94 1    
    73   37   38 2    
    74   37   39 am   BACKBONE|DICT|INTERRES
    75   39   40 1    
    76   39   95 1    
    77   40   41 1    
    78   40   42 1    
    79   40   96 1    
    80   41   97 1    
    81   41   98 1    
    82   41   99 1    
    83   42   43 2    
    84   42   44 am   BACKBONE|DICT|INTERRES
    85   44   45 1    
    86   44  100 1    
    87   45   46 1    
    88   45   47 1    
    89   45  101 1    
    90   46  102 1    
    91   46  103 1    
    92   46  104 1    
    93   47   48 2    
    94   47   49 am   BACKBONE|DICT|INTERRES
    95   49   50 1    
    96   49  105 1    
    97   50   51 1    
    98   50   52 1    
    99   50  106 1    
   100   51  107 1    
   101   51  108 1    
   102   51  109 1    
   103   52   53 2    
   104   52   54 am   BACKBONE|DICT|INTERRES
   105   54   55 1    
   106   54  110 1    
   107   55   56 1    
   108   55   59 1    
   109   55  111 1    
   110   56   57 am   BACKBONE|DICT|INTERRES
   111   56   58 2    
   112   57  112 1    
   113   57  113 1    
   114   59   60 1    
   115   59  114 1    
   116   59  115 1    
   117   60   61 1    
   118   61  116 1    
   119   61  117 1    
@<TRIPOS>SUBSTRUCTURE
     1 UNK         1 GROUP             0       ****    0 ROOT    
