@<TRIPOS>MOLECULE
3R8
117   119    1
SMALL
USER_CHARGES


@<TRIPOS>ATOM
      1 CA         17.4651  -28.5889  -42.1749 C.3       0 UNK        -0.2013 
      2 C          16.8176  -27.5322  -43.0540 C.2       0 UNK         0.4866 
      3 O          16.3281  -26.5249  -42.5418 O.2       0 UNK        -0.5176 
      4 N          16.8335  -27.7303  -44.3788 N.am      1 UNK        -0.4884 
      5 CA         16.2813  -26.8076  -45.3829 C.3       1 UNK         0.0853 
      6 C6         15.9034  -27.5309  -46.7029 C.3       10 UNK        -0.0849 
      7 S7         14.7110  -28.8920  -46.4526 S.3       10 UNK        -0.2776 
      8 C8         15.6702  -30.3449  -46.9944 C.3       10 UNK         0.0316 
      9 C9         16.8180  -30.6586  -46.0452 C.ar      10 UNK        -0.0863 
     10 C10        16.5762  -31.3519  -44.8558 C.ar      10 UNK        -0.1009 
     11 C11        17.6249  -31.6434  -43.9787 C.ar      10 UNK        -0.0712 
     12 C12        18.9244  -31.2343  -44.3004 C.ar      10 UNK        -0.0894 
     13 C13        19.1766  -30.5279  -45.4792 C.ar      10 UNK        -0.0745 
     14 C14        18.1210  -30.2582  -46.3548 C.ar      10 UNK        -0.0972 
     15 C15        20.5879  -30.0762  -45.8285 C.3       10 UNK         0.0209 
     16 S16        20.7254  -28.2612  -45.9011 S.3       10 UNK        -0.2568 
     17 C17        21.2433  -27.8281  -44.2073 C.3       10 UNK        -0.0983 
     18 CA         21.4092  -26.2939  -44.0645 C.3       3 UNK         0.0876 
     19 N          20.1215  -25.6054  -44.1511 N.am      3 UNK        -0.4424 
     20 C          19.9486  -24.3139  -44.4604 C.2       2 UNK         0.4918 
     21 O          20.8744  -23.5535  -44.7485 O.2       2 UNK        -0.4875 
     22 CA         18.4987  -23.7816  -44.4311 C.3       2 UNK         0.0481 
     23 CB         18.2604  -22.6416  -45.4440 C.3       2 UNK        -0.1831 
     24 N          17.4882  -24.8412  -44.5625 N.am      2 UNK        -0.4498 
     25 C          17.2572  -25.6332  -45.6211 C.2       1 UNK         0.5027 
     26 O          17.8154  -25.5017  -46.7116 O.2       1 UNK        -0.4969 
     27 C          22.1313  -25.9120  -42.7568 C.2       3 UNK         0.5005 
     28 O          21.4807  -25.7051  -41.7284 O.2       3 UNK        -0.5279 
     29 N          23.4648  -25.8178  -42.8326 N.am      4 UNK        -0.4463 
     30 CA         24.3589  -25.4687  -41.7257 C.3       4 UNK         0.0283 
     31 CB         25.7197  -25.0604  -42.3192 C.3       4 UNK        -0.1875 
     32 C          24.5340  -26.6185  -40.7175 C.2       4 UNK         0.4949 
     33 O          24.0816  -27.7390  -40.9615 O.2       4 UNK        -0.5039 
     34 N          25.2368  -26.3352  -39.6122 N.am      5 UNK        -0.4663 
     35 CA         25.6416  -27.3228  -38.6059 C.3       5 UNK         0.0242 
     36 CB         26.4406  -26.6222  -37.4954 C.3       5 UNK        -0.1982 
     37 C          26.4639  -28.4673  -39.2281 C.2       5 UNK         0.5017 
     38 O          27.3706  -28.2000  -40.0188 O.2       5 UNK        -0.5012 
     39 N          26.0918  -29.7088  -38.8906 N.am      6 UNK        -0.4439 
     40 CA         26.5859  -30.9893  -39.4205 C.3       6 UNK         0.0297 
     41 CB         28.1167  -31.1252  -39.2833 C.3       6 UNK        -0.2006 
     42 C          26.1107  -31.3322  -40.8489 C.2       6 UNK         0.4892 
     43 O          26.1768  -32.5064  -41.2157 O.2       6 UNK        -0.5089 
     44 N          25.6158  -30.3511  -41.6181 N.am      7 UNK        -0.4243 
     45 CA         24.9224  -30.5762  -42.8902 C.3       7 UNK         0.0196 
     46 CB         25.1091  -29.3635  -43.8172 C.3       7 UNK        -0.2007 
     47 C          23.4325  -30.8658  -42.6483 C.2       7 UNK         0.5020 
     48 O          22.8654  -31.7299  -43.3166 O.2       7 UNK        -0.5147 
     49 N          22.8335  -30.1524  -41.6839 N.am      8 UNK        -0.4734 
     50 CA         21.4823  -30.3755  -41.1707 C.3       8 UNK         0.0238 
     51 CB         21.1358  -29.2617  -40.1703 C.3       8 UNK        -0.1912 
     52 C          21.3293  -31.7614  -40.5163 C.2       8 UNK         0.5038 
     53 O          22.2805  -32.2698  -39.9171 O.2       8 UNK        -0.5046 
     54 N          20.1276  -32.3317  -40.6481 N.am      9 UNK        -0.4200 
     55 CA         19.7537  -33.6732  -40.1774 C.3       9 UNK         0.0839 
     56 C          19.8091  -33.8110  -38.6319 C.2       9 UNK         0.5513 
     57 N          20.2146  -34.9676  -38.1264 N.am      9 UNK        -0.7519 
     58 O          19.4416  -32.8990  -37.8939 O.2       9 UNK        -0.4960 
     59 C59        18.3563  -34.0914  -40.7114 C.3       10 UNK        -0.0876 
     60 S60        18.2163  -33.9440  -42.5280 S.3       10 UNK        -0.2414 
     61 C61        17.3458  -32.3498  -42.6599 C.3       10 UNK         0.0169 
     62 H62        16.7319  -29.3456  -41.8983 H         1 UNK         0.0903 
     63 H63        18.2955  -29.0720  -42.6855 H         1 UNK         0.0903 
     64 H64        17.8538  -28.1390  -41.2615 H         1 UNK         0.0903 
     65 H65        17.2309  -28.5833  -44.7524 H         1 UNK         0.3096 
     66 H66        15.3615  -26.3742  -44.9824 H         1 UNK         0.1121 
     67 H67        16.7939  -27.9059  -47.2084 H         1 UNK         0.0849 
     68 H68        15.4477  -26.8230  -47.3979 H         1 UNK         0.0849 
     69 H69        15.0024  -31.2058  -47.0519 H         1 UNK         0.0865 
     70 H70        16.0386  -30.1826  -48.0087 H         1 UNK         0.0865 
     71 H71        15.5669  -31.6541  -44.6107 H         1 UNK         0.1346 
     72 H72        19.7411  -31.4724  -43.6348 H         1 UNK         0.1412 
     73 H73        18.3197  -29.7263  -47.2756 H         1 UNK         0.1426 
     74 H74        20.8533  -30.4845  -46.8046 H         1 UNK         0.0716 
     75 H75        21.3189  -30.4738  -45.1239 H         1 UNK         0.0716 
     76 H76        22.1856  -28.3402  -44.0062 H         1 UNK         0.0695 
     77 H77        20.5176  -28.2159  -43.4908 H         1 UNK         0.0695 
     78 H78        22.0271  -25.9409  -44.8940 H         1 UNK         0.0983 
     79 H79        19.3094  -26.1493  -43.9081 H         1 UNK         0.3095 
     80 H80        18.3574  -23.3636  -43.4335 H         1 UNK         0.0454 
     81 H81        17.2304  -22.2871  -45.4091 H         1 UNK         0.0851 
     82 H82        18.4750  -22.9532  -46.4665 H         1 UNK         0.0851 
     83 H83        18.9023  -21.7871  -45.2274 H         1 UNK         0.0851 
     84 H84        16.9992  -25.0889  -43.7054 H         1 UNK         0.2976 
     85 H85        23.9139  -26.0306  -43.7112 H         1 UNK         0.3116 
     86 H86        23.9341  -24.6144  -41.1945 H         1 UNK         0.0646 
     87 H87        26.2046  -25.8955  -42.8270 H         1 UNK         0.0847 
     88 H88        26.4051  -24.7112  -41.5462 H         1 UNK         0.0847 
     89 H89        25.6128  -24.2471  -43.0373 H         1 UNK         0.0847 
     90 H90        25.5972  -25.3996  -39.4940 H         1 UNK         0.3040 
     91 H91        24.7290  -27.7352  -38.1698 H         1 UNK         0.1015 
     92 H92        27.3525  -26.1649  -37.8820 H         1 UNK         0.0786 
     93 H93        26.7355  -27.3309  -36.7202 H         1 UNK         0.0786 
     94 H94        25.8516  -25.8424  -37.0121 H         1 UNK         0.0786 
     95 H95        25.3204  -29.8002  -38.2430 H         1 UNK         0.3172 
     96 H96        26.1409  -31.7481  -38.7748 H         1 UNK         0.0595 
     97 H97        28.6508  -30.4582  -39.9601 H         1 UNK         0.0839 
     98 H98        28.4368  -32.1408  -39.5197 H         1 UNK         0.0839 
     99 H99        28.4469  -30.9107  -38.2670 H         1 UNK         0.0839 
    100 H100       25.5866  -29.4103  -41.2457 H         1 UNK         0.2998 
    101 H101       25.3546  -31.4458  -43.3903 H         1 UNK         0.0822 
    102 H102       24.6139  -29.5283  -44.7752 H         1 UNK         0.0787 
    103 H103       24.6930  -28.4526  -43.3901 H         1 UNK         0.0787 
    104 H104       26.1642  -29.1835  -44.0237 H         1 UNK         0.0787 
    105 H105       23.3613  -29.4000  -41.2469 H         1 UNK         0.3055 
    106 H106       20.7990  -30.3044  -42.0168 H         1 UNK         0.1106 
    107 H107       21.8157  -29.2628  -39.3174 H         1 UNK         0.0828 
    108 H108       21.1902  -28.2779  -40.6372 H         1 UNK         0.0828 
    109 H109       20.1233  -29.3802  -39.7822 H         1 UNK         0.0828 
    110 H110       19.3966  -31.8256  -41.1199 H         1 UNK         0.2931 
    111 H111       20.4889  -34.3617  -40.5997 H         1 UNK         0.0412 
    112 H112       20.5072  -35.7249  -38.7249 H         1 UNK         0.3472 
    113 H113       20.2407  -35.0831  -37.1249 H         1 UNK         0.3472 
    114 H114       17.5655  -33.5090  -40.2339 H         1 UNK         0.0970 
    115 H115       18.1546  -35.1320  -40.4500 H         1 UNK         0.0970 
    116 H116       17.6482  -31.6888  -41.8481 H         1 UNK         0.0612 
    117 H117       16.2770  -32.5251  -42.5273 H         1 UNK         0.0612 
@<TRIPOS>BOND
     1    1    2 1    
     2    1   62 1    
     3    1   63 1    
     4    1   64 1    
     5    2    3 2    
     6    2    4 am   BACKBONE|DICT|INTERRES
     7    4    5 1    
     8    4   65 1    
     9    5    6 1    
    10    5   25 1    
    11    5   66 1    
    12    6    7 1    
    13    6   67 1    
    14    6   68 1    
    15    7    8 1    
    16    8    9 1    
    17    8   69 1    
    18    8   70 1    
    19    9   10 ar   
    20    9   14 ar   
    21   10   11 ar   
    22   10   71 1    
    23   11   12 ar   
    24   11   61 1    
    25   12   13 ar   
    26   12   72 1    
    27   13   14 ar   
    28   13   15 1    
    29   14   73 1    
    30   15   16 1    
    31   15   74 1    
    32   15   75 1    
    33   16   17 1    
    34   17   18 1    
    35   17   76 1    
    36   17   77 1    
    37   18   19 1    
    38   18   27 1    
    39   18   78 1    
    40   19   20 am   BACKBONE|DICT|INTERRES
    41   19   79 1    
    42   20   21 2    
    43   20   22 1    
    44   22   23 1    
    45   22   24 1    
    46   22   80 1    
    47   23   81 1    
    48   23   82 1    
    49   23   83 1    
    50   24   25 am   BACKBONE|DICT|INTERRES
    51   24   84 1    
    52   25   26 2    
    53   27   28 2    
    54   27   29 am   BACKBONE|DICT|INTERRES
    55   29   30 1    
    56   29   85 1    
    57   30   31 1    
    58   30   32 1    
    59   30   86 1    
    60   31   87 1    
    61   31   88 1    
    62   31   89 1    
    63   32   33 2    
    64   32   34 am   BACKBONE|DICT|INTERRES
    65   34   35 1    
    66   34   90 1    
    67   35   36 1    
    68   35   37 1    
    69   35   91 1    
    70   36   92 1    
    71   36   93 1    
    72   36   94 1    
    73   37   38 2    
    74   37   39 am   BACKBONE|DICT|INTERRES
    75   39   40 1    
    76   39   95 1    
    77   40   41 1    
    78   40   42 1    
    79   40   96 1    
    80   41   97 1    
    81   41   98 1    
    82   41   99 1    
    83   42   43 2    
    84   42   44 am   BACKBONE|DICT|INTERRES
    85   44   45 1    
    86   44  100 1    
    87   45   46 1    
    88   45   47 1    
    89   45  101 1    
    90   46  102 1    
    91   46  103 1    
    92   46  104 1    
    93   47   48 2    
    94   47   49 am   BACKBONE|DICT|INTERRES
    95   49   50 1    
    96   49  105 1    
    97   50   51 1    
    98   50   52 1    
    99   50  106 1    
   100   51  107 1    
   101   51  108 1    
   102   51  109 1    
   103   52   53 2    
   104   52   54 am   BACKBONE|DICT|INTERRES
   105   54   55 1    
   106   54  110 1    
   107   55   56 1    
   108   55   59 1    
   109   55  111 1    
   110   56   57 am   BACKBONE|DICT|INTERRES
   111   56   58 2    
   112   57  112 1    
   113   57  113 1    
   114   59   60 1    
   115   59  114 1    
   116   59  115 1    
   117   60   61 1    
   118   61  116 1    
   119   61  117 1    
@<TRIPOS>SUBSTRUCTURE
     1 UNK         1 GROUP             0       ****    0 ROOT    
