@<TRIPOS>MOLECULE
3R8
117   119    1
SMALL
USER_CHARGES


@<TRIPOS>ATOM
      1 CA         18.4725  -21.8267  -42.2254 C.3       0 UNK        -0.2013 
      2 C          18.8392  -23.1947  -42.7808 C.2       0 UNK         0.4866 
      3 O          19.9386  -23.6757  -42.5065 O.2       0 UNK        -0.5176 
      4 N          17.9157  -23.8062  -43.5394 N.am      1 UNK        -0.4884 
      5 CA         17.9981  -25.1052  -44.2286 C.3       1 UNK         0.0853 
      6 C6         18.3869  -26.2922  -43.3101 C.3       10 UNK        -0.0849 
      7 S7         17.1401  -26.6663  -42.0284 S.3       10 UNK        -0.2776 
      8 C8         16.3537  -28.1943  -42.6527 C.3       10 UNK         0.0316 
      9 C9         17.3719  -29.2821  -42.9710 C.ar      10 UNK        -0.0863 
     10 C10        18.0866  -29.9044  -41.9445 C.ar      10 UNK        -0.1009 
     11 C11        19.0792  -30.8427  -42.2406 C.ar      10 UNK        -0.0712 
     12 C12        19.3370  -31.1757  -43.5738 C.ar      10 UNK        -0.0894 
     13 C13        18.6515  -30.5357  -44.6131 C.ar      10 UNK        -0.0745 
     14 C14        17.6471  -29.6156  -44.3007 C.ar      10 UNK        -0.0972 
     15 C15        19.0045  -30.7814  -46.0795 C.3       10 UNK         0.0209 
     16 S16        20.7939  -30.9248  -46.4502 S.3       10 UNK        -0.2568 
     17 C17        21.6118  -29.6461  -45.4297 C.3       10 UNK        -0.0983 
     18 CA         21.9498  -28.3351  -46.1811 C.3       3 UNK         0.0876 
     19 N          20.7283  -27.6380  -46.5991 N.am      3 UNK        -0.4424 
     20 C          20.6640  -26.7042  -47.5565 C.2       2 UNK         0.4918 
     21 O          21.6221  -26.3643  -48.2501 O.2       2 UNK        -0.4875 
     22 CA         19.3019  -26.0107  -47.7489 C.3       2 UNK         0.0481 
     23 CB         18.4503  -26.7824  -48.7695 C.3       2 UNK        -0.1831 
     24 N          18.5429  -25.8487  -46.5005 N.am      2 UNK        -0.4498 
     25 C          18.9154  -25.0709  -45.4713 C.2       1 UNK         0.5027 
     26 O          19.9543  -24.4092  -45.4722 O.2       1 UNK        -0.4969 
     27 C          22.8447  -27.4677  -45.2646 C.2       3 UNK         0.5005 
     28 O          23.9951  -27.8462  -45.0394 O.2       3 UNK        -0.5279 
     29 N          22.2866  -26.3721  -44.7216 N.am      4 UNK        -0.4463 
     30 CA         22.6847  -25.6399  -43.5141 C.3       4 UNK         0.0283 
     31 CB         24.1729  -25.2374  -43.5018 C.3       4 UNK        -0.1875 
     32 C          22.2990  -26.4442  -42.2608 C.2       4 UNK         0.4949 
     33 O          22.6933  -27.6019  -42.1224 O.2       4 UNK        -0.5039 
     34 N          21.5328  -25.8169  -41.3594 N.am      5 UNK        -0.4663 
     35 CA         20.9281  -26.4337  -40.1673 C.3       5 UNK         0.0242 
     36 CB         20.0236  -25.3983  -39.4785 C.3       5 UNK        -0.1982 
     37 C          21.9116  -27.0532  -39.1526 C.2       5 UNK         0.5017 
     38 O          21.4802  -27.8224  -38.2939 O.2       5 UNK        -0.5012 
     39 N          23.2043  -26.7220  -39.2688 N.am      6 UNK        -0.4439 
     40 CA         24.3050  -27.3202  -38.5111 C.3       6 UNK         0.0297 
     41 CB         25.5452  -26.4211  -38.6481 C.3       6 UNK        -0.2006 
     42 C          24.6409  -28.7679  -38.9302 C.2       6 UNK         0.4892 
     43 O          25.3488  -29.4459  -38.1833 O.2       6 UNK        -0.5089 
     44 N          24.1673  -29.2136  -40.1049 N.am      7 UNK        -0.4243 
     45 CA         24.3646  -30.5682  -40.6295 C.3       7 UNK         0.0196 
     46 CB         23.8899  -30.6081  -42.0932 C.3       7 UNK        -0.2007 
     47 C          23.6401  -31.6466  -39.8011 C.2       7 UNK         0.5020 
     48 O          22.6518  -31.3569  -39.1255 O.2       7 UNK        -0.5147 
     49 N          24.1229  -32.8917  -39.9121 N.am      8 UNK        -0.4734 
     50 CA         23.5536  -34.0753  -39.2498 C.3       8 UNK         0.0238 
     51 CB         24.6358  -35.1660  -39.1699 C.3       8 UNK        -0.1912 
     52 C          22.2806  -34.6247  -39.9272 C.2       8 UNK         0.5038 
     53 O          21.6408  -35.5153  -39.3666 O.2       8 UNK        -0.5046 
     54 N          21.9530  -34.0993  -41.1145 N.am      9 UNK        -0.4200 
     55 CA         20.7944  -34.4412  -41.9591 C.3       9 UNK         0.0839 
     56 C          20.9154  -35.8093  -42.6961 C.2       9 UNK         0.5513 
     57 N          22.0802  -36.4457  -42.7284 N.am      9 UNK        -0.7519 
     58 O          19.9455  -36.2907  -43.2764 O.2       9 UNK        -0.4960 
     59 C59        19.4078  -34.2740  -41.2600 C.3       10 UNK        -0.0876 
     60 S60        19.1258  -32.7802  -40.2365 S.3       10 UNK        -0.2414 
     61 C61        19.9363  -31.4124  -41.1224 C.3       10 UNK         0.0169 
     62 H62        17.4712  -21.5167  -42.5237 H         1 UNK         0.0903 
     63 H63        18.5119  -21.8434  -41.1365 H         1 UNK         0.0903 
     64 H64        19.1798  -21.0777  -42.5803 H         1 UNK         0.0903 
     65 H65        17.0494  -23.3128  -43.7055 H         1 UNK         0.3096 
     66 H66        16.9877  -25.2925  -44.5965 H         1 UNK         0.1121 
     67 H67        19.3303  -26.1002  -42.8068 H         1 UNK         0.0849 
     68 H68        18.5792  -27.1818  -43.9046 H         1 UNK         0.0849 
     69 H69        15.6529  -28.5647  -41.9031 H         1 UNK         0.0865 
     70 H70        15.7564  -27.9519  -43.5330 H         1 UNK         0.0865 
     71 H71        17.8994  -29.6262  -40.9161 H         1 UNK         0.1346 
     72 H72        20.1221  -31.8773  -43.8119 H         1 UNK         0.1412 
     73 H73        17.1083  -29.1203  -45.0970 H         1 UNK         0.1426 
     74 H74        18.6040  -29.9804  -46.7025 H         1 UNK         0.0716 
     75 H75        18.5090  -31.6960  -46.4072 H         1 UNK         0.0716 
     76 H76        22.5267  -30.1131  -45.0585 H         1 UNK         0.0695 
     77 H77        21.0301  -29.4169  -44.5379 H         1 UNK         0.0695 
     78 H78        22.5365  -28.5814  -47.0690 H         1 UNK         0.0983 
     79 H79        19.8860  -27.8802  -46.1014 H         1 UNK         0.3095 
     80 H80        19.4941  -25.0145  -48.1530 H         1 UNK         0.0454 
     81 H81        18.9824  -26.8943  -49.7153 H         1 UNK         0.0851 
     82 H82        17.5186  -26.2597  -48.9865 H         1 UNK         0.0851 
     83 H83        18.2006  -27.7841  -48.4175 H         1 UNK         0.0851 
     84 H84        17.6719  -26.3572  -46.4397 H         1 UNK         0.2976 
     85 H85        21.3714  -26.1123  -45.0647 H         1 UNK         0.3116 
     86 H86        22.1017  -24.7188  -43.5305 H         1 UNK         0.0646 
     87 H87        24.3736  -24.5339  -42.6931 H         1 UNK         0.0847 
     88 H88        24.8297  -26.0941  -43.3480 H         1 UNK         0.0847 
     89 H89        24.4622  -24.7529  -44.4341 H         1 UNK         0.0847 
     90 H90        21.1892  -24.8888  -41.5980 H         1 UNK         0.3040 
     91 H91        20.2959  -27.2524  -40.5192 H         1 UNK         0.1015 
     92 H92        19.5407  -25.8210  -38.5963 H         1 UNK         0.0786 
     93 H93        19.2298  -25.0612  -40.1453 H         1 UNK         0.0786 
     94 H94        20.5877  -24.5223  -39.1563 H         1 UNK         0.0786 
     95 H95        23.4527  -26.0843  -40.0109 H         1 UNK         0.3172 
     96 H96        24.0174  -27.3458  -37.4580 H         1 UNK         0.0595 
     97 H97        25.8801  -26.3497  -39.6838 H         1 UNK         0.0839 
     98 H98        26.3787  -26.8137  -38.0637 H         1 UNK         0.0839 
     99 H99        25.3475  -25.4117  -38.2868 H         1 UNK         0.0839 
    100 H100       23.5910  -28.5954  -40.6691 H         1 UNK         0.2998 
    101 H101       25.4357  -30.7796  -40.6039 H         1 UNK         0.0822 
    102 H102       24.0567  -31.5876  -42.5423 H         1 UNK         0.0787 
    103 H103       22.8260  -30.3832  -42.1778 H         1 UNK         0.0787 
    104 H104       24.4263  -29.8799  -42.7029 H         1 UNK         0.0787 
    105 H105       24.9384  -33.0476  -40.4887 H         1 UNK         0.3055 
    106 H106       23.2722  -33.7987  -38.2309 H         1 UNK         0.1106 
    107 H107       24.9621  -35.4871  -40.1598 H         1 UNK         0.0828 
    108 H108       25.5120  -34.8167  -38.6233 H         1 UNK         0.0828 
    109 H109       24.2647  -36.0491  -38.6477 H         1 UNK         0.0828 
    110 H110       22.5703  -33.3957  -41.4888 H         1 UNK         0.2931 
    111 H111       20.8298  -33.7150  -42.7685 H         1 UNK         0.0412 
    112 H112       22.1489  -37.3248  -43.2174 H         1 UNK         0.3472 
    113 H113       22.8873  -36.0616  -42.2646 H         1 UNK         0.3472 
    114 H114       18.6172  -34.2971  -42.0123 H         1 UNK         0.0970 
    115 H115       19.2189  -35.1340  -40.6150 H         1 UNK         0.0970 
    116 H116       20.9116  -31.7095  -41.5005 H         1 UNK         0.0612 
    117 H117       20.1416  -30.6209  -40.3996 H         1 UNK         0.0612 
@<TRIPOS>BOND
     1    1    2 1    
     2    1   62 1    
     3    1   63 1    
     4    1   64 1    
     5    2    3 2    
     6    2    4 am   BACKBONE|DICT|INTERRES
     7    4    5 1    
     8    4   65 1    
     9    5    6 1    
    10    5   25 1    
    11    5   66 1    
    12    6    7 1    
    13    6   67 1    
    14    6   68 1    
    15    7    8 1    
    16    8    9 1    
    17    8   69 1    
    18    8   70 1    
    19    9   10 ar   
    20    9   14 ar   
    21   10   11 ar   
    22   10   71 1    
    23   11   12 ar   
    24   11   61 1    
    25   12   13 ar   
    26   12   72 1    
    27   13   14 ar   
    28   13   15 1    
    29   14   73 1    
    30   15   16 1    
    31   15   74 1    
    32   15   75 1    
    33   16   17 1    
    34   17   18 1    
    35   17   76 1    
    36   17   77 1    
    37   18   19 1    
    38   18   27 1    
    39   18   78 1    
    40   19   20 am   BACKBONE|DICT|INTERRES
    41   19   79 1    
    42   20   21 2    
    43   20   22 1    
    44   22   23 1    
    45   22   24 1    
    46   22   80 1    
    47   23   81 1    
    48   23   82 1    
    49   23   83 1    
    50   24   25 am   BACKBONE|DICT|INTERRES
    51   24   84 1    
    52   25   26 2    
    53   27   28 2    
    54   27   29 am   BACKBONE|DICT|INTERRES
    55   29   30 1    
    56   29   85 1    
    57   30   31 1    
    58   30   32 1    
    59   30   86 1    
    60   31   87 1    
    61   31   88 1    
    62   31   89 1    
    63   32   33 2    
    64   32   34 am   BACKBONE|DICT|INTERRES
    65   34   35 1    
    66   34   90 1    
    67   35   36 1    
    68   35   37 1    
    69   35   91 1    
    70   36   92 1    
    71   36   93 1    
    72   36   94 1    
    73   37   38 2    
    74   37   39 am   BACKBONE|DICT|INTERRES
    75   39   40 1    
    76   39   95 1    
    77   40   41 1    
    78   40   42 1    
    79   40   96 1    
    80   41   97 1    
    81   41   98 1    
    82   41   99 1    
    83   42   43 2    
    84   42   44 am   BACKBONE|DICT|INTERRES
    85   44   45 1    
    86   44  100 1    
    87   45   46 1    
    88   45   47 1    
    89   45  101 1    
    90   46  102 1    
    91   46  103 1    
    92   46  104 1    
    93   47   48 2    
    94   47   49 am   BACKBONE|DICT|INTERRES
    95   49   50 1    
    96   49  105 1    
    97   50   51 1    
    98   50   52 1    
    99   50  106 1    
   100   51  107 1    
   101   51  108 1    
   102   51  109 1    
   103   52   53 2    
   104   52   54 am   BACKBONE|DICT|INTERRES
   105   54   55 1    
   106   54  110 1    
   107   55   56 1    
   108   55   59 1    
   109   55  111 1    
   110   56   57 am   BACKBONE|DICT|INTERRES
   111   56   58 2    
   112   57  112 1    
   113   57  113 1    
   114   59   60 1    
   115   59  114 1    
   116   59  115 1    
   117   60   61 1    
   118   61  116 1    
   119   61  117 1    
@<TRIPOS>SUBSTRUCTURE
     1 UNK         1 GROUP             0       ****    0 ROOT    
