@<TRIPOS>MOLECULE
3R8
117   119    1
SMALL
USER_CHARGES


@<TRIPOS>ATOM
      1 CA         20.7418  -24.2534  -40.0895 C.3       0 UNK        -0.2013 
      2 C          19.7333  -24.4183  -41.2141 C.2       0 UNK         0.4866 
      3 O          18.7124  -23.7298  -41.2266 O.2       0 UNK        -0.5176 
      4 N          20.0233  -25.3176  -42.1585 N.am      1 UNK        -0.4884 
      5 CA         19.2232  -25.5803  -43.3553 C.3       1 UNK         0.0853 
      6 C6         18.6806  -27.0333  -43.3598 C.3       10 UNK        -0.0849 
      7 S7         17.4927  -27.3389  -42.0094 S.3       10 UNK        -0.2776 
      8 C8         16.2271  -28.3558  -42.8377 C.3       10 UNK         0.0316 
      9 C9         16.8073  -29.6538  -43.3830 C.ar      10 UNK        -0.0863 
     10 C10        17.2909  -30.6301  -42.5076 C.ar      10 UNK        -0.1009 
     11 C11        17.8483  -31.8178  -42.9906 C.ar      10 UNK        -0.0712 
     12 C12        17.9002  -32.0264  -44.3756 C.ar      10 UNK        -0.0894 
     13 C13        17.4287  -31.0545  -45.2633 C.ar      10 UNK        -0.0745 
     14 C14        16.8714  -29.8754  -44.7611 C.ar      10 UNK        -0.0972 
     15 C15        17.5508  -31.2707  -46.7663 C.3       10 UNK         0.0209 
     16 S16        18.6079  -30.0200  -47.5707 S.3       10 UNK        -0.2568 
     17 C17        20.1552  -30.1475  -46.6077 C.3       10 UNK        -0.0983 
     18 CA         21.1568  -29.0112  -46.9315 C.3       3 UNK         0.0876 
     19 N          20.5492  -27.6869  -46.7915 N.am      3 UNK        -0.4424 
     20 C          21.0222  -26.5562  -47.3325 C.2       2 UNK         0.4918 
     21 O          22.0456  -26.4933  -48.0137 O.2       2 UNK        -0.4875 
     22 CA         20.2089  -25.2740  -47.0621 C.3       2 UNK         0.0481 
     23 CB         19.2037  -25.0284  -48.1986 C.3       2 UNK        -0.1831 
     24 N          19.4968  -25.3098  -45.7784 N.am      2 UNK        -0.4498 
     25 C          20.1126  -25.3345  -44.5879 C.2       1 UNK         0.5027 
     26 O          21.3350  -25.2219  -44.4623 O.2       1 UNK        -0.4969 
     27 C          22.4267  -29.1692  -46.0707 C.2       3 UNK         0.5005 
     28 O          23.3513  -29.8620  -46.4995 O.2       3 UNK        -0.5279 
     29 N          22.4541  -28.5544  -44.8777 N.am      4 UNK        -0.4463 
     30 CA         23.5392  -28.6729  -43.9059 C.3       4 UNK         0.0283 
     31 CB         23.5278  -30.0682  -43.2545 C.3       4 UNK        -0.1875 
     32 C          23.4081  -27.6030  -42.8185 C.2       4 UNK         0.4949 
     33 O          22.2919  -27.2666  -42.4100 O.2       4 UNK        -0.5039 
     34 N          24.5643  -27.1421  -42.3238 N.am      5 UNK        -0.4663 
     35 CA         24.6899  -26.2544  -41.1665 C.3       5 UNK         0.0242 
     36 CB         26.1587  -25.8304  -41.0102 C.3       5 UNK        -0.1982 
     37 C          24.1872  -26.9356  -39.8832 C.2       5 UNK         0.5017 
     38 O          24.3488  -28.1492  -39.7313 O.2       5 UNK        -0.5012 
     39 N          23.5506  -26.1464  -39.0057 N.am      6 UNK        -0.4439 
     40 CA         22.8937  -26.5582  -37.7536 C.3       6 UNK         0.0297 
     41 CB         23.9502  -26.9994  -36.7182 C.3       6 UNK        -0.2006 
     42 C          21.7806  -27.6195  -37.9236 C.2       6 UNK         0.4892 
     43 O          21.3870  -28.2363  -36.9328 O.2       6 UNK        -0.5089 
     44 N          21.3125  -27.8251  -39.1671 N.am      7 UNK        -0.4243 
     45 CA         20.4114  -28.8917  -39.6194 C.3       7 UNK         0.0196 
     46 CB         19.0110  -28.7388  -38.9894 C.3       7 UNK        -0.2007 
     47 C          21.0013  -30.3054  -39.4239 C.2       7 UNK         0.5020 
     48 O          20.2468  -31.2706  -39.3034 O.2       7 UNK        -0.5147 
     49 N          22.3364  -30.4255  -39.4015 N.am      8 UNK        -0.4734 
     50 CA         23.0583  -31.6811  -39.1836 C.3       8 UNK         0.0238 
     51 CB         24.3739  -31.3695  -38.4451 C.3       8 UNK        -0.1912 
     52 C          23.2832  -32.4276  -40.5107 C.2       8 UNK         0.5038 
     53 O          24.4307  -32.6607  -40.8969 O.2       8 UNK        -0.5046 
     54 N          22.1865  -32.7505  -41.2086 N.am      9 UNK        -0.4200 
     55 CA         22.2017  -33.4637  -42.4936 C.3       9 UNK         0.0839 
     56 C          22.6408  -34.9526  -42.3800 C.2       9 UNK         0.5513 
     57 N          23.0649  -35.5559  -43.4827 N.am      9 UNK        -0.7519 
     58 O          22.5833  -35.5702  -41.3179 O.2       9 UNK        -0.4960 
     59 C59        20.8770  -33.2641  -43.2788 C.3       10 UNK        -0.0876 
     60 S60        19.4306  -34.1714  -42.6205 S.3       10 UNK        -0.2414 
     61 C61        18.3732  -32.8314  -41.9712 C.3       10 UNK         0.0169 
     62 H62        20.7910  -23.2119  -39.7726 H         1 UNK         0.0903 
     63 H63        20.4514  -24.8593  -39.2317 H         1 UNK         0.0903 
     64 H64        21.7371  -24.5512  -40.4132 H         1 UNK         0.0903 
     65 H65        20.9065  -25.8212  -42.1451 H         1 UNK         0.3096 
     66 H66        18.3838  -24.8840  -43.4183 H         1 UNK         0.1121 
     67 H67        19.4947  -27.7551  -43.2649 H         1 UNK         0.0849 
     68 H68        18.1849  -27.2546  -44.3060 H         1 UNK         0.0849 
     69 H69        15.4371  -28.5894  -42.1226 H         1 UNK         0.0865 
     70 H70        15.7578  -27.7711  -43.6305 H         1 UNK         0.0865 
     71 H71        17.2447  -30.4551  -41.4413 H         1 UNK         0.1346 
     72 H72        18.3207  -32.9377  -44.7749 H         1 UNK         0.1412 
     73 H73        16.5085  -29.1236  -45.4488 H         1 UNK         0.1426 
     74 H74        16.5569  -31.2357  -47.2143 H         1 UNK         0.0716 
     75 H75        17.9526  -32.2609  -46.9864 H         1 UNK         0.0716 
     76 H76        20.6017  -31.1230  -46.8103 H         1 UNK         0.0695 
     77 H77        19.9140  -30.1344  -45.5434 H         1 UNK         0.0695 
     78 H78        21.4623  -29.1245  -47.9744 H         1 UNK         0.0983 
     79 H79        19.6722  -27.6531  -46.2963 H         1 UNK         0.3095 
     80 H80        20.9083  -24.4355  -47.0395 H         1 UNK         0.0454 
     81 H81        19.7124  -24.9704  -49.1620 H         1 UNK         0.0851 
     82 H82        18.6691  -24.0885  -48.0608 H         1 UNK         0.0851 
     83 H83        18.4662  -25.8290  -48.2688 H         1 UNK         0.0851 
     84 H84        18.4892  -25.3750  -45.8188 H         1 UNK         0.2976 
     85 H85        21.6971  -27.9446  -44.5983 H         1 UNK         0.3116 
     86 H86        24.4875  -28.5245  -44.4270 H         1 UNK         0.0646 
     87 H87        22.5664  -30.2795  -42.7853 H         1 UNK         0.0847 
     88 H88        23.7288  -30.8537  -43.9821 H         1 UNK         0.0847 
     89 H89        24.2923  -30.1484  -42.4801 H         1 UNK         0.0847 
     90 H90        25.4272  -27.5136  -42.6937 H         1 UNK         0.3040 
     91 H91        24.0844  -25.3666  -41.3619 H         1 UNK         0.1015 
     92 H92        26.2810  -25.1430  -40.1720 H         1 UNK         0.0786 
     93 H93        26.5222  -25.3189  -41.9018 H         1 UNK         0.0786 
     94 H94        26.8083  -26.6872  -40.8253 H         1 UNK         0.0786 
     95 H95        23.5014  -25.1574  -39.2081 H         1 UNK         0.3172 
     96 H96        22.3998  -25.6672  -37.3632 H         1 UNK         0.0595 
     97 H97        24.4384  -27.9298  -37.0107 H         1 UNK         0.0839 
     98 H98        23.4981  -27.1651  -35.7396 H         1 UNK         0.0839 
     99 H99        24.7227  -26.2413  -36.5900 H         1 UNK         0.0839 
    100 H100       21.7279  -27.2823  -39.9114 H         1 UNK         0.2998 
    101 H101       20.3029  -28.7573  -40.6972 H         1 UNK         0.0822 
    102 H102       18.2982  -29.4202  -39.4545 H         1 UNK         0.0787 
    103 H103       18.6248  -27.7284  -39.1233 H         1 UNK         0.0787 
    104 H104       19.0187  -28.9578  -37.9215 H         1 UNK         0.0787 
    105 H105       22.9098  -29.5969  -39.5317 H         1 UNK         0.3055 
    106 H106       22.4674  -32.3374  -38.5403 H         1 UNK         0.1106 
    107 H107       24.1861  -30.8642  -37.4975 H         1 UNK         0.0828 
    108 H108       24.9237  -32.2846  -38.2215 H         1 UNK         0.0828 
    109 H109       25.0293  -30.7310  -39.0390 H         1 UNK         0.0828 
    110 H110       21.2804  -32.5456  -40.8075 H         1 UNK         0.2931 
    111 H111       22.9779  -32.9792  -43.0887 H         1 UNK         0.0412 
    112 H112       23.1160  -35.0652  -44.3618 H         1 UNK         0.3472 
    113 H113       23.3453  -36.5232  -43.4338 H         1 UNK         0.3472 
    114 H114       20.6477  -32.1992  -43.3410 H         1 UNK         0.0970 
    115 H115       21.0152  -33.5832  -44.3131 H         1 UNK         0.0970 
    116 H116       17.5182  -33.2879  -41.4712 H         1 UNK         0.0612 
    117 H117       18.9334  -32.3048  -41.2012 H         1 UNK         0.0612 
@<TRIPOS>BOND
     1    1    2 1    
     2    1   62 1    
     3    1   63 1    
     4    1   64 1    
     5    2    3 2    
     6    2    4 am   BACKBONE|DICT|INTERRES
     7    4    5 1    
     8    4   65 1    
     9    5    6 1    
    10    5   25 1    
    11    5   66 1    
    12    6    7 1    
    13    6   67 1    
    14    6   68 1    
    15    7    8 1    
    16    8    9 1    
    17    8   69 1    
    18    8   70 1    
    19    9   10 ar   
    20    9   14 ar   
    21   10   11 ar   
    22   10   71 1    
    23   11   12 ar   
    24   11   61 1    
    25   12   13 ar   
    26   12   72 1    
    27   13   14 ar   
    28   13   15 1    
    29   14   73 1    
    30   15   16 1    
    31   15   74 1    
    32   15   75 1    
    33   16   17 1    
    34   17   18 1    
    35   17   76 1    
    36   17   77 1    
    37   18   19 1    
    38   18   27 1    
    39   18   78 1    
    40   19   20 am   BACKBONE|DICT|INTERRES
    41   19   79 1    
    42   20   21 2    
    43   20   22 1    
    44   22   23 1    
    45   22   24 1    
    46   22   80 1    
    47   23   81 1    
    48   23   82 1    
    49   23   83 1    
    50   24   25 am   BACKBONE|DICT|INTERRES
    51   24   84 1    
    52   25   26 2    
    53   27   28 2    
    54   27   29 am   BACKBONE|DICT|INTERRES
    55   29   30 1    
    56   29   85 1    
    57   30   31 1    
    58   30   32 1    
    59   30   86 1    
    60   31   87 1    
    61   31   88 1    
    62   31   89 1    
    63   32   33 2    
    64   32   34 am   BACKBONE|DICT|INTERRES
    65   34   35 1    
    66   34   90 1    
    67   35   36 1    
    68   35   37 1    
    69   35   91 1    
    70   36   92 1    
    71   36   93 1    
    72   36   94 1    
    73   37   38 2    
    74   37   39 am   BACKBONE|DICT|INTERRES
    75   39   40 1    
    76   39   95 1    
    77   40   41 1    
    78   40   42 1    
    79   40   96 1    
    80   41   97 1    
    81   41   98 1    
    82   41   99 1    
    83   42   43 2    
    84   42   44 am   BACKBONE|DICT|INTERRES
    85   44   45 1    
    86   44  100 1    
    87   45   46 1    
    88   45   47 1    
    89   45  101 1    
    90   46  102 1    
    91   46  103 1    
    92   46  104 1    
    93   47   48 2    
    94   47   49 am   BACKBONE|DICT|INTERRES
    95   49   50 1    
    96   49  105 1    
    97   50   51 1    
    98   50   52 1    
    99   50  106 1    
   100   51  107 1    
   101   51  108 1    
   102   51  109 1    
   103   52   53 2    
   104   52   54 am   BACKBONE|DICT|INTERRES
   105   54   55 1    
   106   54  110 1    
   107   55   56 1    
   108   55   59 1    
   109   55  111 1    
   110   56   57 am   BACKBONE|DICT|INTERRES
   111   56   58 2    
   112   57  112 1    
   113   57  113 1    
   114   59   60 1    
   115   59  114 1    
   116   59  115 1    
   117   60   61 1    
   118   61  116 1    
   119   61  117 1    
@<TRIPOS>SUBSTRUCTURE
     1 UNK         1 GROUP             0       ****    0 ROOT    
