@<TRIPOS>MOLECULE
3R8
117   119    1
SMALL
USER_CHARGES


@<TRIPOS>ATOM
      1 CA         13.9817  -24.7464  -45.0141 C.3       0 UNK        -0.2013 
      2 C          15.2762  -25.4936  -44.7326 C.2       0 UNK         0.4866 
      3 O          15.6485  -26.3866  -45.4955 O.2       0 UNK        -0.5176 
      4 N          15.9734  -25.1370  -43.6455 N.am      1 UNK        -0.4884 
      5 CA         17.2525  -25.7248  -43.2363 C.3       1 UNK         0.0853 
      6 C6         17.4609  -25.5886  -41.7055 C.3       10 UNK        -0.0849 
      7 S7         18.8892  -26.5250  -41.0513 S.3       10 UNK        -0.2776 
      8 C8         18.1559  -28.1411  -40.6018 C.3       10 UNK         0.0316 
      9 C9         18.1943  -29.2282  -41.6822 C.ar      10 UNK        -0.0863 
     10 C10        17.7251  -30.5039  -41.3521 C.ar      10 UNK        -0.1009 
     11 C11        17.7530  -31.5451  -42.2852 C.ar      10 UNK        -0.0712 
     12 C12        18.2407  -31.3045  -43.5720 C.ar      10 UNK        -0.0894 
     13 C13        18.7160  -30.0387  -43.9209 C.ar      10 UNK        -0.0745 
     14 C14        18.6981  -29.0130  -42.9719 C.ar      10 UNK        -0.0972 
     15 C15        19.2147  -29.7700  -45.3334 C.3       10 UNK         0.0209 
     16 S16        20.9765  -30.1795  -45.5633 S.3       10 UNK        -0.2568 
     17 C17        21.8603  -28.9762  -44.5116 C.3       10 UNK        -0.0983 
     18 CA         22.1530  -27.6360  -45.2343 C.3       3 UNK         0.0876 
     19 N          20.9326  -26.8585  -45.4558 N.am      3 UNK        -0.4424 
     20 C          20.8264  -25.7812  -46.2434 C.2       2 UNK         0.4918 
     21 O          21.7633  -25.3202  -46.8963 O.2       2 UNK        -0.4875 
     22 CA         19.4388  -25.1201  -46.3590 C.3       2 UNK         0.0481 
     23 CB         18.8463  -25.3704  -47.7555 C.3       2 UNK        -0.1831 
     24 N          18.4720  -25.5761  -45.3544 N.am      2 UNK        -0.4498 
     25 C          18.4011  -25.1372  -44.0905 C.2       1 UNK         0.5027 
     26 O          19.1575  -24.2849  -43.6228 O.2       1 UNK        -0.4969 
     27 C          23.1740  -26.8048  -44.4350 C.2       3 UNK         0.5005 
     28 O          22.8447  -26.3172  -43.3516 O.2       3 UNK        -0.5279 
     29 N          24.4054  -26.6930  -44.9547 N.am      4 UNK        -0.4463 
     30 CA         25.5149  -25.9622  -44.3266 C.3       4 UNK         0.0283 
     31 CB         26.6905  -25.8734  -45.3129 C.3       4 UNK        -0.1875 
     32 C          25.9798  -26.5706  -42.9904 C.2       4 UNK         0.4949 
     33 O          26.4986  -25.8456  -42.1421 O.2       4 UNK        -0.5039 
     34 N          25.7597  -27.8808  -42.8192 N.am      5 UNK        -0.4663 
     35 CA         26.0149  -28.6266  -41.5850 C.3       5 UNK         0.0242 
     36 CB         26.3599  -30.0786  -41.9546 C.3       5 UNK        -0.1982 
     37 C          24.8438  -28.5599  -40.5804 C.2       5 UNK         0.5017 
     38 O          24.9190  -29.2128  -39.5378 O.2       5 UNK        -0.5012 
     39 N          23.7945  -27.7813  -40.8934 N.am      6 UNK        -0.4439 
     40 CA         22.5904  -27.5465  -40.0931 C.3       6 UNK         0.0297 
     41 CB         22.9267  -26.7227  -38.8284 C.3       6 UNK        -0.2006 
     42 C          21.8222  -28.8532  -39.8232 C.2       6 UNK         0.4892 
     43 O          21.3967  -29.4982  -40.7790 O.2       6 UNK        -0.5089 
     44 N          21.6577  -29.2176  -38.5430 N.am      7 UNK        -0.4243 
     45 CA         20.9088  -30.3865  -38.0679 C.3       7 UNK         0.0196 
     46 CB         20.8143  -30.3254  -36.5345 C.3       7 UNK        -0.2007 
     47 C          21.4614  -31.7516  -38.5213 C.2       7 UNK         0.5020 
     48 O          20.7383  -32.7440  -38.4313 O.2       7 UNK        -0.5147 
     49 N          22.7122  -31.7986  -38.9983 N.am      8 UNK        -0.4734 
     50 CA         23.2790  -32.9573  -39.6850 C.3       8 UNK         0.0238 
     51 CB         24.8127  -32.8986  -39.5958 C.3       8 UNK        -0.1912 
     52 C          22.7758  -32.9657  -41.1388 C.2       8 UNK         0.5038 
     53 O          23.3765  -32.3138  -41.9941 O.2       8 UNK        -0.5046 
     54 N          21.6605  -33.6702  -41.3689 N.am      9 UNK        -0.4200 
     55 CA         20.9150  -33.7207  -42.6392 C.3       9 UNK         0.0839 
     56 C          21.6893  -34.2935  -43.8640 C.2       9 UNK         0.5513 
     57 N          22.8091  -34.9839  -43.6844 N.am      9 UNK        -0.7519 
     58 O          21.2529  -34.1220  -44.9989 O.2       9 UNK        -0.4960 
     59 C59        19.5624  -34.4701  -42.4811 C.3       10 UNK        -0.0876 
     60 S60        18.5418  -33.9040  -41.0745 S.3       10 UNK        -0.2414 
     61 C61        17.2479  -32.9261  -41.8991 C.3       10 UNK         0.0169 
     62 H62        13.1443  -25.4432  -45.0359 H         1 UNK         0.0903 
     63 H63        13.7739  -23.9899  -44.2577 H         1 UNK         0.0903 
     64 H64        14.0382  -24.2512  -45.9831 H         1 UNK         0.0903 
     65 H65        15.6379  -24.3750  -43.0722 H         1 UNK         0.3096 
     66 H66        17.1935  -26.7920  -43.4533 H         1 UNK         0.1121 
     67 H67        16.5635  -25.9169  -41.1791 H         1 UNK         0.0849 
     68 H68        17.5901  -24.5399  -41.4317 H         1 UNK         0.0849 
     69 H69        17.1272  -27.9992  -40.2685 H         1 UNK         0.0865 
     70 H70        18.7026  -28.5124  -39.7344 H         1 UNK         0.0865 
     71 H71        17.3473  -30.6944  -40.3566 H         1 UNK         0.1346 
     72 H72        18.2572  -32.1029  -44.3011 H         1 UNK         0.1412 
     73 H73        19.0945  -28.0498  -43.2467 H         1 UNK         0.1426 
     74 H74        19.0270  -28.7350  -45.6161 H         1 UNK         0.0716 
     75 H75        18.6350  -30.3695  -46.0370 H         1 UNK         0.0716 
     76 H76        22.7959  -29.4608  -44.2245 H         1 UNK         0.0695 
     77 H77        21.3253  -28.8170  -43.5754 H         1 UNK         0.0695 
     78 H78        22.5827  -27.8608  -46.2132 H         1 UNK         0.0983 
     79 H79        20.1238  -27.1385  -44.9281 H         1 UNK         0.3095 
     80 H80        19.5812  -24.0438  -46.2416 H         1 UNK         0.0454 
     81 H81        18.6807  -26.4326  -47.9401 H         1 UNK         0.0851 
     82 H82        19.5143  -25.0045  -48.5366 H         1 UNK         0.0851 
     83 H83        17.8936  -24.8554  -47.8810 H         1 UNK         0.0851 
     84 H84        17.7325  -26.1927  -45.6755 H         1 UNK         0.2976 
     85 H85        24.5972  -27.1159  -45.8524 H         1 UNK         0.3116 
     86 H86        25.1674  -24.9480  -44.1182 H         1 UNK         0.0646 
     87 H87        27.0722  -26.8599  -45.5789 H         1 UNK         0.0847 
     88 H88        27.5194  -25.3102  -44.8814 H         1 UNK         0.0847 
     89 H89        26.4015  -25.3640  -46.2324 H         1 UNK         0.0847 
     90 H90        25.3350  -28.3948  -43.5774 H         1 UNK         0.3040 
     91 H91        26.8841  -28.1937  -41.0846 H         1 UNK         0.1015 
     92 H92        27.1533  -30.1229  -42.7009 H         1 UNK         0.0786 
     93 H93        25.4946  -30.6121  -42.3500 H         1 UNK         0.0786 
     94 H94        26.7171  -30.6254  -41.0820 H         1 UNK         0.0786 
     95 H95        23.7949  -27.3136  -41.7936 H         1 UNK         0.3172 
     96 H96        21.9331  -26.9357  -40.7135 H         1 UNK         0.0595 
     97 H97        23.6023  -27.2501  -38.1540 H         1 UNK         0.0839 
     98 H98        22.0239  -26.4692  -38.2708 H         1 UNK         0.0839 
     99 H99        23.4050  -25.7806  -39.0967 H         1 UNK         0.0839 
    100 H100       22.0736  -28.6338  -37.8321 H         1 UNK         0.2998 
    101 H101       19.8988  -30.3113  -38.4758 H         1 UNK         0.0822 
    102 H102       20.3251  -29.4098  -36.2015 H         1 UNK         0.0787 
    103 H103       20.2308  -31.1608  -36.1446 H         1 UNK         0.0787 
    104 H104       21.7995  -30.3712  -36.0685 H         1 UNK         0.0787 
    105 H105       23.2275  -30.9307  -39.0777 H         1 UNK         0.3055 
    106 H106       22.9523  -33.8765  -39.1926 H         1 UNK         0.1106 
    107 H107       25.2694  -33.7199  -40.1493 H         1 UNK         0.0828 
    108 H108       25.1520  -32.9726  -38.5626 H         1 UNK         0.0828 
    109 H109       25.2024  -31.9690  -40.0070 H         1 UNK         0.0828 
    110 H110       21.2035  -34.1143  -40.5849 H         1 UNK         0.2931 
    111 H111       20.6886  -32.6827  -42.8902 H         1 UNK         0.0412 
    112 H112       23.1798  -35.1236  -42.7585 H         1 UNK         0.3472 
    113 H113       23.2978  -35.3508  -44.4860 H         1 UNK         0.3472 
    114 H114       18.9771  -34.3946  -43.3992 H         1 UNK         0.0970 
    115 H115       19.7445  -35.5369  -42.3374 H         1 UNK         0.0970 
    116 H116       16.4015  -32.8261  -41.2181 H         1 UNK         0.0612 
    117 H117       16.8710  -33.4617  -42.7716 H         1 UNK         0.0612 
@<TRIPOS>BOND
     1    1    2 1    
     2    1   62 1    
     3    1   63 1    
     4    1   64 1    
     5    2    3 2    
     6    2    4 am   BACKBONE|DICT|INTERRES
     7    4    5 1    
     8    4   65 1    
     9    5    6 1    
    10    5   25 1    
    11    5   66 1    
    12    6    7 1    
    13    6   67 1    
    14    6   68 1    
    15    7    8 1    
    16    8    9 1    
    17    8   69 1    
    18    8   70 1    
    19    9   10 ar   
    20    9   14 ar   
    21   10   11 ar   
    22   10   71 1    
    23   11   12 ar   
    24   11   61 1    
    25   12   13 ar   
    26   12   72 1    
    27   13   14 ar   
    28   13   15 1    
    29   14   73 1    
    30   15   16 1    
    31   15   74 1    
    32   15   75 1    
    33   16   17 1    
    34   17   18 1    
    35   17   76 1    
    36   17   77 1    
    37   18   19 1    
    38   18   27 1    
    39   18   78 1    
    40   19   20 am   BACKBONE|DICT|INTERRES
    41   19   79 1    
    42   20   21 2    
    43   20   22 1    
    44   22   23 1    
    45   22   24 1    
    46   22   80 1    
    47   23   81 1    
    48   23   82 1    
    49   23   83 1    
    50   24   25 am   BACKBONE|DICT|INTERRES
    51   24   84 1    
    52   25   26 2    
    53   27   28 2    
    54   27   29 am   BACKBONE|DICT|INTERRES
    55   29   30 1    
    56   29   85 1    
    57   30   31 1    
    58   30   32 1    
    59   30   86 1    
    60   31   87 1    
    61   31   88 1    
    62   31   89 1    
    63   32   33 2    
    64   32   34 am   BACKBONE|DICT|INTERRES
    65   34   35 1    
    66   34   90 1    
    67   35   36 1    
    68   35   37 1    
    69   35   91 1    
    70   36   92 1    
    71   36   93 1    
    72   36   94 1    
    73   37   38 2    
    74   37   39 am   BACKBONE|DICT|INTERRES
    75   39   40 1    
    76   39   95 1    
    77   40   41 1    
    78   40   42 1    
    79   40   96 1    
    80   41   97 1    
    81   41   98 1    
    82   41   99 1    
    83   42   43 2    
    84   42   44 am   BACKBONE|DICT|INTERRES
    85   44   45 1    
    86   44  100 1    
    87   45   46 1    
    88   45   47 1    
    89   45  101 1    
    90   46  102 1    
    91   46  103 1    
    92   46  104 1    
    93   47   48 2    
    94   47   49 am   BACKBONE|DICT|INTERRES
    95   49   50 1    
    96   49  105 1    
    97   50   51 1    
    98   50   52 1    
    99   50  106 1    
   100   51  107 1    
   101   51  108 1    
   102   51  109 1    
   103   52   53 2    
   104   52   54 am   BACKBONE|DICT|INTERRES
   105   54   55 1    
   106   54  110 1    
   107   55   56 1    
   108   55   59 1    
   109   55  111 1    
   110   56   57 am   BACKBONE|DICT|INTERRES
   111   56   58 2    
   112   57  112 1    
   113   57  113 1    
   114   59   60 1    
   115   59  114 1    
   116   59  115 1    
   117   60   61 1    
   118   61  116 1    
   119   61  117 1    
@<TRIPOS>SUBSTRUCTURE
     1 UNK         1 GROUP             0       ****    0 ROOT    
