@<TRIPOS>MOLECULE
3R8
117   119    1
SMALL
USER_CHARGES


@<TRIPOS>ATOM
      1 CA         14.5520  -23.4787  -42.7075 C.3       0 UNK        -0.2013 
      2 C          15.6432  -23.5422  -43.7656 C.2       0 UNK         0.4866 
      3 O          16.3219  -22.5432  -44.0064 O.2       0 UNK        -0.5176 
      4 N          15.8062  -24.7059  -44.4071 N.am      1 UNK        -0.4884 
      5 CA         16.8401  -24.9936  -45.4071 C.3       1 UNK         0.0853 
      6 C6         16.5891  -26.3178  -46.1905 C.3       10 UNK        -0.0849 
      7 S7         15.4474  -27.5600  -45.4561 S.3       10 UNK        -0.2776 
      8 C8         16.2384  -28.0870  -43.8912 C.3       10 UNK         0.0316 
      9 C9         17.3510  -29.1317  -44.0025 C.ar      10 UNK        -0.0863 
     10 C10        17.7140  -29.8524  -42.8587 C.ar      10 UNK        -0.1009 
     11 C11        18.7767  -30.7617  -42.8891 C.ar      10 UNK        -0.0712 
     12 C12        19.4923  -30.9448  -44.0750 C.ar      10 UNK        -0.0894 
     13 C13        19.1372  -30.2399  -45.2262 C.ar      10 UNK        -0.0745 
     14 C14        18.0516  -29.3639  -45.1897 C.ar      10 UNK        -0.0972 
     15 C15        19.9280  -30.3947  -46.5138 C.3       10 UNK         0.0209 
     16 S16        20.6491  -28.8045  -47.0363 S.3       10 UNK        -0.2568 
     17 C17        22.0856  -28.6439  -45.9211 C.3       10 UNK        -0.0983 
     18 CA         21.9767  -27.5636  -44.8059 C.3       3 UNK         0.0876 
     19 N          21.2659  -26.3455  -45.2145 N.am      3 UNK        -0.4424 
     20 C          21.4203  -25.1490  -44.6312 C.2       2 UNK         0.4918 
     21 O          22.1820  -24.9497  -43.6843 O.2       2 UNK        -0.4875 
     22 CA         20.5602  -23.9883  -45.1569 C.3       2 UNK         0.0481 
     23 CB         21.2835  -23.2720  -46.3080 C.3       2 UNK        -0.1831 
     24 N          19.2032  -24.3531  -45.5837 N.am      2 UNK        -0.4498 
     25 C          18.2658  -24.9249  -44.8112 C.2       1 UNK         0.5027 
     26 O          18.4890  -25.3824  -43.6886 O.2       1 UNK        -0.4969 
     27 C          21.5597  -28.1145  -43.4216 C.2       3 UNK         0.5005 
     28 O          22.2374  -29.0114  -42.9211 O.2       3 UNK        -0.5279 
     29 N          20.5536  -27.5161  -42.7604 N.am      4 UNK        -0.4463 
     30 CA         20.2764  -27.7214  -41.3325 C.3       4 UNK         0.0283 
     31 CB         18.9765  -27.0001  -40.9443 C.3       4 UNK        -0.1875 
     32 C          21.4237  -27.2543  -40.4147 C.2       4 UNK         0.4949 
     33 O          21.5535  -27.7731  -39.3064 O.2       4 UNK        -0.5039 
     34 N          22.2348  -26.2946  -40.8852 N.am      5 UNK        -0.4663 
     35 CA         23.4293  -25.8037  -40.1939 C.3       5 UNK         0.0242 
     36 CB         23.6691  -24.3404  -40.6028 C.3       5 UNK        -0.1982 
     37 C          24.6837  -26.6553  -40.4726 C.2       5 UNK         0.5017 
     38 O          25.7097  -26.4227  -39.8313 O.2       5 UNK        -0.5012 
     39 N          24.6035  -27.5999  -41.4203 N.am      6 UNK        -0.4439 
     40 CA         25.6838  -28.5213  -41.7747 C.3       6 UNK         0.0297 
     41 CB         25.5943  -28.8363  -43.2800 C.3       6 UNK        -0.2006 
     42 C          25.5990  -29.8072  -40.9351 C.2       6 UNK         0.4892 
     43 O          24.6453  -29.9999  -40.1762 O.2       6 UNK        -0.5089 
     44 N          26.5944  -30.6867  -41.1065 N.am      7 UNK        -0.4243 
     45 CA         26.6532  -32.0230  -40.5071 C.3       7 UNK         0.0196 
     46 CB         28.1181  -32.4990  -40.4920 C.3       7 UNK        -0.2007 
     47 C          25.7176  -33.0030  -41.2441 C.2       7 UNK         0.5020 
     48 O          26.1848  -33.9315  -41.9059 O.2       7 UNK        -0.5147 
     49 N          24.4104  -32.7540  -41.1387 N.am      8 UNK        -0.4734 
     50 CA         23.3295  -33.5256  -41.7446 C.3       8 UNK         0.0238 
     51 CB         22.8404  -32.7877  -43.0038 C.3       8 UNK        -0.1912 
     52 C          22.1933  -33.6954  -40.7268 C.2       8 UNK         0.5038 
     53 O          22.1551  -32.9770  -39.7244 O.2       8 UNK        -0.5046 
     54 N          21.2842  -34.6360  -41.0144 N.am      9 UNK        -0.4200 
     55 CA         20.1119  -34.9930  -40.1912 C.3       9 UNK         0.0839 
     56 C          20.4562  -35.6745  -38.8303 C.2       9 UNK         0.5513 
     57 N          21.6624  -36.1947  -38.6376 N.am      9 UNK        -0.7519 
     58 O          19.6099  -35.7661  -37.9444 O.2       9 UNK        -0.4960 
     59 C59        19.0857  -33.8314  -40.0346 C.3       10 UNK        -0.0876 
     60 S60        18.4731  -33.1975  -41.6330 S.3       10 UNK        -0.2414 
     61 C61        19.1755  -31.5212  -41.6346 C.3       10 UNK         0.0169 
     62 H62        14.9841  -23.2295  -41.7387 H         1 UNK         0.0903 
     63 H63        13.8240  -22.7097  -42.9643 H         1 UNK         0.0903 
     64 H64        14.0235  -24.4268  -42.6089 H         1 UNK         0.0903 
     65 H65        15.2131  -25.4917  -44.1798 H         1 UNK         0.3096 
     66 H66        16.7766  -24.1783  -46.1320 H         1 UNK         0.1121 
     67 H67        16.1329  -26.0527  -47.1457 H         1 UNK         0.0849 
     68 H68        17.5268  -26.7912  -46.4797 H         1 UNK         0.0849 
     69 H69        16.6242  -27.2141  -43.3672 H         1 UNK         0.0865 
     70 H70        15.4491  -28.4917  -43.2558 H         1 UNK         0.0865 
     71 H71        17.1790  -29.6924  -41.9325 H         1 UNK         0.1346 
     72 H72        20.3289  -31.6280  -44.0964 H         1 UNK         0.1412 
     73 H73        17.7865  -28.8514  -46.0988 H         1 UNK         0.1426 
     74 H74        19.2583  -30.7521  -47.2972 H         1 UNK         0.0716 
     75 H75        20.7141  -31.1446  -46.4137 H         1 UNK         0.0716 
     76 H76        22.3459  -29.6208  -45.5090 H         1 UNK         0.0695 
     77 H77        22.9280  -28.3853  -46.5645 H         1 UNK         0.0695 
     78 H78        23.0080  -27.2472  -44.6303 H         1 UNK         0.0983 
     79 H79        20.6129  -26.4475  -45.9781 H         1 UNK         0.3095 
     80 H80        20.4518  -23.2763  -44.3361 H         1 UNK         0.0454 
     81 H81        22.2882  -22.9687  -46.0097 H         1 UNK         0.0851 
     82 H82        21.3844  -23.9132  -47.1846 H         1 UNK         0.0851 
     83 H83        20.7539  -22.3685  -46.6106 H         1 UNK         0.0851 
     84 H84        18.9339  -24.0314  -46.5027 H         1 UNK         0.2976 
     85 H85        20.0146  -26.7935  -43.2255 H         1 UNK         0.3116 
     86 H86        20.1408  -28.7913  -41.1688 H         1 UNK         0.0646 
     87 H87        18.7216  -27.1901  -39.9010 H         1 UNK         0.0847 
     88 H88        18.1358  -27.3364  -41.5473 H         1 UNK         0.0847 
     89 H89        19.0632  -25.9198  -41.0669 H         1 UNK         0.0847 
     90 H90        22.0576  -25.9072  -41.8063 H         1 UNK         0.3040 
     91 H91        23.2558  -25.8297  -39.1156 H         1 UNK         0.1015 
     92 H92        24.5122  -23.9144  -40.0572 H         1 UNK         0.0786 
     93 H93        22.7990  -23.7197  -40.3879 H         1 UNK         0.0786 
     94 H94        23.8915  -24.2499  -41.6668 H         1 UNK         0.0786 
     95 H95        23.6939  -27.8161  -41.8100 H         1 UNK         0.3172 
     96 H96        26.6482  -28.0476  -41.5797 H         1 UNK         0.0595 
     97 H97        25.5382  -27.9249  -43.8755 H         1 UNK         0.0839 
     98 H98        24.7232  -29.4473  -43.5176 H         1 UNK         0.0839 
     99 H99        26.4723  -29.3852  -43.6216 H         1 UNK         0.0839 
    100 H100       27.3272  -30.4624  -41.7642 H         1 UNK         0.2998 
    101 H101       26.3133  -31.9621  -39.4707 H         1 UNK         0.0822 
    102 H102       28.7486  -31.8231  -39.9139 H         1 UNK         0.0787 
    103 H103       28.2022  -33.4867  -40.0365 H         1 UNK         0.0787 
    104 H104       28.5335  -32.5672  -41.4983 H         1 UNK         0.0787 
    105 H105       24.1131  -31.9700  -40.5631 H         1 UNK         0.3055 
    106 H106       23.6883  -34.5202  -42.0197 H         1 UNK         0.1106 
    107 H107       22.4797  -31.7858  -42.7663 H         1 UNK         0.0828 
    108 H108       23.6405  -32.6851  -43.7371 H         1 UNK         0.0828 
    109 H109       22.0256  -33.3265  -43.4884 H         1 UNK         0.0828 
    110 H110       21.3960  -35.1792  -41.8582 H         1 UNK         0.2931 
    111 H111       19.6075  -35.7778  -40.7561 H         1 UNK         0.0412 
    112 H112       21.8717  -36.6430  -37.7591 H         1 UNK         0.3472 
    113 H113       22.3646  -36.1430  -39.3577 H         1 UNK         0.3472 
    114 H114       19.5105  -33.0187  -39.4435 H         1 UNK         0.0970 
    115 H115       18.2109  -34.1724  -39.4781 H         1 UNK         0.0970 
    116 H116       20.2624  -31.5754  -41.5670 H         1 UNK         0.0612 
    117 H117       18.8370  -30.9876  -40.7451 H         1 UNK         0.0612 
@<TRIPOS>BOND
     1    1    2 1    
     2    1   62 1    
     3    1   63 1    
     4    1   64 1    
     5    2    3 2    
     6    2    4 am   BACKBONE|DICT|INTERRES
     7    4    5 1    
     8    4   65 1    
     9    5    6 1    
    10    5   25 1    
    11    5   66 1    
    12    6    7 1    
    13    6   67 1    
    14    6   68 1    
    15    7    8 1    
    16    8    9 1    
    17    8   69 1    
    18    8   70 1    
    19    9   10 ar   
    20    9   14 ar   
    21   10   11 ar   
    22   10   71 1    
    23   11   12 ar   
    24   11   61 1    
    25   12   13 ar   
    26   12   72 1    
    27   13   14 ar   
    28   13   15 1    
    29   14   73 1    
    30   15   16 1    
    31   15   74 1    
    32   15   75 1    
    33   16   17 1    
    34   17   18 1    
    35   17   76 1    
    36   17   77 1    
    37   18   19 1    
    38   18   27 1    
    39   18   78 1    
    40   19   20 am   BACKBONE|DICT|INTERRES
    41   19   79 1    
    42   20   21 2    
    43   20   22 1    
    44   22   23 1    
    45   22   24 1    
    46   22   80 1    
    47   23   81 1    
    48   23   82 1    
    49   23   83 1    
    50   24   25 am   BACKBONE|DICT|INTERRES
    51   24   84 1    
    52   25   26 2    
    53   27   28 2    
    54   27   29 am   BACKBONE|DICT|INTERRES
    55   29   30 1    
    56   29   85 1    
    57   30   31 1    
    58   30   32 1    
    59   30   86 1    
    60   31   87 1    
    61   31   88 1    
    62   31   89 1    
    63   32   33 2    
    64   32   34 am   BACKBONE|DICT|INTERRES
    65   34   35 1    
    66   34   90 1    
    67   35   36 1    
    68   35   37 1    
    69   35   91 1    
    70   36   92 1    
    71   36   93 1    
    72   36   94 1    
    73   37   38 2    
    74   37   39 am   BACKBONE|DICT|INTERRES
    75   39   40 1    
    76   39   95 1    
    77   40   41 1    
    78   40   42 1    
    79   40   96 1    
    80   41   97 1    
    81   41   98 1    
    82   41   99 1    
    83   42   43 2    
    84   42   44 am   BACKBONE|DICT|INTERRES
    85   44   45 1    
    86   44  100 1    
    87   45   46 1    
    88   45   47 1    
    89   45  101 1    
    90   46  102 1    
    91   46  103 1    
    92   46  104 1    
    93   47   48 2    
    94   47   49 am   BACKBONE|DICT|INTERRES
    95   49   50 1    
    96   49  105 1    
    97   50   51 1    
    98   50   52 1    
    99   50  106 1    
   100   51  107 1    
   101   51  108 1    
   102   51  109 1    
   103   52   53 2    
   104   52   54 am   BACKBONE|DICT|INTERRES
   105   54   55 1    
   106   54  110 1    
   107   55   56 1    
   108   55   59 1    
   109   55  111 1    
   110   56   57 am   BACKBONE|DICT|INTERRES
   111   56   58 2    
   112   57  112 1    
   113   57  113 1    
   114   59   60 1    
   115   59  114 1    
   116   59  115 1    
   117   60   61 1    
   118   61  116 1    
   119   61  117 1    
@<TRIPOS>SUBSTRUCTURE
     1 UNK         1 GROUP             0       ****    0 ROOT    
