@<TRIPOS>MOLECULE
3R8
117   119    1
SMALL
USER_CHARGES


@<TRIPOS>ATOM
      1 CA         14.8860  -24.6948  -40.4005 C.3       0 UNK        -0.2013 
      2 C          15.4147  -25.3248  -41.6806 C.2       0 UNK         0.4866 
      3 O          14.7415  -25.2754  -42.7109 O.2       0 UNK        -0.5176 
      4 N          16.6097  -25.9251  -41.6221 N.am      1 UNK        -0.4884 
      5 CA         17.2936  -26.5405  -42.7641 C.3       1 UNK         0.0853 
      6 C6         18.4788  -27.4277  -42.3105 C.3       10 UNK        -0.0849 
      7 S7         17.9240  -28.9252  -41.4300 S.3       10 UNK        -0.2776 
      8 C8         17.5992  -30.0861  -42.7996 C.3       10 UNK         0.0316 
      9 C9         18.8467  -30.3974  -43.6160 C.ar      10 UNK        -0.0863 
     10 C10        19.8202  -31.2611  -43.1092 C.ar      10 UNK        -0.1009 
     11 C11        20.9579  -31.5714  -43.8613 C.ar      10 UNK        -0.0712 
     12 C12        21.1251  -30.9957  -45.1233 C.ar      10 UNK        -0.0894 
     13 C13        20.1776  -30.0974  -45.6264 C.ar      10 UNK        -0.0745 
     14 C14        19.0285  -29.8234  -44.8780 C.ar      10 UNK        -0.0972 
     15 C15        20.3977  -29.3950  -46.9621 C.3       10 UNK         0.0209 
     16 S16        22.0421  -28.6095  -47.1308 S.3       10 UNK        -0.2568 
     17 C17        22.2947  -27.7372  -45.5440 C.3       10 UNK        -0.0983 
     18 CA         21.8622  -26.2531  -45.5831 C.3       3 UNK         0.0876 
     19 N          20.4180  -26.1085  -45.7497 N.am      3 UNK        -0.4424 
     20 C          19.8065  -25.0033  -46.1944 C.2       2 UNK         0.4918 
     21 O          20.4021  -24.0117  -46.6166 O.2       2 UNK        -0.4875 
     22 CA         18.2672  -25.0011  -46.1562 C.3       2 UNK         0.0481 
     23 CB         17.6990  -25.5010  -47.4940 C.3       2 UNK        -0.1831 
     24 N          17.7249  -25.8135  -45.0623 N.am      2 UNK        -0.4498 
     25 C          17.7862  -25.4767  -43.7651 C.2       1 UNK         0.5027 
     26 O          18.2436  -24.4079  -43.3518 O.2       1 UNK        -0.4969 
     27 C          22.2860  -25.5486  -44.2815 C.2       3 UNK         0.5005 
     28 O          21.6957  -25.8105  -43.2309 O.2       3 UNK        -0.5279 
     29 N          23.3141  -24.6957  -44.3665 N.am      4 UNK        -0.4463 
     30 CA         23.8912  -23.9878  -43.2192 C.3       4 UNK         0.0283 
     31 CB         24.4889  -22.6567  -43.7059 C.3       4 UNK        -0.1875 
     32 C          24.9601  -24.8112  -42.4761 C.2       4 UNK         0.4949 
     33 O          25.3276  -24.4395  -41.3615 O.2       4 UNK        -0.5039 
     34 N          25.4679  -25.8799  -43.1090 N.am      5 UNK        -0.4663 
     35 CA         26.5733  -26.7042  -42.6127 C.3       5 UNK         0.0242 
     36 CB         27.0449  -27.6545  -43.7264 C.3       5 UNK        -0.1982 
     37 C          26.2382  -27.4879  -41.3334 C.2       5 UNK         0.5017 
     38 O          27.0270  -27.4605  -40.3878 O.2       5 UNK        -0.5012 
     39 N          25.0852  -28.1668  -41.3279 N.am      6 UNK        -0.4439 
     40 CA         24.5823  -28.9892  -40.2302 C.3       6 UNK         0.0297 
     41 CB         25.4425  -30.2600  -40.0584 C.3       6 UNK        -0.2006 
     42 C          23.1312  -29.3767  -40.5307 C.2       6 UNK         0.4892 
     43 O          22.7447  -29.4221  -41.6998 O.2       6 UNK        -0.5089 
     44 N          22.3824  -29.6941  -39.4681 N.am      7 UNK        -0.4243 
     45 CA         21.0062  -30.2018  -39.5192 C.3       7 UNK         0.0196 
     46 CB         20.1502  -29.3989  -38.5234 C.3       7 UNK        -0.2007 
     47 C          20.9326  -31.7126  -39.2155 C.2       7 UNK         0.5020 
     48 O          19.8356  -32.2474  -39.0509 O.2       7 UNK        -0.5147 
     49 N          22.0944  -32.3804  -39.1375 N.am      8 UNK        -0.4734 
     50 CA         22.2825  -33.7727  -38.7025 C.3       8 UNK         0.0238 
     51 CB         23.7914  -34.0635  -38.6323 C.3       8 UNK        -0.1912 
     52 C          21.5705  -34.8476  -39.5470 C.2       8 UNK         0.5038 
     53 O          21.4400  -35.9813  -39.0834 O.2       8 UNK        -0.5046 
     54 N          21.1284  -34.4822  -40.7552 N.am      9 UNK        -0.4200 
     55 CA         20.3317  -35.3194  -41.6629 C.3       9 UNK         0.0839 
     56 C          18.9026  -35.6423  -41.1351 C.2       9 UNK         0.5513 
     57 N          18.3583  -34.8850  -40.1879 N.am      9 UNK        -0.7519 
     58 O          18.2796  -36.5942  -41.5978 O.2       9 UNK        -0.4960 
     59 C59        20.2422  -34.7143  -43.0900 C.3       10 UNK        -0.0876 
     60 S60        21.8487  -34.2247  -43.8146 S.3       10 UNK        -0.2414 
     61 C61        22.0332  -32.4849  -43.2916 C.3       10 UNK         0.0169 
     62 H62        13.9329  -25.1461  -40.1260 H         1 UNK         0.0903 
     63 H63        15.5753  -24.8254  -39.5665 H         1 UNK         0.0903 
     64 H64        14.7283  -23.6265  -40.5459 H         1 UNK         0.0903 
     65 H65        17.1236  -25.9302  -40.7528 H         1 UNK         0.3096 
     66 H66        16.5650  -27.1695  -43.2805 H         1 UNK         0.1121 
     67 H67        19.1405  -26.8669  -41.6472 H         1 UNK         0.0849 
     68 H68        19.1094  -27.7214  -43.1497 H         1 UNK         0.0849 
     69 H69        17.2032  -31.0138  -42.3835 H         1 UNK         0.0865 
     70 H70        16.8102  -29.6840  -43.4365 H         1 UNK         0.0865 
     71 H71        19.6868  -31.6911  -42.1265 H         1 UNK         0.1346 
     72 H72        22.0134  -31.2167  -45.6990 H         1 UNK         0.1412 
     73 H73        18.2806  -29.1489  -45.2702 H         1 UNK         0.1426 
     74 H74        19.6375  -28.6299  -47.1249 H         1 UNK         0.0716 
     75 H75        20.2739  -30.1221  -47.7655 H         1 UNK         0.0716 
     76 H76        21.8006  -28.2620  -44.7253 H         1 UNK         0.0695 
     77 H77        23.3621  -27.8078  -45.3259 H         1 UNK         0.0695 
     78 H78        22.3600  -25.7716  -46.4282 H         1 UNK         0.0983 
     79 H79        19.8562  -26.8594  -45.3836 H         1 UNK         0.3095 
     80 H80        17.9389  -23.9694  -46.0124 H         1 UNK         0.0454 
     81 H81        18.0668  -24.8948  -48.3232 H         1 UNK         0.0851 
     82 H82        17.9829  -26.5343  -47.6970 H         1 UNK         0.0851 
     83 H83        16.6107  -25.4409  -47.5111 H         1 UNK         0.0851 
     84 H84        17.2948  -26.6889  -45.3236 H         1 UNK         0.2976 
     85 H85        23.7359  -24.5173  -45.2678 H         1 UNK         0.3116 
     86 H86        23.0996  -23.7576  -42.5025 H         1 UNK         0.0646 
     87 H87        24.8952  -22.0828  -42.8717 H         1 UNK         0.0847 
     88 H88        23.7335  -22.0339  -44.1855 H         1 UNK         0.0847 
     89 H89        25.3000  -22.8119  -44.4184 H         1 UNK         0.0847 
     90 H90        25.1069  -26.1051  -44.0235 H         1 UNK         0.3040 
     91 H91        27.4009  -26.0329  -42.3714 H         1 UNK         0.1015 
     92 H92        27.3953  -27.1013  -44.5981 H         1 UNK         0.0786 
     93 H93        26.2502  -28.3269  -44.0522 H         1 UNK         0.0786 
     94 H94        27.8753  -28.2741  -43.3842 H         1 UNK         0.0786 
     95 H95        24.4674  -28.1249  -42.1299 H         1 UNK         0.3172 
     96 H96        24.6071  -28.3976  -39.3126 H         1 UNK         0.0595 
     97 H97        26.4770  -30.0200  -39.8139 H         1 UNK         0.0839 
     98 H98        25.4478  -30.8660  -40.9655 H         1 UNK         0.0839 
     99 H99        25.0677  -30.8862  -39.2484 H         1 UNK         0.0839 
    100 H100       22.7924  -29.6188  -38.5469 H         1 UNK         0.2998 
    101 H101       20.5908  -30.0547  -40.5177 H         1 UNK         0.0822 
    102 H102       20.4949  -29.5262  -37.4966 H         1 UNK         0.0787 
    103 H103       20.1695  -28.3342  -38.7570 H         1 UNK         0.0787 
    104 H104       19.1063  -29.7138  -38.5597 H         1 UNK         0.0787 
    105 H105       22.9377  -31.8571  -39.3174 H         1 UNK         0.3055 
    106 H106       21.8711  -33.8533  -37.6939 H         1 UNK         0.1106 
    107 H107       24.2668  -33.9657  -39.6092 H         1 UNK         0.0828 
    108 H108       24.2966  -33.3879  -37.9418 H         1 UNK         0.0828 
    109 H109       23.9798  -35.0788  -38.2798 H         1 UNK         0.0828 
    110 H110       21.2787  -33.5296  -41.0434 H         1 UNK         0.2931 
    111 H111       20.8551  -36.2739  -41.7460 H         1 UNK         0.0412 
    112 H112       17.4335  -35.1030  -39.8523 H         1 UNK         0.3472 
    113 H113       18.8604  -34.0930  -39.8060 H         1 UNK         0.3472 
    114 H114       19.5517  -33.8734  -43.1134 H         1 UNK         0.0970 
    115 H115       19.8054  -35.4521  -43.7657 H         1 UNK         0.0970 
    116 H116       23.0127  -32.1319  -43.6179 H         1 UNK         0.0612 
    117 H117       22.0498  -32.4135  -42.2051 H         1 UNK         0.0612 
@<TRIPOS>BOND
     1    1    2 1    
     2    1   62 1    
     3    1   63 1    
     4    1   64 1    
     5    2    3 2    
     6    2    4 am   BACKBONE|DICT|INTERRES
     7    4    5 1    
     8    4   65 1    
     9    5    6 1    
    10    5   25 1    
    11    5   66 1    
    12    6    7 1    
    13    6   67 1    
    14    6   68 1    
    15    7    8 1    
    16    8    9 1    
    17    8   69 1    
    18    8   70 1    
    19    9   10 ar   
    20    9   14 ar   
    21   10   11 ar   
    22   10   71 1    
    23   11   12 ar   
    24   11   61 1    
    25   12   13 ar   
    26   12   72 1    
    27   13   14 ar   
    28   13   15 1    
    29   14   73 1    
    30   15   16 1    
    31   15   74 1    
    32   15   75 1    
    33   16   17 1    
    34   17   18 1    
    35   17   76 1    
    36   17   77 1    
    37   18   19 1    
    38   18   27 1    
    39   18   78 1    
    40   19   20 am   BACKBONE|DICT|INTERRES
    41   19   79 1    
    42   20   21 2    
    43   20   22 1    
    44   22   23 1    
    45   22   24 1    
    46   22   80 1    
    47   23   81 1    
    48   23   82 1    
    49   23   83 1    
    50   24   25 am   BACKBONE|DICT|INTERRES
    51   24   84 1    
    52   25   26 2    
    53   27   28 2    
    54   27   29 am   BACKBONE|DICT|INTERRES
    55   29   30 1    
    56   29   85 1    
    57   30   31 1    
    58   30   32 1    
    59   30   86 1    
    60   31   87 1    
    61   31   88 1    
    62   31   89 1    
    63   32   33 2    
    64   32   34 am   BACKBONE|DICT|INTERRES
    65   34   35 1    
    66   34   90 1    
    67   35   36 1    
    68   35   37 1    
    69   35   91 1    
    70   36   92 1    
    71   36   93 1    
    72   36   94 1    
    73   37   38 2    
    74   37   39 am   BACKBONE|DICT|INTERRES
    75   39   40 1    
    76   39   95 1    
    77   40   41 1    
    78   40   42 1    
    79   40   96 1    
    80   41   97 1    
    81   41   98 1    
    82   41   99 1    
    83   42   43 2    
    84   42   44 am   BACKBONE|DICT|INTERRES
    85   44   45 1    
    86   44  100 1    
    87   45   46 1    
    88   45   47 1    
    89   45  101 1    
    90   46  102 1    
    91   46  103 1    
    92   46  104 1    
    93   47   48 2    
    94   47   49 am   BACKBONE|DICT|INTERRES
    95   49   50 1    
    96   49  105 1    
    97   50   51 1    
    98   50   52 1    
    99   50  106 1    
   100   51  107 1    
   101   51  108 1    
   102   51  109 1    
   103   52   53 2    
   104   52   54 am   BACKBONE|DICT|INTERRES
   105   54   55 1    
   106   54  110 1    
   107   55   56 1    
   108   55   59 1    
   109   55  111 1    
   110   56   57 am   BACKBONE|DICT|INTERRES
   111   56   58 2    
   112   57  112 1    
   113   57  113 1    
   114   59   60 1    
   115   59  114 1    
   116   59  115 1    
   117   60   61 1    
   118   61  116 1    
   119   61  117 1    
@<TRIPOS>SUBSTRUCTURE
     1 UNK         1 GROUP             0       ****    0 ROOT    
