@<TRIPOS>MOLECULE
3R8
117   119    1
SMALL
USER_CHARGES


@<TRIPOS>ATOM
      1 CA         14.0280  -25.5779  -42.6398 C.3       0 UNK        -0.2013 
      2 C          14.7306  -25.1869  -43.9307 C.2       0 UNK         0.4866 
      3 O          14.8885  -23.9976  -44.2104 O.2       0 UNK        -0.5176 
      4 N          15.1589  -26.1785  -44.7211 N.am      1 UNK        -0.4884 
      5 CA         15.9070  -26.0433  -45.9775 C.3       1 UNK         0.0853 
      6 C6         15.7727  -27.3064  -46.8826 C.3       10 UNK        -0.0849 
      7 S7         15.6591  -28.9213  -46.0213 S.3       10 UNK        -0.2776 
      8 C8         17.3885  -29.5179  -46.0085 C.3       10 UNK         0.0316 
      9 C9         18.0603  -29.5682  -44.6324 C.ar      10 UNK        -0.0863 
     10 C10        19.2998  -30.2081  -44.5236 C.ar      10 UNK        -0.1009 
     11 C11        19.9684  -30.2819  -43.2960 C.ar      10 UNK        -0.0712 
     12 C12        19.3862  -29.7105  -42.1635 C.ar      10 UNK        -0.0894 
     13 C13        18.1732  -29.0277  -42.2624 C.ar      10 UNK        -0.0745 
     14 C14        17.5071  -28.9756  -43.4890 C.ar      10 UNK        -0.0972 
     15 C15        17.6263  -28.2669  -41.0666 C.3       10 UNK         0.0209 
     16 S16        17.8727  -26.4727  -41.2750 S.3       10 UNK        -0.2568 
     17 C17        19.6983  -26.3182  -41.2757 C.3       10 UNK        -0.0983 
     18 CA         20.3533  -26.4075  -42.6884 C.3       3 UNK         0.0876 
     19 N          19.6989  -25.5779  -43.7040 N.am      3 UNK        -0.4424 
     20 C          19.5987  -24.2454  -43.7318 C.2       2 UNK         0.4918 
     21 O          20.1226  -23.4961  -42.9075 O.2       2 UNK        -0.4875 
     22 CA         18.7638  -23.6378  -44.8743 C.3       2 UNK         0.0481 
     23 CB         19.6327  -23.4069  -46.1259 C.3       2 UNK        -0.1831 
     24 N          17.5296  -24.3723  -45.2002 N.am      2 UNK        -0.4498 
     25 C          17.3676  -25.5891  -45.7424 C.2       1 UNK         0.5027 
     26 O          18.3079  -26.3312  -46.0297 O.2       1 UNK        -0.4969 
     27 C          21.8879  -26.2244  -42.6539 C.2       3 UNK         0.5005 
     28 O          22.5086  -26.4218  -41.6079 O.2       3 UNK        -0.5279 
     29 N          22.4803  -25.8638  -43.8035 N.am      4 UNK        -0.4463 
     30 CA         23.8886  -25.4821  -43.9616 C.3       4 UNK         0.0283 
     31 CB         24.1263  -25.0148  -45.4066 C.3       4 UNK        -0.1875 
     32 C          24.9111  -26.5655  -43.5735 C.2       4 UNK         0.4949 
     33 O          25.9928  -26.2205  -43.0976 O.2       4 UNK        -0.5039 
     34 N          24.5586  -27.8447  -43.7669 N.am      5 UNK        -0.4663 
     35 CA         25.3997  -28.9902  -43.3954 C.3       5 UNK         0.0242 
     36 CB         25.1365  -30.1602  -44.3583 C.3       5 UNK        -0.1982 
     37 C          25.2421  -29.4163  -41.9210 C.2       5 UNK         0.5017 
     38 O          25.9514  -30.3277  -41.4913 O.2       5 UNK        -0.5012 
     39 N          24.3447  -28.7532  -41.1719 N.am      6 UNK        -0.4439 
     40 CA         24.1082  -28.8921  -39.7316 C.3       6 UNK         0.0297 
     41 CB         25.2549  -28.2157  -38.9460 C.3       6 UNK        -0.2006 
     42 C          23.8233  -30.3464  -39.3089 C.2       6 UNK         0.4892 
     43 O          22.8475  -30.9289  -39.7838 O.2       6 UNK        -0.5089 
     44 N          24.6761  -30.9126  -38.4432 N.am      7 UNK        -0.4243 
     45 CA         24.5641  -32.2506  -37.8495 C.3       7 UNK         0.0196 
     46 CB         25.7162  -32.4437  -36.8493 C.3       7 UNK        -0.2007 
     47 C          24.5159  -33.4255  -38.8465 C.2       7 UNK         0.5020 
     48 O          24.1455  -34.5288  -38.4445 O.2       7 UNK        -0.5147 
     49 N          24.8677  -33.1864  -40.1176 N.am      8 UNK        -0.4734 
     50 CA         24.7417  -34.1544  -41.2099 C.3       8 UNK         0.0238 
     51 CB         25.4569  -33.6028  -42.4525 C.3       8 UNK        -0.1912 
     52 C          23.2838  -34.5133  -41.5591 C.2       8 UNK         0.5038 
     53 O          23.0573  -35.5977  -42.0986 O.2       8 UNK        -0.5046 
     54 N          22.3336  -33.6150  -41.2649 N.am      9 UNK        -0.4200 
     55 CA         20.9069  -33.7795  -41.5897 C.3       9 UNK         0.0839 
     56 C          19.9195  -33.0188  -40.6617 C.2       9 UNK         0.5513 
     57 N          20.3550  -32.1376  -39.7712 N.am      9 UNK        -0.7519 
     58 O          18.7185  -33.2691  -40.7209 O.2       9 UNK        -0.4960 
     59 C59        20.5759  -33.6226  -43.1097 C.3       10 UNK        -0.0876 
     60 S60        21.5927  -32.4447  -44.0741 S.3       10 UNK        -0.2414 
     61 C61        21.3685  -30.8684  -43.1920 C.3       10 UNK         0.0169 
     62 H62        13.9293  -26.6587  -42.5404 H         1 UNK         0.0903 
     63 H63        14.5914  -25.2099  -41.7826 H         1 UNK         0.0903 
     64 H64        13.0304  -25.1409  -42.6071 H         1 UNK         0.0903 
     65 H65        14.9885  -27.1368  -44.4489 H         1 UNK         0.3096 
     66 H66        15.4496  -25.2226  -46.5358 H         1 UNK         0.1121 
     67 H67        14.8427  -27.2142  -47.4458 H         1 UNK         0.0849 
     68 H68        16.5471  -27.3430  -47.6512 H         1 UNK         0.0849 
     69 H69        17.9999  -28.9115  -46.6772 H         1 UNK         0.0865 
     70 H70        17.3899  -30.5240  -46.4303 H         1 UNK         0.0865 
     71 H71        19.7577  -30.6350  -45.4056 H         1 UNK         0.1346 
     72 H72        19.9134  -29.7318  -41.2193 H         1 UNK         0.1412 
     73 H73        16.5759  -28.4334  -43.5424 H         1 UNK         0.1426 
     74 H74        18.0984  -28.5964  -40.1397 H         1 UNK         0.0716 
     75 H75        16.5599  -28.4711  -40.9609 H         1 UNK         0.0716 
     76 H76        20.1114  -27.0823  -40.6149 H         1 UNK         0.0695 
     77 H77        19.9427  -25.3607  -40.8128 H         1 UNK         0.0695 
     78 H78        20.2229  -27.4203  -43.0568 H         1 UNK         0.0983 
     79 H79        19.2347  -26.0822  -44.4563 H         1 UNK         0.3095 
     80 H80        18.4304  -22.6591  -44.5258 H         1 UNK         0.0454 
     81 H81        19.0707  -22.8994  -46.9098 H         1 UNK         0.0851 
     82 H82        20.0157  -24.3401  -46.5393 H         1 UNK         0.0851 
     83 H83        20.4946  -22.7813  -45.8901 H         1 UNK         0.0851 
     84 H84        16.6700  -23.9088  -44.9136 H         1 UNK         0.2976 
     85 H85        21.8890  -25.7438  -44.6133 H         1 UNK         0.3116 
     86 H86        24.0619  -24.6304  -43.3003 H         1 UNK         0.0646 
     87 H87        25.1601  -24.6962  -45.5490 H         1 UNK         0.0847 
     88 H88        23.4918  -24.1654  -45.6606 H         1 UNK         0.0847 
     89 H89        23.9297  -25.8102  -46.1266 H         1 UNK         0.0847 
     90 H90        23.6547  -28.0428  -44.1709 H         1 UNK         0.3040 
     91 H91        26.4473  -28.7057  -43.5194 H         1 UNK         0.1015 
     92 H92        25.2138  -29.8453  -45.3991 H         1 UNK         0.0786 
     93 H93        24.1541  -30.6040  -44.2127 H         1 UNK         0.0786 
     94 H94        25.8725  -30.9513  -44.2111 H         1 UNK         0.0786 
     95 H95        23.8026  -28.0187  -41.6156 H         1 UNK         0.3172 
     96 H96        23.1936  -28.3361  -39.5201 H         1 UNK         0.0595 
     97 H97        26.2195  -28.6900  -39.1312 H         1 UNK         0.0839 
     98 H98        25.0683  -28.2352  -37.8713 H         1 UNK         0.0839 
     99 H99        25.3497  -27.1669  -39.2286 H         1 UNK         0.0839 
    100 H100       25.4670  -30.3609  -38.1443 H         1 UNK         0.2998 
    101 H101       23.6235  -32.2756  -37.2955 H         1 UNK         0.0822 
    102 H102       26.6883  -32.3975  -37.3420 H         1 UNK         0.0787 
    103 H103       25.6974  -31.6836  -36.0679 H         1 UNK         0.0787 
    104 H104       25.6482  -33.4135  -36.3539 H         1 UNK         0.0787 
    105 H105       25.1666  -32.2510  -40.3674 H         1 UNK         0.3055 
    106 H106       25.2408  -35.0761  -40.9028 H         1 UNK         0.1106 
    107 H107       25.4449  -34.3297  -43.2658 H         1 UNK         0.0828 
    108 H108       24.9711  -32.6982  -42.8184 H         1 UNK         0.0828 
    109 H109       26.5000  -33.3647  -42.2435 H         1 UNK         0.0828 
    110 H110       22.5965  -32.7496  -40.8092 H         1 UNK         0.2931 
    111 H111       20.6792  -34.8187  -41.3422 H         1 UNK         0.0412 
    112 H112       21.3237  -31.8316  -39.7292 H         1 UNK         0.3472 
    113 H113       19.6784  -31.6981  -39.1687 H         1 UNK         0.3472 
    114 H114       20.7113  -34.5934  -43.5885 H         1 UNK         0.0970 
    115 H115       19.5237  -33.3800  -43.2715 H         1 UNK         0.0970 
    116 H116       21.6672  -30.9940  -42.1524 H         1 UNK         0.0612 
    117 H117       22.0539  -30.1343  -43.6126 H         1 UNK         0.0612 
@<TRIPOS>BOND
     1    1    2 1    
     2    1   62 1    
     3    1   63 1    
     4    1   64 1    
     5    2    3 2    
     6    2    4 am   BACKBONE|DICT|INTERRES
     7    4    5 1    
     8    4   65 1    
     9    5    6 1    
    10    5   25 1    
    11    5   66 1    
    12    6    7 1    
    13    6   67 1    
    14    6   68 1    
    15    7    8 1    
    16    8    9 1    
    17    8   69 1    
    18    8   70 1    
    19    9   10 ar   
    20    9   14 ar   
    21   10   11 ar   
    22   10   71 1    
    23   11   12 ar   
    24   11   61 1    
    25   12   13 ar   
    26   12   72 1    
    27   13   14 ar   
    28   13   15 1    
    29   14   73 1    
    30   15   16 1    
    31   15   74 1    
    32   15   75 1    
    33   16   17 1    
    34   17   18 1    
    35   17   76 1    
    36   17   77 1    
    37   18   19 1    
    38   18   27 1    
    39   18   78 1    
    40   19   20 am   BACKBONE|DICT|INTERRES
    41   19   79 1    
    42   20   21 2    
    43   20   22 1    
    44   22   23 1    
    45   22   24 1    
    46   22   80 1    
    47   23   81 1    
    48   23   82 1    
    49   23   83 1    
    50   24   25 am   BACKBONE|DICT|INTERRES
    51   24   84 1    
    52   25   26 2    
    53   27   28 2    
    54   27   29 am   BACKBONE|DICT|INTERRES
    55   29   30 1    
    56   29   85 1    
    57   30   31 1    
    58   30   32 1    
    59   30   86 1    
    60   31   87 1    
    61   31   88 1    
    62   31   89 1    
    63   32   33 2    
    64   32   34 am   BACKBONE|DICT|INTERRES
    65   34   35 1    
    66   34   90 1    
    67   35   36 1    
    68   35   37 1    
    69   35   91 1    
    70   36   92 1    
    71   36   93 1    
    72   36   94 1    
    73   37   38 2    
    74   37   39 am   BACKBONE|DICT|INTERRES
    75   39   40 1    
    76   39   95 1    
    77   40   41 1    
    78   40   42 1    
    79   40   96 1    
    80   41   97 1    
    81   41   98 1    
    82   41   99 1    
    83   42   43 2    
    84   42   44 am   BACKBONE|DICT|INTERRES
    85   44   45 1    
    86   44  100 1    
    87   45   46 1    
    88   45   47 1    
    89   45  101 1    
    90   46  102 1    
    91   46  103 1    
    92   46  104 1    
    93   47   48 2    
    94   47   49 am   BACKBONE|DICT|INTERRES
    95   49   50 1    
    96   49  105 1    
    97   50   51 1    
    98   50   52 1    
    99   50  106 1    
   100   51  107 1    
   101   51  108 1    
   102   51  109 1    
   103   52   53 2    
   104   52   54 am   BACKBONE|DICT|INTERRES
   105   54   55 1    
   106   54  110 1    
   107   55   56 1    
   108   55   59 1    
   109   55  111 1    
   110   56   57 am   BACKBONE|DICT|INTERRES
   111   56   58 2    
   112   57  112 1    
   113   57  113 1    
   114   59   60 1    
   115   59  114 1    
   116   59  115 1    
   117   60   61 1    
   118   61  116 1    
   119   61  117 1    
@<TRIPOS>SUBSTRUCTURE
     1 UNK         1 GROUP             0       ****    0 ROOT    
