@<TRIPOS>MOLECULE
3R8
117   119    1
SMALL
USER_CHARGES


@<TRIPOS>ATOM
      1 CA         16.7344  -24.7765  -41.8775 C.3       0 UNK        -0.2013 
      2 C          17.5992  -25.6495  -42.7722 C.2       0 UNK         0.4866 
      3 O          18.0544  -26.7069  -42.3399 O.2       0 UNK        -0.5176 
      4 N          17.8313  -25.2106  -44.0162 N.am      1 UNK        -0.4884 
      5 CA         18.5676  -25.9302  -45.0660 C.3       1 UNK         0.0853 
      6 C6         17.8391  -27.2224  -45.5438 C.3       10 UNK        -0.0849 
      7 S7         16.0504  -27.1015  -45.8997 S.3       10 UNK        -0.2776 
      8 C8         15.2726  -28.1532  -44.6083 C.3       10 UNK         0.0316 
      9 C9         16.0614  -29.4083  -44.2235 C.ar      10 UNK        -0.0863 
     10 C10        16.6163  -30.2487  -45.1998 C.ar      10 UNK        -0.1009 
     11 C11        17.4312  -31.3293  -44.8396 C.ar      10 UNK        -0.0712 
     12 C12        17.6160  -31.6058  -43.4824 C.ar      10 UNK        -0.0894 
     13 C13        17.0744  -30.7823  -42.4971 C.ar      10 UNK        -0.0745 
     14 C14        16.2983  -29.6832  -42.8715 C.ar      10 UNK        -0.0972 
     15 C15        17.3590  -31.0890  -41.0348 C.3       10 UNK         0.0209 
     16 S16        19.1391  -30.9633  -40.6561 S.3       10 UNK        -0.2568 
     17 C17        19.3232  -29.1771  -40.3615 C.3       10 UNK        -0.0983 
     18 CA         20.6629  -28.6249  -40.9084 C.3       3 UNK         0.0876 
     19 N          20.6944  -28.4976  -42.3731 N.am      3 UNK        -0.4424 
     20 C          21.8343  -28.3337  -43.0653 C.2       2 UNK         0.4918 
     21 O          22.9434  -28.3741  -42.5439 O.2       2 UNK        -0.4875 
     22 CA         21.7666  -28.0346  -44.5725 C.3       2 UNK         0.0481 
     23 CB         22.0193  -29.3107  -45.3848 C.3       2 UNK        -0.1831 
     24 N          20.5109  -27.4357  -45.0052 N.am      2 UNK        -0.4498 
     25 C          20.0276  -26.2407  -44.6351 C.2       1 UNK         0.5027 
     26 O          20.6640  -25.4397  -43.9445 O.2       1 UNK        -0.4969 
     27 C          21.0387  -27.3019  -40.2077 C.2       3 UNK         0.5005 
     28 O          21.6314  -27.3491  -39.1296 O.2       3 UNK        -0.5279 
     29 N          20.7132  -26.1555  -40.8233 N.am      4 UNK        -0.4463 
     30 CA         21.1408  -24.8345  -40.3599 C.3       4 UNK         0.0283 
     31 CB         20.1742  -23.7531  -40.8681 C.3       4 UNK        -0.1875 
     32 C          22.5833  -24.5186  -40.7843 C.2       4 UNK         0.4949 
     33 O          23.3482  -24.0006  -39.9706 O.2       4 UNK        -0.5039 
     34 N          22.9265  -24.8139  -42.0472 N.am      5 UNK        -0.4663 
     35 CA         24.2387  -24.5046  -42.6279 C.3       5 UNK         0.0242 
     36 CB         24.1495  -24.5705  -44.1604 C.3       5 UNK        -0.1982 
     37 C          25.3797  -25.4024  -42.1148 C.2       5 UNK         0.5017 
     38 O          26.5117  -24.9286  -42.0073 O.2       5 UNK        -0.5012 
     39 N          25.0724  -26.6702  -41.8235 N.am      6 UNK        -0.4439 
     40 CA         25.9975  -27.6904  -41.3424 C.3       6 UNK         0.0297 
     41 CB         26.5421  -28.4996  -42.5388 C.3       6 UNK        -0.2006 
     42 C          25.2618  -28.5283  -40.2859 C.2       6 UNK         0.4892 
     43 O          25.0335  -28.0223  -39.1865 O.2       6 UNK        -0.5089 
     44 N          24.8955  -29.7709  -40.6236 N.am      7 UNK        -0.4243 
     45 CA         24.1158  -30.6865  -39.7972 C.3       7 UNK         0.0196 
     46 CB         24.9917  -31.2605  -38.6647 C.3       7 UNK        -0.2007 
     47 C          23.5680  -31.8225  -40.6722 C.2       7 UNK         0.5020 
     48 O          24.1078  -32.0812  -41.7513 O.2       7 UNK        -0.5147 
     49 N          22.5431  -32.5090  -40.1468 N.am      8 UNK        -0.4734 
     50 CA         22.0462  -33.8355  -40.5453 C.3       8 UNK         0.0238 
     51 CB         23.0051  -34.9168  -40.0019 C.3       8 UNK        -0.1912 
     52 C          21.7499  -34.0222  -42.0480 C.2       8 UNK         0.5038 
     53 O          22.0902  -35.0647  -42.6111 O.2       8 UNK        -0.5046 
     54 N          21.1096  -33.0215  -42.6678 N.am      9 UNK        -0.4200 
     55 CA         20.7274  -33.0094  -44.0936 C.3       9 UNK         0.0839 
     56 C          21.9273  -32.9087  -45.0855 C.2       9 UNK         0.5513 
     57 N          23.1409  -32.6083  -44.6352 N.am      9 UNK        -0.7519 
     58 O          21.7511  -33.0682  -46.2899 O.2       9 UNK        -0.4960 
     59 C59        19.7408  -34.1768  -44.4413 C.3       10 UNK        -0.0876 
     60 S60        18.3472  -33.9097  -45.6125 S.3       10 UNK        -0.2414 
     61 C61        18.1668  -32.1173  -45.9269 C.3       10 UNK         0.0169 
     62 H62        17.0044  -24.9180  -40.8314 H         1 UNK         0.0903 
     63 H63        16.8499  -23.7198  -42.1179 H         1 UNK         0.0903 
     64 H64        15.6854  -25.0465  -41.9947 H         1 UNK         0.0903 
     65 H65        17.4530  -24.3171  -44.2980 H         1 UNK         0.3096 
     66 H66        18.6396  -25.2481  -45.9145 H         1 UNK         0.1121 
     67 H67        17.9995  -27.9949  -44.7961 H         1 UNK         0.0849 
     68 H68        18.2971  -27.5922  -46.4631 H         1 UNK         0.0849 
     69 H69        15.1130  -27.5276  -43.7287 H         1 UNK         0.0865 
     70 H70        14.2811  -28.4527  -44.9499 H         1 UNK         0.0865 
     71 H71        16.4649  -30.0176  -46.2454 H         1 UNK         0.1346 
     72 H72        18.2159  -32.4431  -43.1676 H         1 UNK         0.1412 
     73 H73        15.8982  -29.0286  -42.1091 H         1 UNK         0.1426 
     74 H74        17.0264  -32.1050  -40.8181 H         1 UNK         0.0716 
     75 H75        16.7919  -30.4330  -40.3724 H         1 UNK         0.0716 
     76 H76        19.2542  -29.0363  -39.2808 H         1 UNK         0.0695 
     77 H77        18.4763  -28.6403  -40.7873 H         1 UNK         0.0695 
     78 H78        21.4438  -29.3348  -40.6307 H         1 UNK         0.0983 
     79 H79        19.8000  -28.4206  -42.8375 H         1 UNK         0.3095 
     80 H80        22.5649  -27.3292  -44.8021 H         1 UNK         0.0454 
     81 H81        22.1019  -29.0954  -46.4501 H         1 UNK         0.0851 
     82 H82        21.2180  -30.0366  -45.2503 H         1 UNK         0.0851 
     83 H83        22.9524  -29.7875  -45.0813 H         1 UNK         0.0851 
     84 H84        19.9249  -28.0215  -45.5813 H         1 UNK         0.2976 
     85 H85        20.1913  -26.2002  -41.6909 H         1 UNK         0.3116 
     86 H86        21.1061  -24.8156  -39.2682 H         1 UNK         0.0646 
     87 H87        20.0993  -23.7462  -41.9557 H         1 UNK         0.0847 
     88 H88        20.5044  -22.7602  -40.5597 H         1 UNK         0.0847 
     89 H89        19.1751  -23.8972  -40.4599 H         1 UNK         0.0847 
     90 H90        22.2158  -25.1808  -42.6728 H         1 UNK         0.3040 
     91 H91        24.4894  -23.4771  -42.3536 H         1 UNK         0.1015 
     92 H92        23.9655  -25.5848  -44.5110 H         1 UNK         0.0786 
     93 H93        25.0818  -24.2358  -44.6174 H         1 UNK         0.0786 
     94 H94        23.3530  -23.9316  -44.5427 H         1 UNK         0.0786 
     95 H95        24.1162  -26.9924  -41.9491 H         1 UNK         0.3172 
     96 H96        26.8404  -27.2185  -40.8334 H         1 UNK         0.0595 
     97 H97        25.7415  -28.9384  -43.1361 H         1 UNK         0.0839 
     98 H98        27.1957  -29.3070  -42.2057 H         1 UNK         0.0839 
     99 H99        27.1318  -27.8649  -43.2004 H         1 UNK         0.0839 
    100 H100       25.0704  -30.1094  -41.5621 H         1 UNK         0.2998 
    101 H101       23.2757  -30.1388  -39.3658 H         1 UNK         0.0822 
    102 H102       24.4320  -31.9669  -38.0503 H         1 UNK         0.0787 
    103 H103       25.8600  -31.7892  -39.0602 H         1 UNK         0.0787 
    104 H104       25.3530  -30.4770  -37.9987 H         1 UNK         0.0787 
    105 H105       22.1508  -32.1610  -39.2823 H         1 UNK         0.3055 
    106 H106       21.0866  -33.9669  -40.0420 H         1 UNK         0.1106 
    107 H107       22.6095  -35.9191  -40.1720 H         1 UNK         0.0828 
    108 H108       23.9821  -34.8646  -40.4841 H         1 UNK         0.0828 
    109 H109       23.1562  -34.8116  -38.9276 H         1 UNK         0.0828 
    110 H110       20.8782  -32.1949  -42.1341 H         1 UNK         0.2931 
    111 H111       20.2149  -32.0581  -44.1989 H         1 UNK         0.0412 
    112 H112       23.3171  -32.4812  -43.6449 H         1 UNK         0.3472 
    113 H113       23.9033  -32.5419  -45.2901 H         1 UNK         0.3472 
    114 H114       19.2615  -34.5280  -43.5264 H         1 UNK         0.0970 
    115 H115       20.3019  -35.0454  -44.7913 H         1 UNK         0.0970 
    116 H116       17.6132  -32.0231  -46.8622 H         1 UNK         0.0612 
    117 H117       19.1398  -31.6663  -46.1202 H         1 UNK         0.0612 
@<TRIPOS>BOND
     1    1    2 1    
     2    1   62 1    
     3    1   63 1    
     4    1   64 1    
     5    2    3 2    
     6    2    4 am   BACKBONE|DICT|INTERRES
     7    4    5 1    
     8    4   65 1    
     9    5    6 1    
    10    5   25 1    
    11    5   66 1    
    12    6    7 1    
    13    6   67 1    
    14    6   68 1    
    15    7    8 1    
    16    8    9 1    
    17    8   69 1    
    18    8   70 1    
    19    9   10 ar   
    20    9   14 ar   
    21   10   11 ar   
    22   10   71 1    
    23   11   12 ar   
    24   11   61 1    
    25   12   13 ar   
    26   12   72 1    
    27   13   14 ar   
    28   13   15 1    
    29   14   73 1    
    30   15   16 1    
    31   15   74 1    
    32   15   75 1    
    33   16   17 1    
    34   17   18 1    
    35   17   76 1    
    36   17   77 1    
    37   18   19 1    
    38   18   27 1    
    39   18   78 1    
    40   19   20 am   BACKBONE|DICT|INTERRES
    41   19   79 1    
    42   20   21 2    
    43   20   22 1    
    44   22   23 1    
    45   22   24 1    
    46   22   80 1    
    47   23   81 1    
    48   23   82 1    
    49   23   83 1    
    50   24   25 am   BACKBONE|DICT|INTERRES
    51   24   84 1    
    52   25   26 2    
    53   27   28 2    
    54   27   29 am   BACKBONE|DICT|INTERRES
    55   29   30 1    
    56   29   85 1    
    57   30   31 1    
    58   30   32 1    
    59   30   86 1    
    60   31   87 1    
    61   31   88 1    
    62   31   89 1    
    63   32   33 2    
    64   32   34 am   BACKBONE|DICT|INTERRES
    65   34   35 1    
    66   34   90 1    
    67   35   36 1    
    68   35   37 1    
    69   35   91 1    
    70   36   92 1    
    71   36   93 1    
    72   36   94 1    
    73   37   38 2    
    74   37   39 am   BACKBONE|DICT|INTERRES
    75   39   40 1    
    76   39   95 1    
    77   40   41 1    
    78   40   42 1    
    79   40   96 1    
    80   41   97 1    
    81   41   98 1    
    82   41   99 1    
    83   42   43 2    
    84   42   44 am   BACKBONE|DICT|INTERRES
    85   44   45 1    
    86   44  100 1    
    87   45   46 1    
    88   45   47 1    
    89   45  101 1    
    90   46  102 1    
    91   46  103 1    
    92   46  104 1    
    93   47   48 2    
    94   47   49 am   BACKBONE|DICT|INTERRES
    95   49   50 1    
    96   49  105 1    
    97   50   51 1    
    98   50   52 1    
    99   50  106 1    
   100   51  107 1    
   101   51  108 1    
   102   51  109 1    
   103   52   53 2    
   104   52   54 am   BACKBONE|DICT|INTERRES
   105   54   55 1    
   106   54  110 1    
   107   55   56 1    
   108   55   59 1    
   109   55  111 1    
   110   56   57 am   BACKBONE|DICT|INTERRES
   111   56   58 2    
   112   57  112 1    
   113   57  113 1    
   114   59   60 1    
   115   59  114 1    
   116   59  115 1    
   117   60   61 1    
   118   61  116 1    
   119   61  117 1    
@<TRIPOS>SUBSTRUCTURE
     1 UNK         1 GROUP             0       ****    0 ROOT    
