@<TRIPOS>MOLECULE
3R8
117   119    1
SMALL
USER_CHARGES


@<TRIPOS>ATOM
      1 CA         16.7100  -21.5333  -46.5543 C.3       0 UNK        -0.2013 
      2 C          17.6568  -22.4024  -45.7406 C.2       0 UNK         0.4866 
      3 O          18.2651  -21.9180  -44.7861 O.2       0 UNK        -0.5176 
      4 N          17.7881  -23.6825  -46.1120 N.am      1 UNK        -0.4884 
      5 CA         18.6265  -24.6779  -45.4309 C.3       1 UNK         0.0853 
      6 C6         18.8856  -25.9269  -46.3160 C.3       10 UNK        -0.0849 
      7 S7         17.3716  -26.6487  -47.0457 S.3       10 UNK        -0.2776 
      8 C8         18.0207  -28.1692  -47.8122 C.3       10 UNK         0.0316 
      9 C9         18.1786  -29.2805  -46.7862 C.ar      10 UNK        -0.0863 
     10 C10        19.4396  -29.6139  -46.2825 C.ar      10 UNK        -0.1009 
     11 C11        19.5710  -30.6025  -45.3022 C.ar      10 UNK        -0.0712 
     12 C12        18.4327  -31.2741  -44.8432 C.ar      10 UNK        -0.0894 
     13 C13        17.1649  -30.9256  -45.3181 C.ar      10 UNK        -0.0745 
     14 C14        17.0472  -29.9481  -46.3095 C.ar      10 UNK        -0.0972 
     15 C15        15.9157  -31.5207  -44.6862 C.3       10 UNK         0.0209 
     16 S16        15.0621  -30.2934  -43.6337 S.3       10 UNK        -0.2568 
     17 C17        16.2418  -30.0639  -42.2558 C.3       10 UNK        -0.0983 
     18 CA         17.3104  -28.9706  -42.5352 C.3       3 UNK         0.0876 
     19 N          16.7657  -27.6532  -42.8671 N.am      3 UNK        -0.4424 
     20 C          16.2629  -26.7380  -42.0312 C.2       2 UNK         0.4918 
     21 O          16.0338  -26.9471  -40.8391 O.2       2 UNK        -0.4875 
     22 CA         15.9984  -25.3386  -42.6344 C.3       2 UNK         0.0481 
     23 CB         16.2247  -24.2164  -41.6003 C.3       2 UNK        -0.1831 
     24 N          16.7539  -25.0460  -43.8670 N.am      2 UNK        -0.4498 
     25 C          18.0883  -25.0699  -44.0387 C.2       1 UNK         0.5027 
     26 O          18.8866  -25.4022  -43.1622 O.2       1 UNK        -0.4969 
     27 C          18.4453  -28.9222  -41.4876 C.2       3 UNK         0.5005 
     28 O          18.4968  -29.7621  -40.5857 O.2       3 UNK        -0.5279 
     29 N          19.3480  -27.9461  -41.6434 N.am      4 UNK        -0.4463 
     30 CA         20.5905  -27.8077  -40.8906 C.3       4 UNK         0.0283 
     31 CB         20.5516  -26.4780  -40.1187 C.3       4 UNK        -0.1875 
     32 C          21.7790  -27.8343  -41.8632 C.2       4 UNK         0.4949 
     33 O          21.6089  -27.5982  -43.0619 O.2       4 UNK        -0.5039 
     34 N          22.9689  -28.0945  -41.3170 N.am      5 UNK        -0.4663 
     35 CA         24.2595  -28.0753  -42.0017 C.3       5 UNK         0.0242 
     36 CB         24.4571  -29.3732  -42.8099 C.3       5 UNK        -0.1982 
     37 C          25.3606  -27.8882  -40.9473 C.2       5 UNK         0.5017 
     38 O          25.0572  -27.8244  -39.7519 O.2       5 UNK        -0.5012 
     39 N          26.6200  -27.8121  -41.4016 N.am      6 UNK        -0.4439 
     40 CA         27.8105  -27.6785  -40.5510 C.3       6 UNK         0.0297 
     41 CB         29.0466  -27.4398  -41.4336 C.3       6 UNK        -0.2006 
     42 C          28.0425  -28.8791  -39.6128 C.2       6 UNK         0.4892 
     43 O          28.5531  -28.6907  -38.5079 O.2       6 UNK        -0.5089 
     44 N          27.6449  -30.0762  -40.0576 N.am      7 UNK        -0.4243 
     45 CA         27.6162  -31.3087  -39.2802 C.3       7 UNK         0.0196 
     46 CB         29.0045  -31.9742  -39.2683 C.3       7 UNK        -0.2007 
     47 C          26.5648  -32.2244  -39.9126 C.2       7 UNK         0.5020 
     48 O          26.5346  -32.3378  -41.1409 O.2       7 UNK        -0.5147 
     49 N          25.7385  -32.8574  -39.0672 N.am      8 UNK        -0.4734 
     50 CA         24.6234  -33.7504  -39.4211 C.3       8 UNK         0.0238 
     51 CB         25.1693  -35.0719  -40.0108 C.3       8 UNK        -0.1912 
     52 C          23.5661  -33.0672  -40.3193 C.2       8 UNK         0.5038 
     53 O          23.4471  -31.8395  -40.2895 O.2       8 UNK        -0.5046 
     54 N          22.8124  -33.8721  -41.0829 N.am      9 UNK        -0.4200 
     55 CA         21.8195  -33.4866  -42.1021 C.3       9 UNK         0.0839 
     56 C          20.5524  -32.7628  -41.5562 C.2       9 UNK         0.5513 
     57 N          20.6944  -31.7193  -40.7543 N.am      9 UNK        -0.7519 
     58 O          19.4324  -33.1565  -41.8694 O.2       9 UNK        -0.4960 
     59 C59        22.4839  -32.7231  -43.2823 C.3       10 UNK        -0.0876 
     60 S60        21.4351  -32.6050  -44.7716 S.3       10 UNK        -0.2414 
     61 C61        20.9212  -30.8625  -44.6529 C.3       10 UNK         0.0169 
     62 H62        16.2448  -22.0881  -47.3689 H         1 UNK         0.0903 
     63 H63        15.9188  -21.1411  -45.9159 H         1 UNK         0.0903 
     64 H64        17.2506  -20.6903  -46.9840 H         1 UNK         0.0903 
     65 H65        17.2702  -24.0321  -46.9074 H         1 UNK         0.3096 
     66 H66        19.5962  -24.2086  -45.2478 H         1 UNK         0.1121 
     67 H67        19.5474  -25.6497  -47.1380 H         1 UNK         0.0849 
     68 H68        19.4230  -26.6946  -45.7549 H         1 UNK         0.0849 
     69 H69        17.3291  -28.4950  -48.5906 H         1 UNK         0.0865 
     70 H70        18.9662  -27.9593  -48.3148 H         1 UNK         0.0865 
     71 H71        20.3137  -29.0772  -46.6257 H         1 UNK         0.1346 
     72 H72        18.5286  -32.0110  -44.0576 H         1 UNK         0.1412 
     73 H73        16.0665  -29.6646  -46.6677 H         1 UNK         0.1426 
     74 H74        16.1568  -32.4058  -44.0952 H         1 UNK         0.0716 
     75 H75        15.2350  -31.8501  -45.4724 H         1 UNK         0.0716 
     76 H76        15.6757  -29.8116  -41.3578 H         1 UNK         0.0695 
     77 H77        16.7173  -31.0260  -42.0551 H         1 UNK         0.0695 
     78 H78        17.8383  -29.2425  -43.4406 H         1 UNK         0.0983 
     79 H79        16.8776  -27.3763  -43.8315 H         1 UNK         0.3095 
     80 H80        14.9443  -25.3250  -42.9144 H         1 UNK         0.0454 
     81 H81        17.2498  -24.2137  -41.2277 H         1 UNK         0.0851 
     82 H82        16.0216  -23.2348  -42.0282 H         1 UNK         0.0851 
     83 H83        15.5660  -24.3344  -40.7391 H         1 UNK         0.0851 
     84 H84        16.1967  -24.7824  -44.6682 H         1 UNK         0.2976 
     85 H85        19.2408  -27.2808  -42.4038 H         1 UNK         0.3116 
     86 H86        20.7094  -28.6303  -40.1823 H         1 UNK         0.0646 
     87 H87        21.4555  -26.3391  -39.5244 H         1 UNK         0.0847 
     88 H88        19.7047  -26.4449  -39.4332 H         1 UNK         0.0847 
     89 H89        20.4680  -25.6241  -40.7926 H         1 UNK         0.0847 
     90 H90        23.0491  -28.2246  -40.3148 H         1 UNK         0.3040 
     91 H91        24.2884  -27.2154  -42.6747 H         1 UNK         0.1015 
     92 H92        23.6438  -29.5282  -43.5183 H         1 UNK         0.0786 
     93 H93        24.5090  -30.2454  -42.1576 H         1 UNK         0.0786 
     94 H94        25.3793  -29.3467  -43.3905 H         1 UNK         0.0786 
     95 H95        26.7801  -27.8614  -42.3978 H         1 UNK         0.3172 
     96 H96        27.6679  -26.7970  -39.9222 H         1 UNK         0.0595 
     97 H97        28.9379  -26.5380  -42.0365 H         1 UNK         0.0839 
     98 H98        29.2310  -28.2769  -42.1081 H         1 UNK         0.0839 
     99 H99        29.9417  -27.3117  -40.8231 H         1 UNK         0.0839 
    100 H100       27.2193  -30.1497  -40.9728 H         1 UNK         0.2998 
    101 H101       27.3173  -31.0754  -38.2557 H         1 UNK         0.0822 
    102 H102       29.7505  -31.3314  -38.8007 H         1 UNK         0.0787 
    103 H103       28.9836  -32.9089  -38.7066 H         1 UNK         0.0787 
    104 H104       29.3473  -32.2058  -40.2776 H         1 UNK         0.0787 
    105 H105       25.8362  -32.6654  -38.0794 H         1 UNK         0.3055 
    106 H106       24.1131  -33.9865  -38.4859 H         1 UNK         0.1106 
    107 H107       25.5781  -34.9309  -41.0123 H         1 UNK         0.0828 
    108 H108       25.9628  -35.4829  -39.3864 H         1 UNK         0.0828 
    109 H109       24.3946  -35.8366  -40.0730 H         1 UNK         0.0828 
    110 H110       22.9573  -34.8670  -40.9935 H         1 UNK         0.2931 
    111 H111       21.4704  -34.4397  -42.5027 H         1 UNK         0.0412 
    112 H112       19.8793  -31.1994  -40.4479 H         1 UNK         0.3472 
    113 H113       21.6309  -31.4429  -40.4756 H         1 UNK         0.3472 
    114 H114       23.4006  -33.2350  -43.5789 H         1 UNK         0.0970 
    115 H115       22.7966  -31.7290  -42.9642 H         1 UNK         0.0970 
    116 H116       21.6983  -30.2366  -45.0941 H         1 UNK         0.0612 
    117 H117       20.8463  -30.5643  -43.6061 H         1 UNK         0.0612 
@<TRIPOS>BOND
     1    1    2 1    
     2    1   62 1    
     3    1   63 1    
     4    1   64 1    
     5    2    3 2    
     6    2    4 am   BACKBONE|DICT|INTERRES
     7    4    5 1    
     8    4   65 1    
     9    5    6 1    
    10    5   25 1    
    11    5   66 1    
    12    6    7 1    
    13    6   67 1    
    14    6   68 1    
    15    7    8 1    
    16    8    9 1    
    17    8   69 1    
    18    8   70 1    
    19    9   10 ar   
    20    9   14 ar   
    21   10   11 ar   
    22   10   71 1    
    23   11   12 ar   
    24   11   61 1    
    25   12   13 ar   
    26   12   72 1    
    27   13   14 ar   
    28   13   15 1    
    29   14   73 1    
    30   15   16 1    
    31   15   74 1    
    32   15   75 1    
    33   16   17 1    
    34   17   18 1    
    35   17   76 1    
    36   17   77 1    
    37   18   19 1    
    38   18   27 1    
    39   18   78 1    
    40   19   20 am   BACKBONE|DICT|INTERRES
    41   19   79 1    
    42   20   21 2    
    43   20   22 1    
    44   22   23 1    
    45   22   24 1    
    46   22   80 1    
    47   23   81 1    
    48   23   82 1    
    49   23   83 1    
    50   24   25 am   BACKBONE|DICT|INTERRES
    51   24   84 1    
    52   25   26 2    
    53   27   28 2    
    54   27   29 am   BACKBONE|DICT|INTERRES
    55   29   30 1    
    56   29   85 1    
    57   30   31 1    
    58   30   32 1    
    59   30   86 1    
    60   31   87 1    
    61   31   88 1    
    62   31   89 1    
    63   32   33 2    
    64   32   34 am   BACKBONE|DICT|INTERRES
    65   34   35 1    
    66   34   90 1    
    67   35   36 1    
    68   35   37 1    
    69   35   91 1    
    70   36   92 1    
    71   36   93 1    
    72   36   94 1    
    73   37   38 2    
    74   37   39 am   BACKBONE|DICT|INTERRES
    75   39   40 1    
    76   39   95 1    
    77   40   41 1    
    78   40   42 1    
    79   40   96 1    
    80   41   97 1    
    81   41   98 1    
    82   41   99 1    
    83   42   43 2    
    84   42   44 am   BACKBONE|DICT|INTERRES
    85   44   45 1    
    86   44  100 1    
    87   45   46 1    
    88   45   47 1    
    89   45  101 1    
    90   46  102 1    
    91   46  103 1    
    92   46  104 1    
    93   47   48 2    
    94   47   49 am   BACKBONE|DICT|INTERRES
    95   49   50 1    
    96   49  105 1    
    97   50   51 1    
    98   50   52 1    
    99   50  106 1    
   100   51  107 1    
   101   51  108 1    
   102   51  109 1    
   103   52   53 2    
   104   52   54 am   BACKBONE|DICT|INTERRES
   105   54   55 1    
   106   54  110 1    
   107   55   56 1    
   108   55   59 1    
   109   55  111 1    
   110   56   57 am   BACKBONE|DICT|INTERRES
   111   56   58 2    
   112   57  112 1    
   113   57  113 1    
   114   59   60 1    
   115   59  114 1    
   116   59  115 1    
   117   60   61 1    
   118   61  116 1    
   119   61  117 1    
@<TRIPOS>SUBSTRUCTURE
     1 UNK         1 GROUP             0       ****    0 ROOT    
