@<TRIPOS>MOLECULE
3R8
117   119    1
SMALL
USER_CHARGES


@<TRIPOS>ATOM
      1 CA         16.7010  -23.7532  -47.2566 C.3       0 UNK        -0.2013 
      2 C          18.0362  -24.4786  -47.1836 C.2       0 UNK         0.4866 
      3 O          19.0527  -23.9360  -47.6173 O.2       0 UNK        -0.5176 
      4 N          18.0422  -25.7019  -46.6378 N.am      1 UNK        -0.4884 
      5 CA         19.2353  -26.5511  -46.5042 C.3       1 UNK         0.0853 
      6 C6         18.8653  -28.0316  -46.2420 C.3       10 UNK        -0.0849 
      7 S7         17.8786  -28.7781  -47.5867 S.3       10 UNK        -0.2776 
      8 C8         16.3177  -29.2203  -46.7486 C.3       10 UNK         0.0316 
      9 C9         16.5404  -30.1345  -45.5501 C.ar      10 UNK        -0.0863 
     10 C10        17.0397  -31.4292  -45.7288 C.ar      10 UNK        -0.1009 
     11 C11        17.2924  -32.2491  -44.6249 C.ar      10 UNK        -0.0712 
     12 C12        17.0229  -31.7745  -43.3388 C.ar      10 UNK        -0.0894 
     13 C13        16.5319  -30.4817  -43.1472 C.ar      10 UNK        -0.0745 
     14 C14        16.2743  -29.6722  -44.2570 C.ar      10 UNK        -0.0972 
     15 C15        16.3288  -29.9478  -41.7366 C.3       10 UNK         0.0209 
     16 S16        17.4630  -28.5730  -41.3514 S.3       10 UNK        -0.2568 
     17 C17        19.0955  -29.2803  -41.7855 C.3       10 UNK        -0.0983 
     18 CA         20.2760  -28.3021  -41.5557 C.3       3 UNK         0.0876 
     19 N          20.0340  -27.0183  -42.2322 N.am      3 UNK        -0.4424 
     20 C          20.8527  -25.9609  -42.3144 C.2       2 UNK         0.4918 
     21 O          21.9177  -25.8688  -41.7036 O.2       2 UNK        -0.4875 
     22 CA         20.3789  -24.8086  -43.2242 C.3       2 UNK         0.0481 
     23 CB         21.5132  -23.8238  -43.5789 C.3       2 UNK        -0.1831 
     24 N          19.6915  -25.2872  -44.4335 N.am      2 UNK        -0.4498 
     25 C          20.2042  -26.0629  -45.4053 C.2       1 UNK         0.5027 
     26 O          21.3793  -26.4280  -45.4455 O.2       1 UNK        -0.4969 
     27 C          20.6472  -28.2136  -40.0587 C.2       3 UNK         0.5005 
     28 O          21.2355  -29.1569  -39.5276 O.2       3 UNK        -0.5279 
     29 N          20.3153  -27.0913  -39.4064 N.am      4 UNK        -0.4463 
     30 CA         20.6993  -26.7782  -38.0296 C.3       4 UNK         0.0283 
     31 CB         19.8545  -25.5933  -37.5336 C.3       4 UNK        -0.1875 
     32 C          22.2011  -26.4734  -37.8577 C.2       4 UNK         0.4949 
     33 O          22.6904  -26.5545  -36.7304 O.2       4 UNK        -0.5039 
     34 N          22.8977  -26.1132  -38.9459 N.am      5 UNK        -0.4663 
     35 CA         24.3143  -25.7388  -38.9362 C.3       5 UNK         0.0242 
     36 CB         24.4364  -24.2106  -39.0662 C.3       5 UNK        -0.1982 
     37 C          25.1215  -26.4406  -40.0378 C.2       5 UNK         0.5017 
     38 O          26.2447  -26.8695  -39.7702 O.2       5 UNK        -0.5012 
     39 N          24.5656  -26.5276  -41.2523 N.am      6 UNK        -0.4439 
     40 CA         25.2128  -27.1220  -42.4196 C.3       6 UNK         0.0297 
     41 CB         24.6969  -26.4231  -43.6880 C.3       6 UNK        -0.2006 
     42 C          24.9307  -28.6282  -42.4934 C.2       6 UNK         0.4892 
     43 O          23.7988  -29.0505  -42.2444 O.2       6 UNK        -0.5089 
     44 N          25.9590  -29.3904  -42.8932 N.am      7 UNK        -0.4243 
     45 CA         25.9566  -30.8432  -43.1043 C.3       7 UNK         0.0196 
     46 CB         25.1084  -31.1979  -44.3494 C.3       7 UNK        -0.2007 
     47 C          25.5662  -31.6283  -41.8330 C.2       7 UNK         0.5020 
     48 O          25.9311  -31.2214  -40.7281 O.2       7 UNK        -0.5147 
     49 N          24.8554  -32.7465  -42.0099 N.am      8 UNK        -0.4734 
     50 CA         24.3280  -33.5962  -40.9406 C.3       8 UNK         0.0238 
     51 CB         25.3468  -34.7029  -40.6020 C.3       8 UNK        -0.1912 
     52 C          22.9462  -34.1471  -41.3333 C.2       8 UNK         0.5038 
     53 O          22.6240  -35.2886  -40.9996 O.2       8 UNK        -0.5046 
     54 N          22.1662  -33.3371  -42.0644 N.am      9 UNK        -0.4200 
     55 CA         20.8229  -33.6870  -42.5561 C.3       9 UNK         0.0839 
     56 C          19.7432  -33.7671  -41.4374 C.2       9 UNK         0.5513 
     57 N          19.9020  -33.0659  -40.3208 N.am      9 UNK        -0.7519 
     58 O          18.7576  -34.4846  -41.5761 O.2       9 UNK        -0.4960 
     59 C59        20.3841  -32.7476  -43.7177 C.3       10 UNK        -0.0876 
     60 S60        19.6634  -33.6291  -45.1487 S.3       10 UNK        -0.2414 
     61 C61        17.8702  -33.6438  -44.8123 C.3       10 UNK         0.0169 
     62 H62        16.4548  -23.5252  -48.2933 H         1 UNK         0.0903 
     63 H63        15.8890  -24.3481  -46.8389 H         1 UNK         0.0903 
     64 H64        16.7529  -22.8151  -46.7047 H         1 UNK         0.0903 
     65 H65        17.1739  -26.1108  -46.3237 H         1 UNK         0.3096 
     66 H66        19.7871  -26.5039  -47.4462 H         1 UNK         0.1121 
     67 H67        19.7675  -28.6387  -46.1396 H         1 UNK         0.0849 
     68 H68        18.3405  -28.1225  -45.2907 H         1 UNK         0.0849 
     69 H69        15.8011  -28.3064  -46.4515 H         1 UNK         0.0865 
     70 H70        15.6623  -29.7210  -47.4626 H         1 UNK         0.0865 
     71 H71        17.2587  -31.7880  -46.7254 H         1 UNK         0.1346 
     72 H72        17.2257  -32.4036  -42.4831 H         1 UNK         0.1412 
     73 H73        15.9021  -28.6680  -44.1054 H         1 UNK         0.1426 
     74 H74        16.4714  -30.7373  -40.9970 H         1 UNK         0.0716 
     75 H75        15.3000  -29.6030  -41.6253 H         1 UNK         0.0716 
     76 H76        19.2397  -30.2158  -41.2411 H         1 UNK         0.0695 
     77 H77        19.0761  -29.5537  -42.8414 H         1 UNK         0.0695 
     78 H78        21.1537  -28.7324  -42.0420 H         1 UNK         0.0983 
     79 H79        19.1581  -26.9675  -42.7305 H         1 UNK         0.3095 
     80 H80        19.6346  -24.2564  -42.6490 H         1 UNK         0.0454 
     81 H81        21.9323  -23.3699  -42.6800 H         1 UNK         0.0851 
     82 H82        21.1514  -23.0134  -44.2112 H         1 UNK         0.0851 
     83 H83        22.3324  -24.3169  -44.1024 H         1 UNK         0.0851 
     84 H84        18.7161  -25.0354  -44.5149 H         1 UNK         0.2976 
     85 H85        19.8172  -26.3776  -39.9178 H         1 UNK         0.3116 
     86 H86        20.4685  -27.6456  -37.4074 H         1 UNK         0.0646 
     87 H87        20.0885  -25.3552  -36.4950 H         1 UNK         0.0847 
     88 H88        20.0361  -24.6928  -38.1218 H         1 UNK         0.0847 
     89 H89        18.7886  -25.8173  -37.5792 H         1 UNK         0.0847 
     90 H90        22.4233  -26.0898  -39.8434 H         1 UNK         0.3040 
     91 H91        24.7722  -26.0330  -37.9890 H         1 UNK         0.1015 
     92 H92        25.4822  -23.9002  -39.0747 H         1 UNK         0.0786 
     93 H93        23.9551  -23.7037  -38.2297 H         1 UNK         0.0786 
     94 H94        23.9783  -23.8462  -39.9868 H         1 UNK         0.0786 
     95 H95        23.6080  -26.2110  -41.3939 H         1 UNK         0.3172 
     96 H96        26.2908  -26.9576  -42.3569 H         1 UNK         0.0595 
     97 H97        23.6264  -26.5801  -43.8268 H         1 UNK         0.0839 
     98 H98        25.1976  -26.8073  -44.5776 H         1 UNK         0.0839 
     99 H99        24.8759  -25.3484  -43.6525 H         1 UNK         0.0839 
    100 H100       26.8496  -28.9368  -43.0429 H         1 UNK         0.2998 
    101 H101       26.9900  -31.1195  -43.3191 H         1 UNK         0.0822 
    102 H102       25.2424  -32.2392  -44.6447 H         1 UNK         0.0787 
    103 H103       24.0439  -31.0305  -44.1799 H         1 UNK         0.0787 
    104 H104       25.4015  -30.5916  -45.2067 H         1 UNK         0.0787 
    105 H105       24.6165  -33.0218  -42.9533 H         1 UNK         0.3055 
    106 H106       24.1660  -32.9936  -40.0436 H         1 UNK         0.1106 
    107 H107       26.3055  -34.2806  -40.3008 H         1 UNK         0.0828 
    108 H108       24.9958  -35.3221  -39.7754 H         1 UNK         0.0828 
    109 H109       25.5226  -35.3609  -41.4536 H         1 UNK         0.0828 
    110 H110       22.4920  -32.4018  -42.2584 H         1 UNK         0.2931 
    111 H111       20.9121  -34.6982  -42.9588 H         1 UNK         0.0412 
    112 H112       20.7100  -32.4790  -40.1882 H         1 UNK         0.3472 
    113 H113       19.2059  -33.1341  -39.5953 H         1 UNK         0.3472 
    114 H114       19.7249  -31.9502  -43.3761 H         1 UNK         0.0970 
    115 H115       21.2509  -32.2217  -44.1208 H         1 UNK         0.0970 
    116 H116       17.3655  -34.1315  -45.6474 H         1 UNK         0.0612 
    117 H117       17.6698  -34.2657  -43.9400 H         1 UNK         0.0612 
@<TRIPOS>BOND
     1    1    2 1    
     2    1   62 1    
     3    1   63 1    
     4    1   64 1    
     5    2    3 2    
     6    2    4 am   BACKBONE|DICT|INTERRES
     7    4    5 1    
     8    4   65 1    
     9    5    6 1    
    10    5   25 1    
    11    5   66 1    
    12    6    7 1    
    13    6   67 1    
    14    6   68 1    
    15    7    8 1    
    16    8    9 1    
    17    8   69 1    
    18    8   70 1    
    19    9   10 ar   
    20    9   14 ar   
    21   10   11 ar   
    22   10   71 1    
    23   11   12 ar   
    24   11   61 1    
    25   12   13 ar   
    26   12   72 1    
    27   13   14 ar   
    28   13   15 1    
    29   14   73 1    
    30   15   16 1    
    31   15   74 1    
    32   15   75 1    
    33   16   17 1    
    34   17   18 1    
    35   17   76 1    
    36   17   77 1    
    37   18   19 1    
    38   18   27 1    
    39   18   78 1    
    40   19   20 am   BACKBONE|DICT|INTERRES
    41   19   79 1    
    42   20   21 2    
    43   20   22 1    
    44   22   23 1    
    45   22   24 1    
    46   22   80 1    
    47   23   81 1    
    48   23   82 1    
    49   23   83 1    
    50   24   25 am   BACKBONE|DICT|INTERRES
    51   24   84 1    
    52   25   26 2    
    53   27   28 2    
    54   27   29 am   BACKBONE|DICT|INTERRES
    55   29   30 1    
    56   29   85 1    
    57   30   31 1    
    58   30   32 1    
    59   30   86 1    
    60   31   87 1    
    61   31   88 1    
    62   31   89 1    
    63   32   33 2    
    64   32   34 am   BACKBONE|DICT|INTERRES
    65   34   35 1    
    66   34   90 1    
    67   35   36 1    
    68   35   37 1    
    69   35   91 1    
    70   36   92 1    
    71   36   93 1    
    72   36   94 1    
    73   37   38 2    
    74   37   39 am   BACKBONE|DICT|INTERRES
    75   39   40 1    
    76   39   95 1    
    77   40   41 1    
    78   40   42 1    
    79   40   96 1    
    80   41   97 1    
    81   41   98 1    
    82   41   99 1    
    83   42   43 2    
    84   42   44 am   BACKBONE|DICT|INTERRES
    85   44   45 1    
    86   44  100 1    
    87   45   46 1    
    88   45   47 1    
    89   45  101 1    
    90   46  102 1    
    91   46  103 1    
    92   46  104 1    
    93   47   48 2    
    94   47   49 am   BACKBONE|DICT|INTERRES
    95   49   50 1    
    96   49  105 1    
    97   50   51 1    
    98   50   52 1    
    99   50  106 1    
   100   51  107 1    
   101   51  108 1    
   102   51  109 1    
   103   52   53 2    
   104   52   54 am   BACKBONE|DICT|INTERRES
   105   54   55 1    
   106   54  110 1    
   107   55   56 1    
   108   55   59 1    
   109   55  111 1    
   110   56   57 am   BACKBONE|DICT|INTERRES
   111   56   58 2    
   112   57  112 1    
   113   57  113 1    
   114   59   60 1    
   115   59  114 1    
   116   59  115 1    
   117   60   61 1    
   118   61  116 1    
   119   61  117 1    
@<TRIPOS>SUBSTRUCTURE
     1 UNK         1 GROUP             0       ****    0 ROOT    
