@<TRIPOS>MOLECULE
3R8
117   119    1
SMALL
USER_CHARGES


@<TRIPOS>ATOM
      1 CA         19.3958  -27.6197  -42.1678 C.3       0 UNK        -0.2013 
      2 C          18.5418  -26.4578  -42.6463 C.2       0 UNK         0.4866 
      3 O          18.7614  -25.3224  -42.2236 O.2       0 UNK        -0.5176 
      4 N          17.5769  -26.7245  -43.5372 N.am      1 UNK        -0.4884 
      5 CA         16.6173  -25.7497  -44.0808 C.3       1 UNK         0.0853 
      6 C6         15.3361  -26.4295  -44.6361 C.3       10 UNK        -0.0849 
      7 S7         14.5454  -27.5639  -43.4420 S.3       10 UNK        -0.2776 
      8 C8         14.7037  -29.1716  -44.2897 C.3       10 UNK         0.0316 
      9 C9         16.1558  -29.6084  -44.4325 C.ar      10 UNK        -0.0863 
     10 C10        16.8257  -30.1842  -43.3492 C.ar      10 UNK        -0.1009 
     11 C11        18.1588  -30.5879  -43.4722 C.ar      10 UNK        -0.0712 
     12 C12        18.8234  -30.4088  -44.6901 C.ar      10 UNK        -0.0894 
     13 C13        18.1612  -29.8414  -45.7834 C.ar      10 UNK        -0.0745 
     14 C14        16.8267  -29.4492  -45.6493 C.ar      10 UNK        -0.0972 
     15 C15        18.8704  -29.6764  -47.1212 C.3       10 UNK         0.0209 
     16 S16        19.3539  -27.9492  -47.4378 S.3       10 UNK        -0.2568 
     17 C17        20.7746  -27.7793  -46.3119 C.3       10 UNK        -0.0983 
     18 CA         21.3370  -26.3364  -46.2403 C.3       3 UNK         0.0876 
     19 N          20.2986  -25.3706  -45.8717 N.am      3 UNK        -0.4424 
     20 C          20.3832  -24.0381  -45.9796 C.2       2 UNK         0.4918 
     21 O          21.3611  -23.4569  -46.4500 O.2       2 UNK        -0.4875 
     22 CA         19.2066  -23.2046  -45.4283 C.3       2 UNK         0.0481 
     23 CB         18.5534  -22.3356  -46.5222 C.3       2 UNK        -0.1831 
     24 N          18.2210  -23.9996  -44.6775 N.am      2 UNK        -0.4498 
     25 C          17.3020  -24.8595  -45.1413 C.2       1 UNK         0.5027 
     26 O          17.0609  -25.0257  -46.3370 O.2       1 UNK        -0.4969 
     27 C          22.5257  -26.3202  -45.2580 C.2       3 UNK         0.5005 
     28 O          23.6271  -26.7214  -45.6387 O.2       3 UNK        -0.5279 
     29 N          22.2646  -25.9272  -43.9996 N.am      4 UNK        -0.4463 
     30 CA         23.1160  -26.0295  -42.8062 C.3       4 UNK         0.0283 
     31 CB         24.4374  -25.2501  -42.9560 C.3       4 UNK        -0.1875 
     32 C          23.3534  -27.4876  -42.3767 C.2       4 UNK         0.4949 
     33 O          23.0035  -27.8455  -41.2528 O.2       4 UNK        -0.5039 
     34 N          23.9171  -28.2981  -43.2854 N.am      5 UNK        -0.4663 
     35 CA         24.0997  -29.7566  -43.2188 C.3       5 UNK         0.0242 
     36 CB         22.7501  -30.4498  -43.4831 C.3       5 UNK        -0.1982 
     37 C          24.7820  -30.2544  -41.9274 C.2       5 UNK         0.5017 
     38 O          24.4088  -31.3008  -41.3907 O.2       5 UNK        -0.5012 
     39 N          25.7415  -29.4556  -41.4336 N.am      6 UNK        -0.4439 
     40 CA         26.4874  -29.6185  -40.1787 C.3       6 UNK         0.0297 
     41 CB         27.4401  -30.8295  -40.2752 C.3       6 UNK        -0.2006 
     42 C          25.5953  -29.6764  -38.9189 C.2       6 UNK         0.4892 
     43 O          26.0053  -30.2698  -37.9202 O.2       6 UNK        -0.5089 
     44 N          24.3816  -29.1038  -38.9924 N.am      7 UNK        -0.4243 
     45 CA         23.2895  -29.1035  -38.0052 C.3       7 UNK         0.0196 
     46 CB         23.7165  -28.4306  -36.6862 C.3       7 UNK        -0.2007 
     47 C          22.6539  -30.4840  -37.7447 C.2       7 UNK         0.5020 
     48 O          21.4451  -30.5560  -37.5245 O.2       7 UNK        -0.5147 
     49 N          23.4601  -31.5511  -37.7799 N.am      8 UNK        -0.4734 
     50 CA         23.0588  -32.9442  -37.5776 C.3       8 UNK         0.0238 
     51 CB         24.3212  -33.7961  -37.3666 C.3       8 UNK        -0.1912 
     52 C          22.2053  -33.5281  -38.7174 C.2       8 UNK         0.5038 
     53 O          21.5053  -34.5137  -38.4809 O.2       8 UNK        -0.5046 
     54 N          22.2747  -32.9315  -39.9168 N.am      9 UNK        -0.4200 
     55 CA         21.5780  -33.3830  -41.1323 C.3       9 UNK         0.0839 
     56 C          22.1720  -34.6897  -41.7430 C.2       9 UNK         0.5513 
     57 N          23.4504  -34.9792  -41.5284 N.am      9 UNK        -0.7519 
     58 O          21.4857  -35.4456  -42.4257 O.2       9 UNK        -0.4960 
     59 C59        20.0281  -33.3950  -40.9648 C.3       10 UNK        -0.0876 
     60 S60        19.1394  -32.9862  -42.5055 S.3       10 UNK        -0.2414 
     61 C61        18.8859  -31.2004  -42.2846 C.3       10 UNK         0.0169 
     62 H62        20.2211  -27.2645  -41.5510 H         1 UNK         0.0903 
     63 H63        18.7976  -28.3021  -41.5652 H         1 UNK         0.0903 
     64 H64        19.8171  -28.1691  -43.0078 H         1 UNK         0.0903 
     65 H65        17.4327  -27.6790  -43.8440 H         1 UNK         0.3096 
     66 H66        16.3035  -25.0937  -43.2651 H         1 UNK         0.1121 
     67 H67        15.5471  -26.9683  -45.5601 H         1 UNK         0.0849 
     68 H68        14.6012  -25.6684  -44.9052 H         1 UNK         0.0849 
     69 H69        14.1534  -29.9241  -43.7228 H         1 UNK         0.0865 
     70 H70        14.2184  -29.1172  -45.2656 H         1 UNK         0.0865 
     71 H71        16.3073  -30.3141  -42.4087 H         1 UNK         0.1346 
     72 H72        19.8532  -30.7242  -44.7869 H         1 UNK         0.1412 
     73 H73        16.3138  -29.0173  -46.4982 H         1 UNK         0.1426 
     74 H74        18.2059  -30.0052  -47.9216 H         1 UNK         0.0716 
     75 H75        19.7513  -30.3181  -47.1768 H         1 UNK         0.0716 
     76 H76        21.5486  -28.4739  -46.6454 H         1 UNK         0.0695 
     77 H77        20.4662  -28.1166  -45.3215 H         1 UNK         0.0695 
     78 H78        21.7218  -26.0616  -47.2249 H         1 UNK         0.0983 
     79 H79        19.4265  -25.7620  -45.5495 H         1 UNK         0.3095 
     80 H80        19.6421  -22.5248  -44.6946 H         1 UNK         0.0454 
     81 H81        19.2733  -21.6265  -46.9327 H         1 UNK         0.0851 
     82 H82        17.7193  -21.7566  -46.1265 H         1 UNK         0.0851 
     83 H83        18.1851  -22.9326  -47.3566 H         1 UNK         0.0851 
     84 H84        18.3831  -24.0350  -43.6738 H         1 UNK         0.2976 
     85 H85        21.3224  -25.6135  -43.8150 H         1 UNK         0.3116 
     86 H86        22.5513  -25.5542  -42.0021 H         1 UNK         0.0646 
     87 H87        25.0850  -25.6691  -43.7261 H         1 UNK         0.0847 
     88 H88        24.2523  -24.2063  -43.2093 H         1 UNK         0.0847 
     89 H89        25.0003  -25.2609  -42.0219 H         1 UNK         0.0847 
     90 H90        24.1330  -27.8697  -44.1832 H         1 UNK         0.3040 
     91 H91        24.7731  -30.0220  -44.0354 H         1 UNK         0.1015 
     92 H92        22.8808  -31.5253  -43.6057 H         1 UNK         0.0786 
     93 H93        22.2843  -30.0777  -44.3955 H         1 UNK         0.0786 
     94 H94        22.0559  -30.2860  -42.6595 H         1 UNK         0.0786 
     95 H95        25.9407  -28.6111  -41.9523 H         1 UNK         0.3172 
     96 H96        27.1002  -28.7225  -40.0706 H         1 UNK         0.0595 
     97 H97        26.8925  -31.7717  -40.3179 H         1 UNK         0.0839 
     98 H98        28.1034  -30.8787  -39.4107 H         1 UNK         0.0839 
     99 H99        28.0723  -30.7686  -41.1609 H         1 UNK         0.0839 
    100 H100       24.1209  -28.6827  -39.8807 H         1 UNK         0.2998 
    101 H101       22.5056  -28.4864  -38.4480 H         1 UNK         0.0822 
    102 H102       22.8668  -28.3319  -36.0094 H         1 UNK         0.0787 
    103 H103       24.1094  -27.4291  -36.8614 H         1 UNK         0.0787 
    104 H104       24.4805  -29.0048  -36.1617 H         1 UNK         0.0787 
    105 H105       24.4509  -31.3687  -37.9142 H         1 UNK         0.3055 
    106 H106       22.4544  -32.9907  -36.6689 H         1 UNK         0.1106 
    107 H107       24.8916  -33.4532  -36.5031 H         1 UNK         0.0828 
    108 H108       24.0639  -34.8413  -37.1885 H         1 UNK         0.0828 
    109 H109       24.9787  -33.7650  -38.2365 H         1 UNK         0.0828 
    110 H110       22.9247  -32.1649  -40.0457 H         1 UNK         0.2931 
    111 H111       21.8131  -32.6109  -41.8617 H         1 UNK         0.0412 
    112 H112       24.0329  -34.3488  -41.0001 H         1 UNK         0.3472 
    113 H113       23.8409  -35.8203  -41.9233 H         1 UNK         0.3472 
    114 H114       19.6840  -34.3657  -40.6034 H         1 UNK         0.0970 
    115 H115       19.7230  -32.6795  -40.1996 H         1 UNK         0.0970 
    116 H116       18.3252  -31.0296  -41.3642 H         1 UNK         0.0612 
    117 H117       19.8502  -30.7108  -42.1531 H         1 UNK         0.0612 
@<TRIPOS>BOND
     1    1    2 1    
     2    1   62 1    
     3    1   63 1    
     4    1   64 1    
     5    2    3 2    
     6    2    4 am   BACKBONE|DICT|INTERRES
     7    4    5 1    
     8    4   65 1    
     9    5    6 1    
    10    5   25 1    
    11    5   66 1    
    12    6    7 1    
    13    6   67 1    
    14    6   68 1    
    15    7    8 1    
    16    8    9 1    
    17    8   69 1    
    18    8   70 1    
    19    9   10 ar   
    20    9   14 ar   
    21   10   11 ar   
    22   10   71 1    
    23   11   12 ar   
    24   11   61 1    
    25   12   13 ar   
    26   12   72 1    
    27   13   14 ar   
    28   13   15 1    
    29   14   73 1    
    30   15   16 1    
    31   15   74 1    
    32   15   75 1    
    33   16   17 1    
    34   17   18 1    
    35   17   76 1    
    36   17   77 1    
    37   18   19 1    
    38   18   27 1    
    39   18   78 1    
    40   19   20 am   BACKBONE|DICT|INTERRES
    41   19   79 1    
    42   20   21 2    
    43   20   22 1    
    44   22   23 1    
    45   22   24 1    
    46   22   80 1    
    47   23   81 1    
    48   23   82 1    
    49   23   83 1    
    50   24   25 am   BACKBONE|DICT|INTERRES
    51   24   84 1    
    52   25   26 2    
    53   27   28 2    
    54   27   29 am   BACKBONE|DICT|INTERRES
    55   29   30 1    
    56   29   85 1    
    57   30   31 1    
    58   30   32 1    
    59   30   86 1    
    60   31   87 1    
    61   31   88 1    
    62   31   89 1    
    63   32   33 2    
    64   32   34 am   BACKBONE|DICT|INTERRES
    65   34   35 1    
    66   34   90 1    
    67   35   36 1    
    68   35   37 1    
    69   35   91 1    
    70   36   92 1    
    71   36   93 1    
    72   36   94 1    
    73   37   38 2    
    74   37   39 am   BACKBONE|DICT|INTERRES
    75   39   40 1    
    76   39   95 1    
    77   40   41 1    
    78   40   42 1    
    79   40   96 1    
    80   41   97 1    
    81   41   98 1    
    82   41   99 1    
    83   42   43 2    
    84   42   44 am   BACKBONE|DICT|INTERRES
    85   44   45 1    
    86   44  100 1    
    87   45   46 1    
    88   45   47 1    
    89   45  101 1    
    90   46  102 1    
    91   46  103 1    
    92   46  104 1    
    93   47   48 2    
    94   47   49 am   BACKBONE|DICT|INTERRES
    95   49   50 1    
    96   49  105 1    
    97   50   51 1    
    98   50   52 1    
    99   50  106 1    
   100   51  107 1    
   101   51  108 1    
   102   51  109 1    
   103   52   53 2    
   104   52   54 am   BACKBONE|DICT|INTERRES
   105   54   55 1    
   106   54  110 1    
   107   55   56 1    
   108   55   59 1    
   109   55  111 1    
   110   56   57 am   BACKBONE|DICT|INTERRES
   111   56   58 2    
   112   57  112 1    
   113   57  113 1    
   114   59   60 1    
   115   59  114 1    
   116   59  115 1    
   117   60   61 1    
   118   61  116 1    
   119   61  117 1    
@<TRIPOS>SUBSTRUCTURE
     1 UNK         1 GROUP             0       ****    0 ROOT    
