@<TRIPOS>MOLECULE
3R8
117   119    1
SMALL
USER_CHARGES


@<TRIPOS>ATOM
      1 CA         23.5851  -32.1509  -45.1132 C.3       0 UNK        -0.2013 
      2 C          22.5520  -31.0672  -44.8464 C.2       0 UNK         0.4866 
      3 O          22.3595  -30.6715  -43.6961 O.2       0 UNK        -0.5176 
      4 N          21.8722  -30.6071  -45.9038 N.am      1 UNK        -0.4884 
      5 CA         20.8334  -29.5713  -45.8554 C.3       1 UNK         0.0853 
      6 C6         19.7850  -29.7495  -46.9895 C.3       10 UNK        -0.0849 
      7 S7         18.9150  -31.3509  -46.8719 S.3       10 UNK        -0.2776 
      8 C8         17.2915  -30.8616  -46.1811 C.3       10 UNK         0.0316 
      9 C9         17.3582  -30.2517  -44.7804 C.ar      10 UNK        -0.0863 
     10 C10        18.2162  -30.7698  -43.8060 C.ar      10 UNK        -0.1009 
     11 C11        18.2851  -30.2030  -42.5307 C.ar      10 UNK        -0.0712 
     12 C12        17.4509  -29.1256  -42.2152 C.ar      10 UNK        -0.0894 
     13 C13        16.5669  -28.6112  -43.1683 C.ar      10 UNK        -0.0745 
     14 C14        16.5298  -29.1749  -44.4485 C.ar      10 UNK        -0.0972 
     15 C15        15.6292  -27.4648  -42.8172 C.3       10 UNK         0.0209 
     16 S16        16.1759  -25.8944  -43.5573 S.3       10 UNK        -0.2568 
     17 C17        17.1548  -25.1255  -42.2182 C.3       10 UNK        -0.0983 
     18 CA         18.6728  -25.4392  -42.2677 C.3       3 UNK         0.0876 
     19 N          19.2145  -25.3383  -43.6294 N.am      3 UNK        -0.4424 
     20 C          20.4550  -25.6642  -44.0097 C.2       2 UNK         0.4918 
     21 O          21.3624  -25.9555  -43.2296 O.2       2 UNK        -0.4875 
     22 CA         20.6856  -25.7390  -45.5230 C.3       2 UNK         0.0481 
     23 CB         22.0113  -25.0829  -45.9632 C.3       2 UNK        -0.1831 
     24 N          20.5486  -27.1428  -45.9239 N.am      2 UNK        -0.4498 
     25 C          21.4297  -28.1464  -45.7817 C.2       1 UNK         0.5027 
     26 O          22.6343  -27.9873  -45.5705 O.2       1 UNK        -0.4969 
     27 C          19.4261  -24.5849  -41.2235 C.2       3 UNK         0.5005 
     28 O          19.4098  -24.9255  -40.0406 O.2       3 UNK        -0.5279 
     29 N          20.0752  -23.5008  -41.6741 N.am      4 UNK        -0.4463 
     30 CA         20.9395  -22.6452  -40.8574 C.3       4 UNK         0.0283 
     31 CB         21.1968  -21.3253  -41.6022 C.3       4 UNK        -0.1875 
     32 C          22.2737  -23.3162  -40.4801 C.2       4 UNK         0.4949 
     33 O          22.8307  -22.9876  -39.4324 O.2       4 UNK        -0.5039 
     34 N          22.7636  -24.2303  -41.3296 N.am      5 UNK        -0.4663 
     35 CA         23.9609  -25.0332  -41.0808 C.3       5 UNK         0.0242 
     36 CB         24.6831  -25.3223  -42.4088 C.3       5 UNK        -0.1982 
     37 C          23.5894  -26.3350  -40.3589 C.2       5 UNK         0.5017 
     38 O          24.1815  -26.6334  -39.3216 O.2       5 UNK        -0.5012 
     39 N          22.6048  -27.0599  -40.9168 N.am      6 UNK        -0.4439 
     40 CA         22.0302  -28.3210  -40.4317 C.3       6 UNK         0.0297 
     41 CB         21.1236  -28.0598  -39.2114 C.3       6 UNK        -0.2006 
     42 C          23.0936  -29.4027  -40.1596 C.2       6 UNK         0.4892 
     43 O          23.1964  -29.9101  -39.0399 O.2       6 UNK        -0.5089 
     44 N          23.8852  -29.7242  -41.1901 N.am      7 UNK        -0.4243 
     45 CA         25.0087  -30.6638  -41.1417 C.3       7 UNK         0.0196 
     46 CB         25.9703  -30.3409  -42.3000 C.3       7 UNK        -0.2007 
     47 C          24.5434  -32.1341  -41.1369 C.2       7 UNK         0.5020 
     48 O          24.8586  -32.8872  -42.0576 O.2       7 UNK        -0.5147 
     49 N          23.7824  -32.5021  -40.0972 N.am      8 UNK        -0.4734 
     50 CA         23.1841  -33.8155  -39.8073 C.3       8 UNK         0.0238 
     51 CB         24.2613  -34.9172  -39.7145 C.3       8 UNK        -0.1912 
     52 C          22.0205  -34.2256  -40.7336 C.2       8 UNK         0.5038 
     53 O          21.4651  -35.3086  -40.5395 O.2       8 UNK        -0.5046 
     54 N          21.6427  -33.3560  -41.6794 N.am      9 UNK        -0.4200 
     55 CA         20.5435  -33.5281  -42.6416 C.3       9 UNK         0.0839 
     56 C          20.7794  -34.6814  -43.6648 C.2       9 UNK         0.5513 
     57 N          19.7731  -35.0529  -44.4459 N.am      9 UNK        -0.7519 
     58 O          21.8777  -35.2158  -43.8020 O.2       9 UNK        -0.4960 
     59 C59        19.1349  -33.5744  -41.9658 C.3       10 UNK        -0.0876 
     60 S60        18.7826  -32.2778  -40.7193 S.3       10 UNK        -0.2414 
     61 C61        19.2919  -30.7182  -41.5110 C.3       10 UNK         0.0169 
     62 H62        23.4678  -32.9652  -44.3989 H         1 UNK         0.0903 
     63 H63        23.4879  -32.5686  -46.1150 H         1 UNK         0.0903 
     64 H64        24.5917  -31.7497  -45.0072 H         1 UNK         0.0903 
     65 H65        22.0877  -30.9618  -46.8242 H         1 UNK         0.3096 
     66 H66        20.3125  -29.6802  -44.9050 H         1 UNK         0.1121 
     67 H67        19.0298  -28.9630  -46.9788 H         1 UNK         0.0849 
     68 H68        20.2683  -29.6884  -47.9662 H         1 UNK         0.0849 
     69 H69        16.8119  -30.1718  -46.8774 H         1 UNK         0.0865 
     70 H70        16.6530  -31.7449  -46.1396 H         1 UNK         0.0865 
     71 H71        18.8543  -31.6006  -44.0594 H         1 UNK         0.1346 
     72 H72        17.4901  -28.6862  -41.2278 H         1 UNK         0.1412 
     73 H73        15.8465  -28.7732  -45.1848 H         1 UNK         0.1426 
     74 H74        15.5218  -27.3609  -41.7366 H         1 UNK         0.0716 
     75 H75        14.6322  -27.6958  -43.1953 H         1 UNK         0.0716 
     76 H76        16.7375  -25.4160  -41.2523 H         1 UNK         0.0695 
     77 H77        16.9926  -24.0486  -42.2978 H         1 UNK         0.0695 
     78 H78        18.8071  -26.4796  -41.9644 H         1 UNK         0.0983 
     79 H79        18.5264  -25.1349  -44.3408 H         1 UNK         0.3095 
     80 H80        19.8797  -25.2004  -46.0242 H         1 UNK         0.0454 
     81 H81        22.8694  -25.4574  -45.4048 H         1 UNK         0.0851 
     82 H82        21.9771  -24.0052  -45.8013 H         1 UNK         0.0851 
     83 H83        22.2030  -25.2465  -47.0233 H         1 UNK         0.0851 
     84 H84        19.5959  -27.4104  -46.1270 H         1 UNK         0.2976 
     85 H85        20.0139  -23.2851  -42.6587 H         1 UNK         0.3116 
     86 H86        20.4119  -22.4146  -39.9292 H         1 UNK         0.0646 
     87 H87        21.7154  -21.4875  -42.5479 H         1 UNK         0.0847 
     88 H88        21.8155  -20.6552  -41.0036 H         1 UNK         0.0847 
     89 H89        20.2656  -20.7994  -41.8137 H         1 UNK         0.0847 
     90 H90        22.2087  -24.4931  -42.1360 H         1 UNK         0.3040 
     91 H91        24.6499  -24.4774  -40.4402 H         1 UNK         0.1015 
     92 H92        24.0591  -25.8827  -43.1059 H         1 UNK         0.0786 
     93 H93        25.5867  -25.9095  -42.2389 H         1 UNK         0.0786 
     94 H94        24.9856  -24.3985  -42.9020 H         1 UNK         0.0786 
     95 H95        22.2027  -26.7049  -41.7830 H         1 UNK         0.3172 
     96 H96        21.4045  -28.6976  -41.2413 H         1 UNK         0.0595 
     97 H97        21.6812  -27.6279  -38.3797 H         1 UNK         0.0839 
     98 H98        20.6693  -28.9837  -38.8516 H         1 UNK         0.0839 
     99 H99        20.3119  -27.3775  -39.4603 H         1 UNK         0.0839 
    100 H100       23.6709  -29.3326  -42.0979 H         1 UNK         0.2998 
    101 H101       25.5552  -30.5018  -40.2099 H         1 UNK         0.0822 
    102 H102       26.3658  -29.3286  -42.2140 H         1 UNK         0.0787 
    103 H103       26.8230  -31.0213  -42.3053 H         1 UNK         0.0787 
    104 H104       25.4765  -30.4243  -43.2678 H         1 UNK         0.0787 
    105 H105       23.5486  -31.7620  -39.4379 H         1 UNK         0.3055 
    106 H106       22.7381  -33.7169  -38.8162 H         1 UNK         0.1106 
    107 H107       23.8361  -35.8482  -39.3374 H         1 UNK         0.0828 
    108 H108       24.7027  -35.1378  -40.6866 H         1 UNK         0.0828 
    109 H109       25.0651  -34.6325  -39.0356 H         1 UNK         0.0828 
    110 H110       22.1942  -32.5184  -41.7964 H         1 UNK         0.2931 
    111 H111       20.5907  -32.6350  -43.2577 H         1 UNK         0.0412 
    112 H112       18.8662  -34.6190  -44.3862 H         1 UNK         0.3472 
    113 H113       19.9300  -35.7851  -45.1211 H         1 UNK         0.3472 
    114 H114       18.9970  -34.5386  -41.4735 H         1 UNK         0.0970 
    115 H115       18.3459  -33.5168  -42.7159 H         1 UNK         0.0970 
    116 H116       19.4105  -29.9805  -40.7177 H         1 UNK         0.0612 
    117 H117       20.2759  -30.8153  -41.9665 H         1 UNK         0.0612 
@<TRIPOS>BOND
     1    1    2 1    
     2    1   62 1    
     3    1   63 1    
     4    1   64 1    
     5    2    3 2    
     6    2    4 am   BACKBONE|DICT|INTERRES
     7    4    5 1    
     8    4   65 1    
     9    5    6 1    
    10    5   25 1    
    11    5   66 1    
    12    6    7 1    
    13    6   67 1    
    14    6   68 1    
    15    7    8 1    
    16    8    9 1    
    17    8   69 1    
    18    8   70 1    
    19    9   10 ar   
    20    9   14 ar   
    21   10   11 ar   
    22   10   71 1    
    23   11   12 ar   
    24   11   61 1    
    25   12   13 ar   
    26   12   72 1    
    27   13   14 ar   
    28   13   15 1    
    29   14   73 1    
    30   15   16 1    
    31   15   74 1    
    32   15   75 1    
    33   16   17 1    
    34   17   18 1    
    35   17   76 1    
    36   17   77 1    
    37   18   19 1    
    38   18   27 1    
    39   18   78 1    
    40   19   20 am   BACKBONE|DICT|INTERRES
    41   19   79 1    
    42   20   21 2    
    43   20   22 1    
    44   22   23 1    
    45   22   24 1    
    46   22   80 1    
    47   23   81 1    
    48   23   82 1    
    49   23   83 1    
    50   24   25 am   BACKBONE|DICT|INTERRES
    51   24   84 1    
    52   25   26 2    
    53   27   28 2    
    54   27   29 am   BACKBONE|DICT|INTERRES
    55   29   30 1    
    56   29   85 1    
    57   30   31 1    
    58   30   32 1    
    59   30   86 1    
    60   31   87 1    
    61   31   88 1    
    62   31   89 1    
    63   32   33 2    
    64   32   34 am   BACKBONE|DICT|INTERRES
    65   34   35 1    
    66   34   90 1    
    67   35   36 1    
    68   35   37 1    
    69   35   91 1    
    70   36   92 1    
    71   36   93 1    
    72   36   94 1    
    73   37   38 2    
    74   37   39 am   BACKBONE|DICT|INTERRES
    75   39   40 1    
    76   39   95 1    
    77   40   41 1    
    78   40   42 1    
    79   40   96 1    
    80   41   97 1    
    81   41   98 1    
    82   41   99 1    
    83   42   43 2    
    84   42   44 am   BACKBONE|DICT|INTERRES
    85   44   45 1    
    86   44  100 1    
    87   45   46 1    
    88   45   47 1    
    89   45  101 1    
    90   46  102 1    
    91   46  103 1    
    92   46  104 1    
    93   47   48 2    
    94   47   49 am   BACKBONE|DICT|INTERRES
    95   49   50 1    
    96   49  105 1    
    97   50   51 1    
    98   50   52 1    
    99   50  106 1    
   100   51  107 1    
   101   51  108 1    
   102   51  109 1    
   103   52   53 2    
   104   52   54 am   BACKBONE|DICT|INTERRES
   105   54   55 1    
   106   54  110 1    
   107   55   56 1    
   108   55   59 1    
   109   55  111 1    
   110   56   57 am   BACKBONE|DICT|INTERRES
   111   56   58 2    
   112   57  112 1    
   113   57  113 1    
   114   59   60 1    
   115   59  114 1    
   116   59  115 1    
   117   60   61 1    
   118   61  116 1    
   119   61  117 1    
@<TRIPOS>SUBSTRUCTURE
     1 UNK         1 GROUP             0       ****    0 ROOT    
