@<TRIPOS>MOLECULE
3R8
117   119    1
SMALL
USER_CHARGES


@<TRIPOS>ATOM
      1 CA         16.0976  -23.9432  -40.2812 C.3       0 UNK        -0.2013 
      2 C          16.6170  -23.8584  -41.7088 C.2       0 UNK         0.4866 
      3 O          16.8133  -22.7573  -42.2248 O.2       0 UNK        -0.5176 
      4 N          16.8320  -25.0111  -42.3539 N.am      1 UNK        -0.4884 
      5 CA         17.3803  -25.1182  -43.7094 C.3       1 UNK         0.0853 
      6 C6         17.1872  -26.5396  -44.2942 C.3       10 UNK        -0.0849 
      7 S7         15.4419  -26.9413  -44.6340 S.3       10 UNK        -0.2776 
      8 C8         15.2959  -28.6268  -43.9394 C.3       10 UNK         0.0316 
      9 C9         16.2900  -29.6465  -44.5009 C.ar      10 UNK        -0.0863 
     10 C10        16.7762  -30.6529  -43.6602 C.ar      10 UNK        -0.1009 
     11 C11        17.6923  -31.6019  -44.1270 C.ar      10 UNK        -0.0712 
     12 C12        18.1183  -31.5426  -45.4577 C.ar      10 UNK        -0.0894 
     13 C13        17.6302  -30.5554  -46.3185 C.ar      10 UNK        -0.0745 
     14 C14        16.7087  -29.6187  -45.8374 C.ar      10 UNK        -0.0972 
     15 C15        18.0735  -30.5241  -47.7767 C.3       10 UNK         0.0209 
     16 S16        19.7747  -29.9003  -47.9885 S.3       10 UNK        -0.2568 
     17 C17        19.5886  -28.1433  -47.5250 C.3       10 UNK        -0.0983 
     18 CA         20.7390  -27.5774  -46.6527 C.3       3 UNK         0.0876 
     19 N          20.4767  -26.1786  -46.3177 N.am      3 UNK        -0.4424 
     20 C          21.3284  -25.3439  -45.7053 C.2       2 UNK         0.4918 
     21 O          22.5153  -25.6014  -45.5041 O.2       2 UNK        -0.4875 
     22 CA         20.7370  -24.0101  -45.2085 C.3       2 UNK         0.0481 
     23 CB         20.8990  -22.9166  -46.2758 C.3       2 UNK        -0.1831 
     24 N          19.3188  -24.1481  -44.8534 N.am      2 UNK        -0.4498 
     25 C          18.8794  -24.7544  -43.7395 C.2       1 UNK         0.5027 
     26 O          19.6108  -25.0837  -42.8023 O.2       1 UNK        -0.4969 
     27 C          20.9623  -28.3796  -45.3517 C.2       3 UNK         0.5005 
     28 O          20.1353  -28.2979  -44.4418 O.2       3 UNK        -0.5279 
     29 N          22.0884  -29.1069  -45.2923 N.am      4 UNK        -0.4463 
     30 CA         22.5491  -29.9393  -44.1728 C.3       4 UNK         0.0283 
     31 CB         21.6002  -31.1339  -43.9582 C.3       4 UNK        -0.1875 
     32 C          22.8280  -29.1644  -42.8662 C.2       4 UNK         0.4949 
     33 O          22.8426  -29.7715  -41.7921 O.2       4 UNK        -0.5039 
     34 N          23.0830  -27.8512  -42.9732 N.am      5 UNK        -0.4663 
     35 CA         23.5002  -26.9864  -41.8663 C.3       5 UNK         0.0242 
     36 CB         23.4841  -25.5223  -42.3316 C.3       5 UNK        -0.1982 
     37 C          24.8918  -27.3713  -41.3358 C.2       5 UNK         0.5017 
     38 O          25.6982  -27.9363  -42.0792 O.2       5 UNK        -0.5012 
     39 N          25.1350  -27.0852  -40.0492 N.am      6 UNK        -0.4439 
     40 CA         26.3115  -27.4442  -39.2379 C.3       6 UNK         0.0297 
     41 CB         27.6215  -26.8858  -39.8286 C.3       6 UNK        -0.2006 
     42 C          26.4253  -28.9518  -38.9375 C.2       6 UNK         0.4892 
     43 O          26.7233  -29.3123  -37.7985 O.2       6 UNK        -0.5089 
     44 N          26.1500  -29.8012  -39.9365 N.am      7 UNK        -0.4243 
     45 CA         25.9875  -31.2500  -39.7954 C.3       7 UNK         0.0196 
     46 CB         25.9485  -31.8961  -41.1901 C.3       7 UNK        -0.2007 
     47 C          24.7251  -31.6184  -38.9956 C.2       7 UNK         0.5020 
     48 O          24.7594  -32.5804  -38.2288 O.2       7 UNK        -0.5147 
     49 N          23.6537  -30.8306  -39.1816 N.am      8 UNK        -0.4734 
     50 CA         22.3319  -30.9491  -38.5558 C.3       8 UNK         0.0238 
     51 CB         22.4166  -30.7511  -37.0265 C.3       8 UNK        -0.1912 
     52 C          21.6021  -32.2402  -38.9687 C.2       8 UNK         0.5038 
     53 O          21.0105  -32.9134  -38.1217 O.2       8 UNK        -0.5046 
     54 N          21.6525  -32.5425  -40.2735 N.am      9 UNK        -0.4200 
     55 CA         21.0256  -33.7095  -40.9185 C.3       9 UNK         0.0839 
     56 C          21.6297  -35.0652  -40.4360 C.2       9 UNK         0.5513 
     57 N          20.8946  -36.1681  -40.5066 N.am      9 UNK        -0.7519 
     58 O          22.7953  -35.1424  -40.0538 O.2       9 UNK        -0.4960 
     59 C59        19.4678  -33.6463  -40.8851 C.3       10 UNK        -0.0876 
     60 S60        18.8143  -32.1053  -41.6157 S.3       10 UNK        -0.2414 
     61 C61        18.1925  -32.7177  -43.2153 C.3       10 UNK         0.0169 
     62 H62        15.1406  -23.4286  -40.1988 H         1 UNK         0.0903 
     63 H63        16.8005  -23.4677  -39.5977 H         1 UNK         0.0903 
     64 H64        15.9563  -24.9747  -39.9588 H         1 UNK         0.0903 
     65 H65        16.6704  -25.8870  -41.8785 H         1 UNK         0.3096 
     66 H66        16.8459  -24.4057  -44.3425 H         1 UNK         0.1121 
     67 H67        17.6217  -27.2872  -43.6266 H         1 UNK         0.0849 
     68 H68        17.7182  -26.6481  -45.2405 H         1 UNK         0.0849 
     69 H69        15.4034  -28.5551  -42.8558 H         1 UNK         0.0865 
     70 H70        14.2849  -28.9924  -44.1230 H         1 UNK         0.0865 
     71 H71        16.4418  -30.7007  -42.6327 H         1 UNK         0.1346 
     72 H72        18.8233  -32.2720  -45.8325 H         1 UNK         0.1412 
     73 H73        16.3216  -28.8622  -46.5057 H         1 UNK         0.1426 
     74 H74        17.3928  -29.9171  -48.3757 H         1 UNK         0.0716 
     75 H75        18.0186  -31.5332  -48.1877 H         1 UNK         0.0716 
     76 H76        18.6362  -28.0052  -47.0143 H         1 UNK         0.0695 
     77 H77        19.5135  -27.5682  -48.4492 H         1 UNK         0.0695 
     78 H78        21.6568  -27.6042  -47.2443 H         1 UNK         0.0983 
     79 H79        19.5244  -25.8731  -46.4345 H         1 UNK         0.3095 
     80 H80        21.2947  -23.7033  -44.3212 H         1 UNK         0.0454 
     81 H81        20.5312  -21.9550  -45.9175 H         1 UNK         0.0851 
     82 H82        20.3643  -23.1604  -47.1946 H         1 UNK         0.0851 
     83 H83        21.9497  -22.7821  -46.5371 H         1 UNK         0.0851 
     84 H84        18.6482  -23.8628  -45.5535 H         1 UNK         0.2976 
     85 H85        22.7058  -29.0885  -46.0929 H         1 UNK         0.3116 
     86 H86        23.5138  -30.3442  -44.4818 H         1 UNK         0.0646 
     87 H87        20.6370  -30.8102  -43.5638 H         1 UNK         0.0847 
     88 H88        22.0243  -31.8444  -43.2507 H         1 UNK         0.0847 
     89 H89        21.4170  -31.6725  -44.8877 H         1 UNK         0.0847 
     90 H90        23.0574  -27.4292  -43.8913 H         1 UNK         0.3040 
     91 H91        22.7738  -27.1073  -41.0595 H         1 UNK         0.1015 
     92 H92        24.1651  -25.3570  -43.1677 H         1 UNK         0.0786 
     93 H93        23.7829  -24.8480  -41.5280 H         1 UNK         0.0786 
     94 H94        22.4849  -25.2219  -42.6475 H         1 UNK         0.0786 
     95 H95        24.3979  -26.6260  -39.5308 H         1 UNK         0.3172 
     96 H96        26.1578  -26.9495  -38.2774 H         1 UNK         0.0595 
     97 H97        27.8866  -27.3640  -40.7718 H         1 UNK         0.0839 
     98 H98        28.4538  -27.0490  -39.1427 H         1 UNK         0.0839 
     99 H99        27.5523  -25.8123  -40.0040 H         1 UNK         0.0839 
    100 H100       25.9526  -29.3952  -40.8468 H         1 UNK         0.2998 
    101 H101       26.8532  -31.6401  -39.2557 H         1 UNK         0.0822 
    102 H102       26.8699  -31.7059  -41.7408 H         1 UNK         0.0787 
    103 H103       25.8326  -32.9784  -41.1149 H         1 UNK         0.0787 
    104 H104       25.1170  -31.5198  -41.7877 H         1 UNK         0.0787 
    105 H105       23.7116  -30.1350  -39.9177 H         1 UNK         0.3055 
    106 H106       21.7322  -30.1301  -38.9572 H         1 UNK         0.1106 
    107 H107       21.4206  -30.7020  -36.5849 H         1 UNK         0.0828 
    108 H108       22.9460  -31.5698  -36.5384 H         1 UNK         0.0828 
    109 H109       22.9287  -29.8226  -36.7744 H         1 UNK         0.0828 
    110 H110       22.1706  -31.9229  -40.8811 H         1 UNK         0.2931 
    111 H111       21.3214  -33.6496  -41.9654 H         1 UNK         0.0412 
    112 H112       19.9439  -36.1490  -40.8386 H         1 UNK         0.3472 
    113 H113       21.3030  -37.0429  -40.2150 H         1 UNK         0.3472 
    114 H114       19.1035  -33.7224  -39.8595 H         1 UNK         0.0970 
    115 H115       19.0310  -34.4901  -41.4202 H         1 UNK         0.0970 
    116 H116       18.9907  -33.2789  -43.7041 H         1 UNK         0.0612 
    117 H117       17.3766  -33.4196  -43.0379 H         1 UNK         0.0612 
@<TRIPOS>BOND
     1    1    2 1    
     2    1   62 1    
     3    1   63 1    
     4    1   64 1    
     5    2    3 2    
     6    2    4 am   BACKBONE|DICT|INTERRES
     7    4    5 1    
     8    4   65 1    
     9    5    6 1    
    10    5   25 1    
    11    5   66 1    
    12    6    7 1    
    13    6   67 1    
    14    6   68 1    
    15    7    8 1    
    16    8    9 1    
    17    8   69 1    
    18    8   70 1    
    19    9   10 ar   
    20    9   14 ar   
    21   10   11 ar   
    22   10   71 1    
    23   11   12 ar   
    24   11   61 1    
    25   12   13 ar   
    26   12   72 1    
    27   13   14 ar   
    28   13   15 1    
    29   14   73 1    
    30   15   16 1    
    31   15   74 1    
    32   15   75 1    
    33   16   17 1    
    34   17   18 1    
    35   17   76 1    
    36   17   77 1    
    37   18   19 1    
    38   18   27 1    
    39   18   78 1    
    40   19   20 am   BACKBONE|DICT|INTERRES
    41   19   79 1    
    42   20   21 2    
    43   20   22 1    
    44   22   23 1    
    45   22   24 1    
    46   22   80 1    
    47   23   81 1    
    48   23   82 1    
    49   23   83 1    
    50   24   25 am   BACKBONE|DICT|INTERRES
    51   24   84 1    
    52   25   26 2    
    53   27   28 2    
    54   27   29 am   BACKBONE|DICT|INTERRES
    55   29   30 1    
    56   29   85 1    
    57   30   31 1    
    58   30   32 1    
    59   30   86 1    
    60   31   87 1    
    61   31   88 1    
    62   31   89 1    
    63   32   33 2    
    64   32   34 am   BACKBONE|DICT|INTERRES
    65   34   35 1    
    66   34   90 1    
    67   35   36 1    
    68   35   37 1    
    69   35   91 1    
    70   36   92 1    
    71   36   93 1    
    72   36   94 1    
    73   37   38 2    
    74   37   39 am   BACKBONE|DICT|INTERRES
    75   39   40 1    
    76   39   95 1    
    77   40   41 1    
    78   40   42 1    
    79   40   96 1    
    80   41   97 1    
    81   41   98 1    
    82   41   99 1    
    83   42   43 2    
    84   42   44 am   BACKBONE|DICT|INTERRES
    85   44   45 1    
    86   44  100 1    
    87   45   46 1    
    88   45   47 1    
    89   45  101 1    
    90   46  102 1    
    91   46  103 1    
    92   46  104 1    
    93   47   48 2    
    94   47   49 am   BACKBONE|DICT|INTERRES
    95   49   50 1    
    96   49  105 1    
    97   50   51 1    
    98   50   52 1    
    99   50  106 1    
   100   51  107 1    
   101   51  108 1    
   102   51  109 1    
   103   52   53 2    
   104   52   54 am   BACKBONE|DICT|INTERRES
   105   54   55 1    
   106   54  110 1    
   107   55   56 1    
   108   55   59 1    
   109   55  111 1    
   110   56   57 am   BACKBONE|DICT|INTERRES
   111   56   58 2    
   112   57  112 1    
   113   57  113 1    
   114   59   60 1    
   115   59  114 1    
   116   59  115 1    
   117   60   61 1    
   118   61  116 1    
   119   61  117 1    
@<TRIPOS>SUBSTRUCTURE
     1 UNK         1 GROUP             0       ****    0 ROOT    
