@<TRIPOS>MOLECULE
3R8
117   119    1
SMALL
USER_CHARGES


@<TRIPOS>ATOM
      1 CA         17.9083  -28.0502  -41.1575 C.3       0 UNK        -0.2013 
      2 C          17.4480  -26.9214  -42.0606 C.2       0 UNK         0.4866 
      3 O          16.9046  -25.9306  -41.5708 O.2       0 UNK        -0.5176 
      4 N          17.6533  -27.0749  -43.3737 N.am      1 UNK        -0.4884 
      5 CA         17.2593  -26.1046  -44.3999 C.3       1 UNK         0.0853 
      6 C6         16.7184  -26.7965  -45.6845 C.3       10 UNK        -0.0849 
      7 S7         15.4422  -28.0635  -45.3291 S.3       10 UNK        -0.2776 
      8 C8         16.1266  -29.5839  -46.0748 C.3       10 UNK         0.0316 
      9 C9         17.3876  -30.0764  -45.3745 C.ar      10 UNK        -0.0863 
     10 C10        17.3118  -30.9347  -44.2703 C.ar      10 UNK        -0.1009 
     11 C11        18.4794  -31.3961  -43.6481 C.ar      10 UNK        -0.0712 
     12 C12        19.7241  -30.9659  -44.1160 C.ar      10 UNK        -0.0894 
     13 C13        19.8076  -30.1105  -45.2163 C.ar      10 UNK        -0.0745 
     14 C14        18.6409  -29.6912  -45.8552 C.ar      10 UNK        -0.0972 
     15 C15        21.1476  -29.5775  -45.6827 C.3       10 UNK         0.0209 
     16 S16        21.4807  -28.0442  -44.7828 S.3       10 UNK        -0.2568 
     17 C17        22.6535  -27.1603  -45.8680 C.3       10 UNK        -0.0983 
     18 CA         22.6016  -25.6256  -45.6470 C.3       3 UNK         0.0876 
     19 N          21.2720  -25.1077  -45.9828 N.am      3 UNK        -0.4424 
     20 C          20.9384  -23.8213  -46.1341 C.2       2 UNK         0.4918 
     21 O          21.7554  -22.9006  -46.1244 O.2       2 UNK        -0.4875 
     22 CA         19.4378  -23.4972  -46.3002 C.3       2 UNK         0.0481 
     23 CB         19.1370  -23.1195  -47.7598 C.3       2 UNK        -0.1831 
     24 N          18.4941  -24.5464  -45.8757 N.am      2 UNK        -0.4498 
     25 C          18.4134  -25.1024  -44.6553 C.2       1 UNK         0.5027 
     26 O          19.2190  -24.8484  -43.7545 O.2       1 UNK        -0.4969 
     27 C          23.0641  -25.2660  -44.2112 C.2       3 UNK         0.5005 
     28 O          24.2577  -25.3831  -43.9294 O.2       3 UNK        -0.5279 
     29 N          22.1177  -24.8906  -43.3311 N.am      4 UNK        -0.4463 
     30 CA         22.2574  -24.7352  -41.8780 C.3       4 UNK         0.0283 
     31 CB         23.2877  -23.6467  -41.5075 C.3       4 UNK        -0.1875 
     32 C          22.5203  -26.0917  -41.1965 C.2       4 UNK         0.4949 
     33 O          23.4832  -26.2384  -40.4422 O.2       4 UNK        -0.5039 
     34 N          21.6643  -27.0733  -41.5167 N.am      5 UNK        -0.4663 
     35 CA         21.6247  -28.4735  -41.0603 C.3       5 UNK         0.0242 
     36 CB         21.4563  -28.5644  -39.5319 C.3       5 UNK        -0.1982 
     37 C          22.7908  -29.3604  -41.5290 C.2       5 UNK         0.5017 
     38 O          22.5698  -30.5493  -41.7627 O.2       5 UNK        -0.5012 
     39 N          24.0017  -28.7936  -41.6323 N.am      6 UNK        -0.4439 
     40 CA         25.2472  -29.4080  -42.1181 C.3       6 UNK         0.0297 
     41 CB         25.1684  -29.6103  -43.6450 C.3       6 UNK        -0.2006 
     42 C          25.6540  -30.7000  -41.3756 C.2       6 UNK         0.4892 
     43 O          26.3029  -31.5656  -41.9647 O.2       6 UNK        -0.5089 
     44 N          25.2357  -30.8122  -40.1049 N.am      7 UNK        -0.4243 
     45 CA         25.3484  -31.9752  -39.2138 C.3       7 UNK         0.0196 
     46 CB         26.8268  -32.3090  -38.9199 C.3       7 UNK        -0.2007 
     47 C          24.5501  -33.2176  -39.6704 C.2       7 UNK         0.5020 
     48 O          24.7170  -34.2824  -39.0745 O.2       7 UNK        -0.5147 
     49 N          23.6803  -33.0794  -40.6825 N.am      8 UNK        -0.4734 
     50 CA         22.8251  -34.1587  -41.1881 C.3       8 UNK         0.0238 
     51 CB         22.5018  -33.8992  -42.6679 C.3       8 UNK        -0.1912 
     52 C          21.5306  -34.3100  -40.3727 C.2       8 UNK         0.5038 
     53 O          20.9789  -35.4098  -40.3177 O.2       8 UNK        -0.5046 
     54 N          21.0769  -33.2139  -39.7563 N.am      9 UNK        -0.4200 
     55 CA         19.8724  -33.1376  -38.9173 C.3       9 UNK         0.0839 
     56 C          20.0061  -32.1193  -37.7488 C.2       9 UNK         0.5513 
     57 N          21.2123  -31.7142  -37.3661 N.am      9 UNK        -0.7519 
     58 O          19.0109  -31.7067  -37.1590 O.2       9 UNK        -0.4960 
     59 C59        18.5696  -32.9869  -39.7527 C.3       10 UNK        -0.0876 
     60 S60        18.5762  -31.5503  -40.8816 S.3       10 UNK        -0.2414 
     61 C61        18.4098  -32.3801  -42.4898 C.3       10 UNK         0.0169 
     62 H62        17.0552  -28.5045  -40.6545 H         1 UNK         0.0903 
     63 H63        18.4166  -28.8254  -41.7278 H         1 UNK         0.0903 
     64 H64        18.5920  -27.6719  -40.3996 H         1 UNK         0.0903 
     65 H65        18.0940  -27.9168  -43.7186 H         1 UNK         0.3096 
     66 H66        16.4380  -25.5009  -44.0071 H         1 UNK         0.1121 
     67 H67        16.2523  -26.0596  -46.3408 H         1 UNK         0.0849 
     68 H68        17.5301  -27.2340  -46.2620 H         1 UNK         0.0849 
     69 H69        15.3639  -30.3632  -46.0381 H         1 UNK         0.0865 
     70 H70        16.3223  -29.4093  -47.1341 H         1 UNK         0.0865 
     71 H71        16.3453  -31.2529  -43.9034 H         1 UNK         0.1346 
     72 H72        20.6278  -31.2846  -43.6160 H         1 UNK         0.1412 
     73 H73        18.7157  -29.0433  -46.7172 H         1 UNK         0.1426 
     74 H74        21.1294  -29.3945  -46.7581 H         1 UNK         0.0716 
     75 H75        21.9450  -30.2978  -45.4927 H         1 UNK         0.0716 
     76 H76        22.4211  -27.3873  -46.9095 H         1 UNK         0.0695 
     77 H77        23.6596  -27.5445  -45.6976 H         1 UNK         0.0695 
     78 H78        23.3160  -25.1608  -46.3298 H         1 UNK         0.0983 
     79 H79        20.5331  -25.7944  -46.0003 H         1 UNK         0.3095 
     80 H80        19.2378  -22.6225  -45.6784 H         1 UNK         0.0454 
     81 H81        19.7938  -22.3178  -48.1012 H         1 UNK         0.0851 
     82 H82        18.1132  -22.7641  -47.8774 H         1 UNK         0.0851 
     83 H83        19.2803  -23.9654  -48.4332 H         1 UNK         0.0851 
     84 H84        17.8048  -24.8134  -46.5636 H         1 UNK         0.2976 
     85 H85        21.1592  -24.8398  -43.6685 H         1 UNK         0.3116 
     86 H86        21.2850  -24.3959  -41.5174 H         1 UNK         0.0646 
     87 H87        24.3059  -23.9378  -41.7659 H         1 UNK         0.0847 
     88 H88        23.0690  -22.7053  -42.0111 H         1 UNK         0.0847 
     89 H89        23.2737  -23.4521  -40.4345 H         1 UNK         0.0847 
     90 H90        20.9658  -26.8437  -42.2108 H         1 UNK         0.3040 
     91 H91        20.7337  -28.9047  -41.5174 H         1 UNK         0.1015 
     92 H92        21.2726  -29.5944  -39.2267 H         1 UNK         0.0786 
     93 H93        20.6122  -27.9705  -39.1839 H         1 UNK         0.0786 
     94 H94        22.3450  -28.2217  -39.0012 H         1 UNK         0.0786 
     95 H95        24.0646  -27.8208  -41.3405 H         1 UNK         0.3172 
     96 H96        26.0401  -28.6856  -41.9201 H         1 UNK         0.0595 
     97 H97        24.3929  -30.3270  -43.9183 H         1 UNK         0.0839 
     98 H98        26.1128  -29.9786  -44.0474 H         1 UNK         0.0839 
     99 H99        24.9513  -28.6706  -44.1502 H         1 UNK         0.0839 
    100 H100       24.7116  -30.0327  -39.7322 H         1 UNK         0.2998 
    101 H101       24.8936  -31.6671  -38.2712 H         1 UNK         0.0822 
    102 H102       26.9102  -33.0591  -38.1325 H         1 UNK         0.0787 
    103 H103       27.3738  -31.4282  -38.5836 H         1 UNK         0.0787 
    104 H104       27.3364  -32.7063  -39.7980 H         1 UNK         0.0787 
    105 H105       23.5665  -32.1690  -41.1193 H         1 UNK         0.3055 
    106 H106       23.3666  -35.1053  -41.1220 H         1 UNK         0.1106 
    107 H107       23.4103  -33.8348  -43.2670 H         1 UNK         0.0828 
    108 H108       21.8945  -34.7048  -43.0828 H         1 UNK         0.0828 
    109 H109       21.9471  -32.9715  -42.8010 H         1 UNK         0.0828 
    110 H110       21.5693  -32.3433  -39.8944 H         1 UNK         0.2931 
    111 H111       19.7903  -34.0926  -38.3950 H         1 UNK         0.0412 
    112 H112       21.2856  -31.0639  -36.5993 H         1 UNK         0.3472 
    113 H113       22.0441  -32.1102  -37.7699 H         1 UNK         0.3472 
    114 H114       18.4118  -33.8988  -40.3302 H         1 UNK         0.0970 
    115 H115       17.6972  -32.9115  -39.1014 H         1 UNK         0.0970 
    116 H116       19.2031  -33.1223  -42.5939 H         1 UNK         0.0612 
    117 H117       17.4668  -32.9283  -42.5152 H         1 UNK         0.0612 
@<TRIPOS>BOND
     1    1    2 1    
     2    1   62 1    
     3    1   63 1    
     4    1   64 1    
     5    2    3 2    
     6    2    4 am   BACKBONE|DICT|INTERRES
     7    4    5 1    
     8    4   65 1    
     9    5    6 1    
    10    5   25 1    
    11    5   66 1    
    12    6    7 1    
    13    6   67 1    
    14    6   68 1    
    15    7    8 1    
    16    8    9 1    
    17    8   69 1    
    18    8   70 1    
    19    9   10 ar   
    20    9   14 ar   
    21   10   11 ar   
    22   10   71 1    
    23   11   12 ar   
    24   11   61 1    
    25   12   13 ar   
    26   12   72 1    
    27   13   14 ar   
    28   13   15 1    
    29   14   73 1    
    30   15   16 1    
    31   15   74 1    
    32   15   75 1    
    33   16   17 1    
    34   17   18 1    
    35   17   76 1    
    36   17   77 1    
    37   18   19 1    
    38   18   27 1    
    39   18   78 1    
    40   19   20 am   BACKBONE|DICT|INTERRES
    41   19   79 1    
    42   20   21 2    
    43   20   22 1    
    44   22   23 1    
    45   22   24 1    
    46   22   80 1    
    47   23   81 1    
    48   23   82 1    
    49   23   83 1    
    50   24   25 am   BACKBONE|DICT|INTERRES
    51   24   84 1    
    52   25   26 2    
    53   27   28 2    
    54   27   29 am   BACKBONE|DICT|INTERRES
    55   29   30 1    
    56   29   85 1    
    57   30   31 1    
    58   30   32 1    
    59   30   86 1    
    60   31   87 1    
    61   31   88 1    
    62   31   89 1    
    63   32   33 2    
    64   32   34 am   BACKBONE|DICT|INTERRES
    65   34   35 1    
    66   34   90 1    
    67   35   36 1    
    68   35   37 1    
    69   35   91 1    
    70   36   92 1    
    71   36   93 1    
    72   36   94 1    
    73   37   38 2    
    74   37   39 am   BACKBONE|DICT|INTERRES
    75   39   40 1    
    76   39   95 1    
    77   40   41 1    
    78   40   42 1    
    79   40   96 1    
    80   41   97 1    
    81   41   98 1    
    82   41   99 1    
    83   42   43 2    
    84   42   44 am   BACKBONE|DICT|INTERRES
    85   44   45 1    
    86   44  100 1    
    87   45   46 1    
    88   45   47 1    
    89   45  101 1    
    90   46  102 1    
    91   46  103 1    
    92   46  104 1    
    93   47   48 2    
    94   47   49 am   BACKBONE|DICT|INTERRES
    95   49   50 1    
    96   49  105 1    
    97   50   51 1    
    98   50   52 1    
    99   50  106 1    
   100   51  107 1    
   101   51  108 1    
   102   51  109 1    
   103   52   53 2    
   104   52   54 am   BACKBONE|DICT|INTERRES
   105   54   55 1    
   106   54  110 1    
   107   55   56 1    
   108   55   59 1    
   109   55  111 1    
   110   56   57 am   BACKBONE|DICT|INTERRES
   111   56   58 2    
   112   57  112 1    
   113   57  113 1    
   114   59   60 1    
   115   59  114 1    
   116   59  115 1    
   117   60   61 1    
   118   61  116 1    
   119   61  117 1    
@<TRIPOS>SUBSTRUCTURE
     1 UNK         1 GROUP             0       ****    0 ROOT    
