@<TRIPOS>MOLECULE
3R8
117   119    1
SMALL
USER_CHARGES


@<TRIPOS>ATOM
      1 CA         14.2517  -22.3914  -43.4400 C.3       0 UNK        -0.2013 
      2 C          15.4247  -23.0668  -44.1347 C.2       0 UNK         0.4866 
      3 O          15.6999  -22.7717  -45.2984 O.2       0 UNK        -0.5176 
      4 N          16.1117  -23.9777  -43.4339 N.am      1 UNK        -0.4884 
      5 CA         17.2943  -24.7011  -43.9230 C.3       1 UNK         0.0853 
      6 C6         17.5636  -25.9777  -43.0849 C.3       10 UNK        -0.0849 
      7 S7         16.0922  -27.0417  -42.8844 S.3       10 UNK        -0.2776 
      8 C8         16.1382  -28.0899  -44.3798 C.3       10 UNK         0.0316 
      9 C9         17.2597  -29.1257  -44.3847 C.ar      10 UNK        -0.0863 
     10 C10        17.5771  -29.8505  -43.2296 C.ar      10 UNK        -0.1009 
     11 C11        18.5941  -30.8079  -43.2449 C.ar      10 UNK        -0.0712 
     12 C12        19.2694  -31.0705  -44.4380 C.ar      10 UNK        -0.0894 
     13 C13        18.9559  -30.3676  -45.6046 C.ar      10 UNK        -0.0745 
     14 C14        17.9522  -29.3948  -45.5711 C.ar      10 UNK        -0.0972 
     15 C15        19.6921  -30.6780  -46.9019 C.3       10 UNK         0.0209 
     16 S16        20.9923  -29.4575  -47.2808 S.3       10 UNK        -0.2568 
     17 C17        22.0538  -29.5561  -45.7898 C.3       10 UNK        -0.0983 
     18 CA         22.0135  -28.3205  -44.8351 C.3       3 UNK         0.0876 
     19 N          21.0149  -27.3111  -45.2224 N.am      3 UNK        -0.4424 
     20 C          20.9145  -26.0573  -44.7645 C.2       2 UNK         0.4918 
     21 O          21.5160  -25.6456  -43.7709 O.2       2 UNK        -0.4875 
     22 CA         20.0378  -25.0861  -45.5772 C.3       2 UNK         0.0481 
     23 CB         18.9623  -25.7473  -46.4665 C.3       2 UNK        -0.1831 
     24 N          19.5775  -23.9558  -44.7579 N.am      2 UNK        -0.4498 
     25 C          18.5283  -23.7595  -43.9423 C.2       1 UNK         0.5027 
     26 O          18.5336  -22.7918  -43.1783 O.2       1 UNK        -0.4969 
     27 C          22.0073  -28.7341  -43.3439 C.2       3 UNK         0.5005 
     28 O          22.9787  -29.3392  -42.8845 O.2       3 UNK        -0.5279 
     29 N          20.9674  -28.3528  -42.5870 N.am      4 UNK        -0.4463 
     30 CA         20.9282  -28.4208  -41.1215 C.3       4 UNK         0.0283 
     31 CB         19.5608  -27.9453  -40.6099 C.3       4 UNK        -0.1875 
     32 C          22.0449  -27.6005  -40.4497 C.2       4 UNK         0.4949 
     33 O          22.5230  -27.9994  -39.3894 O.2       4 UNK        -0.5039 
     34 N          22.4869  -26.5107  -41.0975 N.am      5 UNK        -0.4663 
     35 CA         23.6292  -25.6943  -40.6715 C.3       5 UNK         0.0242 
     36 CB         23.6704  -24.4074  -41.5105 C.3       5 UNK        -0.1982 
     37 C          24.9779  -26.4353  -40.7557 C.2       5 UNK         0.5017 
     38 O          25.9030  -26.0815  -40.0247 O.2       5 UNK        -0.5012 
     39 N          25.0572  -27.4571  -41.6200 N.am      6 UNK        -0.4439 
     40 CA         26.1919  -28.3745  -41.7439 C.3       6 UNK         0.0297 
     41 CB         26.3846  -28.7229  -43.2309 C.3       6 UNK        -0.2006 
     42 C          26.0004  -29.6536  -40.9040 C.2       6 UNK         0.4892 
     43 O          26.8767  -30.5182  -40.9358 O.2       6 UNK        -0.5089 
     44 N          24.8672  -29.7625  -40.1892 N.am      7 UNK        -0.4243 
     45 CA         24.4161  -30.9034  -39.3843 C.3       7 UNK         0.0196 
     46 CB         25.3341  -31.1121  -38.1612 C.3       7 UNK        -0.2007 
     47 C          24.2125  -32.1888  -40.2100 C.2       7 UNK         0.5020 
     48 O          24.4223  -33.2872  -39.6925 O.2       7 UNK        -0.5147 
     49 N          23.7884  -32.0418  -41.4754 N.am      8 UNK        -0.4734 
     50 CA         23.6291  -33.1428  -42.4363 C.3       8 UNK         0.0238 
     51 CB         23.2806  -32.5577  -43.8107 C.3       8 UNK        -0.1912 
     52 C          22.5826  -34.1989  -42.0348 C.2       8 UNK         0.5038 
     53 O          22.7092  -35.3554  -42.4389 O.2       8 UNK        -0.5046 
     54 N          21.5839  -33.7829  -41.2476 N.am      9 UNK        -0.4200 
     55 CA         20.5507  -34.6500  -40.6619 C.3       9 UNK         0.0839 
     56 C          21.0082  -35.3841  -39.3661 C.2       9 UNK         0.5513 
     57 N          22.2097  -35.1570  -38.8458 N.am      9 UNK        -0.7519 
     58 O          20.2564  -36.1895  -38.8233 O.2       9 UNK        -0.4960 
     59 C59        19.2187  -33.8826  -40.4421 C.3       10 UNK        -0.0876 
     60 S60        18.4882  -33.2817  -42.0042 S.3       10 UNK        -0.2414 
     61 C61        18.9920  -31.5362  -41.9710 C.3       10 UNK         0.0169 
     62 H62        14.4138  -21.3149  -43.3922 H         1 UNK         0.0903 
     63 H63        13.3315  -22.5737  -43.9944 H         1 UNK         0.0903 
     64 H64        14.1131  -22.7589  -42.4233 H         1 UNK         0.0903 
     65 H65        15.8471  -24.1770  -42.4798 H         1 UNK         0.3096 
     66 H66        17.0524  -24.9883  -44.9431 H         1 UNK         0.1121 
     67 H67        17.8944  -25.6961  -42.0842 H         1 UNK         0.0849 
     68 H68        18.3684  -26.5729  -43.5132 H         1 UNK         0.0849 
     69 H69        15.1884  -28.6209  -44.4544 H         1 UNK         0.0865 
     70 H70        16.1948  -27.4473  -45.2592 H         1 UNK         0.0865 
     71 H71        17.0366  -29.6627  -42.3123 H         1 UNK         0.1346 
     72 H72        20.0401  -31.8278  -44.4539 H         1 UNK         0.1412 
     73 H73        17.7026  -28.8597  -46.4774 H         1 UNK         0.1426 
     74 H74        18.9797  -30.7016  -47.7279 H         1 UNK         0.0716 
     75 H75        20.1390  -31.6727  -46.8602 H         1 UNK         0.0716 
     76 H76        23.0787  -29.7062  -46.1331 H         1 UNK         0.0695 
     77 H77        21.8103  -30.4787  -45.2690 H         1 UNK         0.0695 
     78 H78        22.9716  -27.8106  -44.9597 H         1 UNK         0.0983 
     79 H79        20.4781  -27.5722  -46.0382 H         1 UNK         0.3095 
     80 H80        20.7369  -24.6198  -46.2728 H         1 UNK         0.0454 
     81 H81        18.3010  -25.0062  -46.9159 H         1 UNK         0.0851 
     82 H82        18.3590  -26.4745  -45.9270 H         1 UNK         0.0851 
     83 H83        19.4263  -26.2835  -47.2955 H         1 UNK         0.0851 
     84 H84        20.2970  -23.2521  -44.6690 H         1 UNK         0.2976 
     85 H85        20.2031  -27.8818  -43.0461 H         1 UNK         0.3116 
     86 H86        21.0635  -29.4652  -40.8343 H         1 UNK         0.0646 
     87 H87        18.7398  -28.4871  -41.0747 H         1 UNK         0.0847 
     88 H88        19.4120  -26.8818  -40.7943 H         1 UNK         0.0847 
     89 H89        19.4772  -28.0984  -39.5331 H         1 UNK         0.0847 
     90 H90        22.0471  -26.2471  -41.9757 H         1 UNK         0.3040 
     91 H91        23.4743  -25.4191  -39.6257 H         1 UNK         0.1015 
     92 H92        24.4802  -23.7533  -41.1840 H         1 UNK         0.0786 
     93 H93        22.7416  -23.8438  -41.4193 H         1 UNK         0.0786 
     94 H94        23.8293  -24.6208  -42.5684 H         1 UNK         0.0786 
     95 H95        24.2319  -27.7050  -42.1519 H         1 UNK         0.3172 
     96 H96        27.1026  -27.8866  -41.3908 H         1 UNK         0.0595 
     97 H97        25.5329  -29.2714  -43.6342 H         1 UNK         0.0839 
     98 H98        27.2676  -29.3469  -43.3746 H         1 UNK         0.0839 
     99 H99        26.5235  -27.8260  -43.8346 H         1 UNK         0.0839 
    100 H100       24.2207  -28.9831  -40.2110 H         1 UNK         0.2998 
    101 H101       23.4284  -30.6336  -39.0077 H         1 UNK         0.0822 
    102 H102       25.4478  -30.1911  -37.5896 H         1 UNK         0.0787 
    103 H103       24.9213  -31.8621  -37.4853 H         1 UNK         0.0787 
    104 H104       26.3282  -31.4515  -38.4536 H         1 UNK         0.0787 
    105 H105       23.6326  -31.1038  -41.8314 H         1 UNK         0.3055 
    106 H106       24.5915  -33.6539  -42.5115 H         1 UNK         0.1106 
    107 H107       22.3125  -32.0610  -43.7808 H         1 UNK         0.0828 
    108 H108       23.2259  -33.3390  -44.5700 H         1 UNK         0.0828 
    109 H109       24.0248  -31.8323  -44.1406 H         1 UNK         0.0828 
    110 H110       21.5864  -32.8207  -40.9484 H         1 UNK         0.2931 
    111 H111       20.3411  -35.4457  -41.3796 H         1 UNK         0.0412 
    112 H112       22.4797  -35.6506  -38.0098 H         1 UNK         0.3472 
    113 H113       22.8642  -34.5150  -39.2789 H         1 UNK         0.3472 
    114 H114       18.4762  -34.5353  -39.9789 H         1 UNK         0.0970 
    115 H115       19.3586  -33.0524  -39.7476 H         1 UNK         0.0970 
    116 H116       18.5535  -31.0530  -41.0966 H         1 UNK         0.0612 
    117 H117       20.0738  -31.4713  -41.8534 H         1 UNK         0.0612 
@<TRIPOS>BOND
     1    1    2 1    
     2    1   62 1    
     3    1   63 1    
     4    1   64 1    
     5    2    3 2    
     6    2    4 am   BACKBONE|DICT|INTERRES
     7    4    5 1    
     8    4   65 1    
     9    5    6 1    
    10    5   25 1    
    11    5   66 1    
    12    6    7 1    
    13    6   67 1    
    14    6   68 1    
    15    7    8 1    
    16    8    9 1    
    17    8   69 1    
    18    8   70 1    
    19    9   10 ar   
    20    9   14 ar   
    21   10   11 ar   
    22   10   71 1    
    23   11   12 ar   
    24   11   61 1    
    25   12   13 ar   
    26   12   72 1    
    27   13   14 ar   
    28   13   15 1    
    29   14   73 1    
    30   15   16 1    
    31   15   74 1    
    32   15   75 1    
    33   16   17 1    
    34   17   18 1    
    35   17   76 1    
    36   17   77 1    
    37   18   19 1    
    38   18   27 1    
    39   18   78 1    
    40   19   20 am   BACKBONE|DICT|INTERRES
    41   19   79 1    
    42   20   21 2    
    43   20   22 1    
    44   22   23 1    
    45   22   24 1    
    46   22   80 1    
    47   23   81 1    
    48   23   82 1    
    49   23   83 1    
    50   24   25 am   BACKBONE|DICT|INTERRES
    51   24   84 1    
    52   25   26 2    
    53   27   28 2    
    54   27   29 am   BACKBONE|DICT|INTERRES
    55   29   30 1    
    56   29   85 1    
    57   30   31 1    
    58   30   32 1    
    59   30   86 1    
    60   31   87 1    
    61   31   88 1    
    62   31   89 1    
    63   32   33 2    
    64   32   34 am   BACKBONE|DICT|INTERRES
    65   34   35 1    
    66   34   90 1    
    67   35   36 1    
    68   35   37 1    
    69   35   91 1    
    70   36   92 1    
    71   36   93 1    
    72   36   94 1    
    73   37   38 2    
    74   37   39 am   BACKBONE|DICT|INTERRES
    75   39   40 1    
    76   39   95 1    
    77   40   41 1    
    78   40   42 1    
    79   40   96 1    
    80   41   97 1    
    81   41   98 1    
    82   41   99 1    
    83   42   43 2    
    84   42   44 am   BACKBONE|DICT|INTERRES
    85   44   45 1    
    86   44  100 1    
    87   45   46 1    
    88   45   47 1    
    89   45  101 1    
    90   46  102 1    
    91   46  103 1    
    92   46  104 1    
    93   47   48 2    
    94   47   49 am   BACKBONE|DICT|INTERRES
    95   49   50 1    
    96   49  105 1    
    97   50   51 1    
    98   50   52 1    
    99   50  106 1    
   100   51  107 1    
   101   51  108 1    
   102   51  109 1    
   103   52   53 2    
   104   52   54 am   BACKBONE|DICT|INTERRES
   105   54   55 1    
   106   54  110 1    
   107   55   56 1    
   108   55   59 1    
   109   55  111 1    
   110   56   57 am   BACKBONE|DICT|INTERRES
   111   56   58 2    
   112   57  112 1    
   113   57  113 1    
   114   59   60 1    
   115   59  114 1    
   116   59  115 1    
   117   60   61 1    
   118   61  116 1    
   119   61  117 1    
@<TRIPOS>SUBSTRUCTURE
     1 UNK         1 GROUP             0       ****    0 ROOT    
