@<TRIPOS>MOLECULE
3R8
117   119    1
SMALL
USER_CHARGES


@<TRIPOS>ATOM
      1 CA         17.0301  -26.2334  -39.2836 C.3       0 UNK        -0.2013 
      2 C          16.8595  -25.8605  -40.7486 C.2       0 UNK         0.4866 
      3 O          16.5169  -24.7171  -41.0531 O.2       0 UNK        -0.5176 
      4 N          17.0847  -26.8164  -41.6569 N.am      1 UNK        -0.4884 
      5 CA         17.0215  -26.6164  -43.1079 C.3       1 UNK         0.0853 
      6 C6         16.8996  -27.9544  -43.8724 C.3       10 UNK        -0.0849 
      7 S7         15.3958  -28.8973  -43.4461 S.3       10 UNK        -0.2776 
      8 C8         15.1730  -29.9254  -44.9399 C.3       10 UNK         0.0316 
      9 C9         16.4694  -30.6029  -45.3652 C.ar      10 UNK        -0.0863 
     10 C10        17.0834  -31.5342  -44.5236 C.ar      10 UNK        -0.1009 
     11 C11        18.3211  -32.0878  -44.8616 C.ar      10 UNK        -0.0712 
     12 C12        18.9278  -31.7328  -46.0700 C.ar      10 UNK        -0.0894 
     13 C13        18.3196  -30.8079  -46.9238 C.ar      10 UNK        -0.0745 
     14 C14        17.0851  -30.2545  -46.5716 C.ar      10 UNK        -0.0972 
     15 C15        19.0136  -30.3791  -48.2091 C.3       10 UNK         0.0209 
     16 S16        19.5783  -28.6468  -48.1395 S.3       10 UNK        -0.2568 
     17 C17        20.7764  -28.7007  -46.7638 C.3       10 UNK        -0.0983 
     18 CA         21.3156  -27.2978  -46.3900 C.3       3 UNK         0.0876 
     19 N          20.2328  -26.3686  -46.0482 N.am      3 UNK        -0.4424 
     20 C          20.3724  -25.0517  -45.8414 C.2       2 UNK         0.4918 
     21 O          21.4295  -24.4420  -46.0044 O.2       2 UNK        -0.4875 
     22 CA         19.1311  -24.2793  -45.3509 C.3       2 UNK         0.0481 
     23 CB         18.4985  -23.4983  -46.5140 C.3       2 UNK        -0.1831 
     24 N          18.0969  -25.1010  -44.7054 N.am      2 UNK        -0.4498 
     25 C          18.2635  -25.8502  -43.6046 C.2       1 UNK         0.5027 
     26 O          19.3488  -26.0000  -43.0359 O.2       1 UNK        -0.4969 
     27 C          22.3654  -27.4187  -45.2628 C.2       3 UNK         0.5005 
     28 O          23.5405  -27.6408  -45.5614 O.2       3 UNK        -0.5279 
     29 N          21.9262  -27.2612  -44.0018 N.am      4 UNK        -0.4463 
     30 CA         22.6800  -27.3050  -42.7427 C.3       4 UNK         0.0283 
     31 CB         23.7008  -26.1541  -42.6567 C.3       4 UNK        -0.1875 
     32 C          23.3361  -28.6599  -42.4289 C.2       4 UNK         0.4949 
     33 O          23.0301  -29.2398  -41.3883 O.2       4 UNK        -0.5039 
     34 N          24.2312  -29.1252  -43.3113 N.am      5 UNK        -0.4663 
     35 CA         25.0179  -30.3643  -43.2294 C.3       5 UNK         0.0242 
     36 CB         24.1046  -31.5870  -43.4462 C.3       5 UNK        -0.1982 
     37 C          25.8374  -30.4632  -41.9277 C.2       5 UNK         0.5017 
     38 O          25.7631  -31.4719  -41.2263 O.2       5 UNK        -0.5012 
     39 N          26.5602  -29.3810  -41.5982 N.am      6 UNK        -0.4439 
     40 CA         27.3072  -29.1792  -40.3456 C.3       6 UNK         0.0297 
     41 CB         28.5180  -30.1338  -40.2624 C.3       6 UNK        -0.2006 
     42 C          26.3994  -29.2454  -39.0974 C.2       6 UNK         0.4892 
     43 O          26.7882  -29.8099  -38.0740 O.2       6 UNK        -0.5089 
     44 N          25.1950  -28.6727  -39.2365 N.am      7 UNK        -0.4243 
     45 CA         24.0838  -28.6147  -38.2802 C.3       7 UNK         0.0196 
     46 CB         24.5100  -27.9725  -36.9427 C.3       7 UNK        -0.2007 
     47 C          23.3331  -29.9460  -38.0788 C.2       7 UNK         0.5020 
     48 O          22.4215  -29.9851  -37.2514 O.2       7 UNK        -0.5147 
     49 N          23.6592  -30.9981  -38.8464 N.am      8 UNK        -0.4734 
     50 CA         22.9513  -32.2847  -38.8102 C.3       8 UNK         0.0238 
     51 CB         23.7621  -33.3524  -39.5604 C.3       8 UNK        -0.1912 
     52 C          21.5196  -32.2074  -39.3712 C.2       8 UNK         0.5038 
     53 O          20.6638  -32.9735  -38.9262 O.2       8 UNK        -0.5046 
     54 N          21.2848  -31.2821  -40.3096 N.am      9 UNK        -0.4200 
     55 CA         19.9653  -30.9599  -40.8734 C.3       9 UNK         0.0839 
     56 C          19.3081  -29.7215  -40.1963 C.2       9 UNK         0.5513 
     57 N          19.8450  -29.1887  -39.1038 N.am      9 UNK        -0.7519 
     58 O          18.2803  -29.2380  -40.6629 O.2       9 UNK        -0.4960 
     59 C59        20.0217  -30.8080  -42.4158 C.3       10 UNK        -0.0876 
     60 S60        20.5804  -32.3294  -43.2608 S.3       10 UNK        -0.2414 
     61 C61        19.0231  -33.0318  -43.8963 C.3       10 UNK         0.0169 
     62 H62        16.1772  -25.8820  -38.7036 H         1 UNK         0.0903 
     63 H63        17.1062  -27.3116  -39.1464 H         1 UNK         0.0903 
     64 H64        17.9311  -25.7712  -38.8815 H         1 UNK         0.0903 
     65 H65        17.4112  -27.7313  -41.3505 H         1 UNK         0.3096 
     66 H66        16.1382  -26.0118  -43.3268 H         1 UNK         0.1121 
     67 H67        16.8879  -27.7718  -44.9488 H         1 UNK         0.0849 
     68 H68        17.7671  -28.5885  -43.6782 H         1 UNK         0.0849 
     69 H69        14.4146  -30.6844  -44.7430 H         1 UNK         0.0865 
     70 H70        14.7801  -29.3005  -45.7435 H         1 UNK         0.0865 
     71 H71        16.6169  -31.7886  -43.5814 H         1 UNK         0.1346 
     72 H72        19.8918  -32.1518  -46.3246 H         1 UNK         0.1412 
     73 H73        16.6251  -29.5244  -47.2239 H         1 UNK         0.1426 
     74 H74        18.3221  -30.4926  -49.0451 H         1 UNK         0.0716 
     75 H75        19.8665  -31.0241  -48.4266 H         1 UNK         0.0716 
     76 H76        21.5948  -29.3624  -47.0549 H         1 UNK         0.0695 
     77 H77        20.2990  -29.1621  -45.8970 H         1 UNK         0.0695 
     78 H78        21.8320  -26.8882  -47.2610 H         1 UNK         0.0983 
     79 H79        19.3164  -26.7759  -45.9436 H         1 UNK         0.3095 
     80 H80        19.4784  -23.5585  -44.6081 H         1 UNK         0.0454 
     81 H81        19.2329  -22.8510  -46.9958 H         1 UNK         0.0851 
     82 H82        17.6860  -22.8583  -46.1697 H         1 UNK         0.0851 
     83 H83        18.1017  -24.1654  -47.2803 H         1 UNK         0.0851 
     84 H84        17.1763  -25.0526  -45.1191 H         1 UNK         0.2976 
     85 H85        20.9438  -27.0367  -43.8796 H         1 UNK         0.3116 
     86 H86        21.9382  -27.1340  -41.9603 H         1 UNK         0.0646 
     87 H87        24.4731  -26.2283  -43.4227 H         1 UNK         0.0847 
     88 H88        23.2114  -25.1869  -42.7726 H         1 UNK         0.0847 
     89 H89        24.2022  -26.1475  -41.6881 H         1 UNK         0.0847 
     90 H90        24.3357  -28.5822  -44.1670 H         1 UNK         0.3040 
     91 H91        25.7381  -30.3376  -44.0486 H         1 UNK         0.1015 
     92 H92        24.6866  -32.5076  -43.5025 H         1 UNK         0.0786 
     93 H93        23.5383  -31.5023  -44.3736 H         1 UNK         0.0786 
     94 H94        23.3930  -31.7025  -42.6287 H         1 UNK         0.0786 
     95 H95        26.5500  -28.5986  -42.2386 H         1 UNK         0.3172 
     96 H96        27.6962  -28.1605  -40.3819 H         1 UNK         0.0595 
     97 H97        28.2092  -31.1745  -40.1600 H         1 UNK         0.0839 
     98 H98        29.1434  -29.8964  -39.4009 H         1 UNK         0.0839 
     99 H99        29.1472  -30.0560  -41.1489 H         1 UNK         0.0839 
    100 H100       24.9743  -28.3016  -40.1496 H         1 UNK         0.2998 
    101 H101       23.3533  -27.9454  -38.7374 H         1 UNK         0.0822 
    102 H102       23.6423  -27.7685  -36.3142 H         1 UNK         0.0787 
    103 H103       25.0222  -27.0237  -37.1020 H         1 UNK         0.0787 
    104 H104       25.1731  -28.6226  -36.3716 H         1 UNK         0.0787 
    105 H105       24.3967  -30.8992  -39.5346 H         1 UNK         0.3055 
    106 H106       22.8744  -32.5921  -37.7648 H         1 UNK         0.1106 
    107 H107       24.7838  -33.4161  -39.1857 H         1 UNK         0.0828 
    108 H108       23.3095  -34.3377  -39.4414 H         1 UNK         0.0828 
    109 H109       23.8080  -33.1464  -40.6300 H         1 UNK         0.0828 
    110 H110       22.0428  -30.6701  -40.6012 H         1 UNK         0.2931 
    111 H111       19.2813  -31.7850  -40.6674 H         1 UNK         0.0412 
    112 H112       19.4020  -28.3929  -38.6753 H         1 UNK         0.3472 
    113 H113       20.6670  -29.5947  -38.6801 H         1 UNK         0.3472 
    114 H114       20.6960  -29.9978  -42.6937 H         1 UNK         0.0970 
    115 H115       19.0457  -30.5202  -42.8052 H         1 UNK         0.0970 
    116 H116       19.2409  -33.9703  -44.4074 H         1 UNK         0.0612 
    117 H117       18.3784  -33.2807  -43.0519 H         1 UNK         0.0612 
@<TRIPOS>BOND
     1    1    2 1    
     2    1   62 1    
     3    1   63 1    
     4    1   64 1    
     5    2    3 2    
     6    2    4 am   BACKBONE|DICT|INTERRES
     7    4    5 1    
     8    4   65 1    
     9    5    6 1    
    10    5   25 1    
    11    5   66 1    
    12    6    7 1    
    13    6   67 1    
    14    6   68 1    
    15    7    8 1    
    16    8    9 1    
    17    8   69 1    
    18    8   70 1    
    19    9   10 ar   
    20    9   14 ar   
    21   10   11 ar   
    22   10   71 1    
    23   11   12 ar   
    24   11   61 1    
    25   12   13 ar   
    26   12   72 1    
    27   13   14 ar   
    28   13   15 1    
    29   14   73 1    
    30   15   16 1    
    31   15   74 1    
    32   15   75 1    
    33   16   17 1    
    34   17   18 1    
    35   17   76 1    
    36   17   77 1    
    37   18   19 1    
    38   18   27 1    
    39   18   78 1    
    40   19   20 am   BACKBONE|DICT|INTERRES
    41   19   79 1    
    42   20   21 2    
    43   20   22 1    
    44   22   23 1    
    45   22   24 1    
    46   22   80 1    
    47   23   81 1    
    48   23   82 1    
    49   23   83 1    
    50   24   25 am   BACKBONE|DICT|INTERRES
    51   24   84 1    
    52   25   26 2    
    53   27   28 2    
    54   27   29 am   BACKBONE|DICT|INTERRES
    55   29   30 1    
    56   29   85 1    
    57   30   31 1    
    58   30   32 1    
    59   30   86 1    
    60   31   87 1    
    61   31   88 1    
    62   31   89 1    
    63   32   33 2    
    64   32   34 am   BACKBONE|DICT|INTERRES
    65   34   35 1    
    66   34   90 1    
    67   35   36 1    
    68   35   37 1    
    69   35   91 1    
    70   36   92 1    
    71   36   93 1    
    72   36   94 1    
    73   37   38 2    
    74   37   39 am   BACKBONE|DICT|INTERRES
    75   39   40 1    
    76   39   95 1    
    77   40   41 1    
    78   40   42 1    
    79   40   96 1    
    80   41   97 1    
    81   41   98 1    
    82   41   99 1    
    83   42   43 2    
    84   42   44 am   BACKBONE|DICT|INTERRES
    85   44   45 1    
    86   44  100 1    
    87   45   46 1    
    88   45   47 1    
    89   45  101 1    
    90   46  102 1    
    91   46  103 1    
    92   46  104 1    
    93   47   48 2    
    94   47   49 am   BACKBONE|DICT|INTERRES
    95   49   50 1    
    96   49  105 1    
    97   50   51 1    
    98   50   52 1    
    99   50  106 1    
   100   51  107 1    
   101   51  108 1    
   102   51  109 1    
   103   52   53 2    
   104   52   54 am   BACKBONE|DICT|INTERRES
   105   54   55 1    
   106   54  110 1    
   107   55   56 1    
   108   55   59 1    
   109   55  111 1    
   110   56   57 am   BACKBONE|DICT|INTERRES
   111   56   58 2    
   112   57  112 1    
   113   57  113 1    
   114   59   60 1    
   115   59  114 1    
   116   59  115 1    
   117   60   61 1    
   118   61  116 1    
   119   61  117 1    
@<TRIPOS>SUBSTRUCTURE
     1 UNK         1 GROUP             0       ****    0 ROOT    
