@<TRIPOS>MOLECULE
3R8
117   119    1
SMALL
USER_CHARGES


@<TRIPOS>ATOM
      1 CA         13.2822  -21.9651  -46.1141 C.3       0 UNK        -0.2013 
      2 C          14.2387  -23.0024  -46.6835 C.2       0 UNK         0.4866 
      3 O          14.6423  -22.8926  -47.8420 O.2       0 UNK        -0.5176 
      4 N          14.5986  -24.0132  -45.8823 N.am      1 UNK        -0.4884 
      5 CA         15.5643  -25.0561  -46.2417 C.3       1 UNK         0.0853 
      6 C6         15.4410  -26.2778  -45.2949 C.3       10 UNK        -0.0849 
      7 S7         16.1137  -27.8074  -46.0295 S.3       10 UNK        -0.2776 
      8 C8         15.8394  -29.0056  -44.6853 C.3       10 UNK         0.0316 
      9 C9         17.0217  -29.0756  -43.7276 C.ar      10 UNK        -0.0863 
     10 C10        18.0175  -30.0409  -43.9127 C.ar      10 UNK        -0.1009 
     11 C11        19.0836  -30.1468  -43.0138 C.ar      10 UNK        -0.0712 
     12 C12        19.1553  -29.2683  -41.9303 C.ar      10 UNK        -0.0894 
     13 C13        18.1810  -28.2824  -41.7476 C.ar      10 UNK        -0.0745 
     14 C14        17.1094  -28.1990  -42.6419 C.ar      10 UNK        -0.0972 
     15 C15        18.2978  -27.2980  -40.5930 C.3       10 UNK         0.0209 
     16 S16        19.8039  -26.2799  -40.7202 S.3       10 UNK        -0.2568 
     17 C17        19.5142  -25.3503  -42.2689 C.3       10 UNK        -0.0983 
     18 CA         20.1229  -26.0105  -43.5347 C.3       3 UNK         0.0876 
     19 N          19.7345  -25.2846  -44.7423 N.am      3 UNK        -0.4424 
     20 C          19.9432  -25.6939  -45.9997 C.2       2 UNK         0.4918 
     21 O          20.5316  -26.7340  -46.3005 O.2       2 UNK        -0.4875 
     22 CA         19.3076  -24.8211  -47.0976 C.3       2 UNK         0.0481 
     23 CB         19.8714  -25.1274  -48.4972 C.3       2 UNK        -0.1831 
     24 N          17.8596  -25.0328  -47.1072 N.am      2 UNK        -0.4498 
     25 C          17.0013  -24.4958  -46.2304 C.2       1 UNK         0.5027 
     26 O          17.3236  -23.6464  -45.3935 O.2       1 UNK        -0.4969 
     27 C          21.6530  -26.1814  -43.4374 C.2       3 UNK         0.5005 
     28 O          22.3960  -25.2103  -43.6034 O.2       3 UNK        -0.5279 
     29 N          22.0762  -27.4138  -43.1407 N.am      4 UNK        -0.4463 
     30 CA         23.4592  -27.8126  -42.9021 C.3       4 UNK         0.0283 
     31 CB         24.1396  -28.1883  -44.2327 C.3       4 UNK        -0.1875 
     32 C          23.4592  -28.9549  -41.8784 C.2       4 UNK         0.4949 
     33 O          24.0564  -30.0042  -42.1189 O.2       4 UNK        -0.5039 
     34 N          22.7497  -28.7480  -40.7577 N.am      5 UNK        -0.4663 
     35 CA         22.5426  -29.7426  -39.6976 C.3       5 UNK         0.0242 
     36 CB         21.6390  -29.1597  -38.6000 C.3       5 UNK        -0.1982 
     37 C          23.8461  -30.2878  -39.0950 C.2       5 UNK         0.5017 
     38 O          23.9571  -31.4963  -38.8950 O.2       5 UNK        -0.5012 
     39 N          24.8309  -29.4035  -38.8906 N.am      6 UNK        -0.4439 
     40 CA         26.1663  -29.7394  -38.3860 C.3       6 UNK         0.0297 
     41 CB         26.9471  -28.4400  -38.1299 C.3       6 UNK        -0.2006 
     42 C          26.9769  -30.6795  -39.3012 C.2       6 UNK         0.4892 
     43 O          27.9014  -31.3307  -38.8130 O.2       6 UNK        -0.5089 
     44 N          26.6282  -30.7334  -40.5940 N.am      7 UNK        -0.4243 
     45 CA         27.2725  -31.5788  -41.5973 C.3       7 UNK         0.0196 
     46 CB         27.4813  -30.7442  -42.8730 C.3       7 UNK        -0.2007 
     47 C          26.4608  -32.8453  -41.9209 C.2       7 UNK         0.5020 
     48 O          26.9903  -33.7127  -42.6176 O.2       7 UNK        -0.5147 
     49 N          25.2057  -32.9437  -41.4578 N.am      8 UNK        -0.4734 
     50 CA         24.2880  -34.0169  -41.8393 C.3       8 UNK         0.0238 
     51 CB         23.7199  -33.7562  -43.2532 C.3       8 UNK        -0.1912 
     52 C          23.1834  -34.2240  -40.7954 C.2       8 UNK         0.5038 
     53 O          23.2710  -35.1628  -40.0035 O.2       8 UNK        -0.5046 
     54 N          22.1380  -33.3907  -40.8695 N.am      9 UNK        -0.4200 
     55 CA         20.8285  -33.6063  -40.2277 C.3       9 UNK         0.0839 
     56 C          20.7861  -33.5567  -38.6726 C.2       9 UNK         0.5513 
     57 N          21.8063  -33.0699  -37.9817 N.am      9 UNK        -0.7519 
     58 O          19.7975  -33.9792  -38.0787 O.2       9 UNK        -0.4960 
     59 C59        19.7322  -32.6933  -40.8400 C.3       10 UNK        -0.0876 
     60 S60        19.6132  -32.8454  -42.6580 S.3       10 UNK        -0.2414 
     61 C61        20.1595  -31.2031  -43.2229 C.3       10 UNK         0.0169 
     62 H62        12.3752  -21.9202  -46.7164 H         1 UNK         0.0903 
     63 H63        12.9962  -22.1932  -45.0875 H         1 UNK         0.0903 
     64 H64        13.7480  -20.9801  -46.1252 H         1 UNK         0.0903 
     65 H65        14.2651  -24.0314  -44.9289 H         1 UNK         0.3096 
     66 H66        15.3271  -25.3772  -47.2592 H         1 UNK         0.1121 
     67 H67        15.9211  -26.0825  -44.3346 H         1 UNK         0.0849 
     68 H68        14.3895  -26.4693  -45.0731 H         1 UNK         0.0849 
     69 H69        14.9251  -28.7607  -44.1426 H         1 UNK         0.0865 
     70 H70        15.6667  -29.9879  -45.1279 H         1 UNK         0.0865 
     71 H71        17.9572  -30.7223  -44.7506 H         1 UNK         0.1346 
     72 H72        19.9773  -29.3373  -41.2337 H         1 UNK         0.1412 
     73 H73        16.3435  -27.4508  -42.4928 H         1 UNK         0.1426 
     74 H74        18.3222  -27.8516  -39.6534 H         1 UNK         0.0716 
     75 H75        17.4262  -26.6435  -40.5422 H         1 UNK         0.0716 
     76 H76        18.4382  -25.2210  -42.3979 H         1 UNK         0.0695 
     77 H77        19.9203  -24.3457  -42.1375 H         1 UNK         0.0695 
     78 H78        19.6813  -27.0022  -43.6430 H         1 UNK         0.0983 
     79 H79        19.1993  -24.4358  -44.6077 H         1 UNK         0.3095 
     80 H80        19.5231  -23.7746  -46.8712 H         1 UNK         0.0454 
     81 H81        19.6702  -26.1551  -48.8023 H         1 UNK         0.0851 
     82 H82        19.4439  -24.4651  -49.2499 H         1 UNK         0.0851 
     83 H83        20.9529  -24.9870  -48.5196 H         1 UNK         0.0851 
     84 H84        17.5236  -25.7643  -47.7181 H         1 UNK         0.2976 
     85 H85        21.3883  -28.1440  -43.0182 H         1 UNK         0.3116 
     86 H86        24.0070  -26.9823  -42.4514 H         1 UNK         0.0646 
     87 H87        25.1836  -28.4603  -44.0747 H         1 UNK         0.0847 
     88 H88        24.1261  -27.3547  -44.9350 H         1 UNK         0.0847 
     89 H89        23.6478  -29.0364  -44.7106 H         1 UNK         0.0847 
     90 H90        22.2982  -27.8516  -40.6343 H         1 UNK         0.3040 
     91 H91        22.0243  -30.5899  -40.1473 H         1 UNK         0.1015 
     92 H92        20.6634  -28.8737  -38.9913 H         1 UNK         0.0786 
     93 H93        22.0829  -28.2786  -38.1350 H         1 UNK         0.0786 
     94 H94        21.4638  -29.8921  -37.8102 H         1 UNK         0.0786 
     95 H95        24.6518  -28.4333  -39.1062 H         1 UNK         0.3172 
     96 H96        26.0365  -30.2533  -37.4312 H         1 UNK         0.0595 
     97 H97        26.4342  -27.8018  -37.4100 H         1 UNK         0.0839 
     98 H98        27.0908  -27.8673  -39.0471 H         1 UNK         0.0839 
     99 H99        27.9363  -28.6528  -37.7217 H         1 UNK         0.0839 
    100 H100       25.8276  -30.2004  -40.9126 H         1 UNK         0.2998 
    101 H101       28.2530  -31.9044  -41.2435 H         1 UNK         0.0822 
    102 H102       28.0726  -29.8508  -42.6717 H         1 UNK         0.0787 
    103 H103       28.0118  -31.3182  -43.6340 H         1 UNK         0.0787 
    104 H104       26.5317  -30.4292  -43.3071 H         1 UNK         0.0787 
    105 H105       24.8433  -32.2320  -40.8341 H         1 UNK         0.3055 
    106 H106       24.8443  -34.9569  -41.8733 H         1 UNK         0.1106 
    107 H107       23.2973  -32.7551  -43.3478 H         1 UNK         0.0828 
    108 H108       24.4954  -33.8554  -44.0128 H         1 UNK         0.0828 
    109 H109       22.9360  -34.4726  -43.5039 H         1 UNK         0.0828 
    110 H110       22.1700  -32.6581  -41.5606 H         1 UNK         0.2931 
    111 H111       20.5502  -34.6322  -40.4784 H         1 UNK         0.0412 
    112 H112       21.7558  -33.0621  -36.9759 H         1 UNK         0.3472 
    113 H113       22.6304  -32.6980  -38.4454 H         1 UNK         0.3472 
    114 H114       19.9005  -31.6545  -40.5582 H         1 UNK         0.0970 
    115 H115       18.7532  -32.9530  -40.4324 H         1 UNK         0.0970 
    116 H116       21.0843  -30.9271  -42.7143 H         1 UNK         0.0612 
    117 H117       20.4040  -31.2630  -44.2845 H         1 UNK         0.0612 
@<TRIPOS>BOND
     1    1    2 1    
     2    1   62 1    
     3    1   63 1    
     4    1   64 1    
     5    2    3 2    
     6    2    4 am   BACKBONE|DICT|INTERRES
     7    4    5 1    
     8    4   65 1    
     9    5    6 1    
    10    5   25 1    
    11    5   66 1    
    12    6    7 1    
    13    6   67 1    
    14    6   68 1    
    15    7    8 1    
    16    8    9 1    
    17    8   69 1    
    18    8   70 1    
    19    9   10 ar   
    20    9   14 ar   
    21   10   11 ar   
    22   10   71 1    
    23   11   12 ar   
    24   11   61 1    
    25   12   13 ar   
    26   12   72 1    
    27   13   14 ar   
    28   13   15 1    
    29   14   73 1    
    30   15   16 1    
    31   15   74 1    
    32   15   75 1    
    33   16   17 1    
    34   17   18 1    
    35   17   76 1    
    36   17   77 1    
    37   18   19 1    
    38   18   27 1    
    39   18   78 1    
    40   19   20 am   BACKBONE|DICT|INTERRES
    41   19   79 1    
    42   20   21 2    
    43   20   22 1    
    44   22   23 1    
    45   22   24 1    
    46   22   80 1    
    47   23   81 1    
    48   23   82 1    
    49   23   83 1    
    50   24   25 am   BACKBONE|DICT|INTERRES
    51   24   84 1    
    52   25   26 2    
    53   27   28 2    
    54   27   29 am   BACKBONE|DICT|INTERRES
    55   29   30 1    
    56   29   85 1    
    57   30   31 1    
    58   30   32 1    
    59   30   86 1    
    60   31   87 1    
    61   31   88 1    
    62   31   89 1    
    63   32   33 2    
    64   32   34 am   BACKBONE|DICT|INTERRES
    65   34   35 1    
    66   34   90 1    
    67   35   36 1    
    68   35   37 1    
    69   35   91 1    
    70   36   92 1    
    71   36   93 1    
    72   36   94 1    
    73   37   38 2    
    74   37   39 am   BACKBONE|DICT|INTERRES
    75   39   40 1    
    76   39   95 1    
    77   40   41 1    
    78   40   42 1    
    79   40   96 1    
    80   41   97 1    
    81   41   98 1    
    82   41   99 1    
    83   42   43 2    
    84   42   44 am   BACKBONE|DICT|INTERRES
    85   44   45 1    
    86   44  100 1    
    87   45   46 1    
    88   45   47 1    
    89   45  101 1    
    90   46  102 1    
    91   46  103 1    
    92   46  104 1    
    93   47   48 2    
    94   47   49 am   BACKBONE|DICT|INTERRES
    95   49   50 1    
    96   49  105 1    
    97   50   51 1    
    98   50   52 1    
    99   50  106 1    
   100   51  107 1    
   101   51  108 1    
   102   51  109 1    
   103   52   53 2    
   104   52   54 am   BACKBONE|DICT|INTERRES
   105   54   55 1    
   106   54  110 1    
   107   55   56 1    
   108   55   59 1    
   109   55  111 1    
   110   56   57 am   BACKBONE|DICT|INTERRES
   111   56   58 2    
   112   57  112 1    
   113   57  113 1    
   114   59   60 1    
   115   59  114 1    
   116   59  115 1    
   117   60   61 1    
   118   61  116 1    
   119   61  117 1    
@<TRIPOS>SUBSTRUCTURE
     1 UNK         1 GROUP             0       ****    0 ROOT    
