@<TRIPOS>MOLECULE
3R8
117   119    1
SMALL
USER_CHARGES


@<TRIPOS>ATOM
      1 CA         15.4574  -23.2055  -44.6189 C.3       0 UNK        -0.2013 
      2 C          16.4467  -24.3367  -44.3843 C.2       0 UNK         0.4866 
      3 O          17.1742  -24.7148  -45.3019 O.2       0 UNK        -0.5176 
      4 N          16.4933  -24.8700  -43.1566 N.am      1 UNK        -0.4884 
      5 CA         17.3511  -25.9972  -42.7570 C.3       1 UNK         0.0853 
      6 C6         16.6628  -26.9186  -41.7173 C.3       10 UNK        -0.0849 
      7 S7         15.1605  -27.6800  -42.4280 S.3       10 UNK        -0.2776 
      8 C8         15.5587  -29.4642  -42.4402 C.3       10 UNK         0.0316 
      9 C9         16.8604  -29.8287  -43.1537 C.ar      10 UNK        -0.0863 
     10 C10        17.7391  -30.7316  -42.5464 C.ar      10 UNK        -0.1009 
     11 C11        18.9307  -31.0948  -43.1762 C.ar      10 UNK        -0.0712 
     12 C12        19.2419  -30.5583  -44.4249 C.ar      10 UNK        -0.0894 
     13 C13        18.4072  -29.6094  -45.0241 C.ar      10 UNK        -0.0745 
     14 C14        17.1975  -29.2800  -44.3990 C.ar      10 UNK        -0.0972 
     15 C15        18.8237  -28.8847  -46.3081 C.3       10 UNK         0.0209 
     16 S16        20.6345  -28.6302  -46.5055 S.3       10 UNK        -0.2568 
     17 C17        21.1287  -27.9636  -44.8782 C.3       10 UNK        -0.0983 
     18 CA         21.8615  -26.5982  -44.9564 C.3       3 UNK         0.0876 
     19 N          21.4142  -25.7543  -43.8542 N.am      3 UNK        -0.4424 
     20 C          21.3369  -24.4230  -43.8404 C.2       2 UNK         0.4918 
     21 O          21.7681  -23.6956  -44.7366 O.2       2 UNK        -0.4875 
     22 CA         20.5532  -23.8331  -42.6471 C.3       2 UNK         0.0481 
     23 CB         20.5485  -22.2939  -42.6417 C.3       2 UNK        -0.1831 
     24 N          19.1668  -24.3181  -42.6671 N.am      2 UNK        -0.4498 
     25 C          18.7665  -25.5538  -42.3271 C.2       1 UNK         0.5027 
     26 O          19.5094  -26.3581  -41.7635 O.2       1 UNK        -0.4969 
     27 C          23.3913  -26.7751  -44.9289 C.2       3 UNK         0.5005 
     28 O          24.0316  -26.4957  -43.9113 O.2       3 UNK        -0.5279 
     29 N          23.9511  -27.3038  -46.0262 N.am      4 UNK        -0.4463 
     30 CA         25.3788  -27.6253  -46.1651 C.3       4 UNK         0.0283 
     31 CB         25.6653  -28.0566  -47.6123 C.3       4 UNK        -0.1875 
     32 C          25.8741  -28.7001  -45.1768 C.2       4 UNK         0.4949 
     33 O          27.0430  -28.6770  -44.7928 O.2       4 UNK        -0.5039 
     34 N          24.9701  -29.5989  -44.7660 N.am      5 UNK        -0.4663 
     35 CA         25.1973  -30.6335  -43.7526 C.3       5 UNK         0.0242 
     36 CB         24.4792  -31.9171  -44.2081 C.3       5 UNK        -0.1982 
     37 C          24.7207  -30.2028  -42.3493 C.2       5 UNK         0.5017 
     38 O          24.6418  -31.0564  -41.4622 O.2       5 UNK        -0.5012 
     39 N          24.3795  -28.9129  -42.1799 N.am      6 UNK        -0.4439 
     40 CA         23.6939  -28.3047  -41.0310 C.3       6 UNK         0.0297 
     41 CB         24.5202  -28.4691  -39.7356 C.3       6 UNK        -0.2006 
     42 C          22.2508  -28.8250  -40.8797 C.2       6 UNK         0.4892 
     43 O          21.7926  -29.6260  -41.6934 O.2       6 UNK        -0.5089 
     44 N          21.5496  -28.3706  -39.8331 N.am      7 UNK        -0.4243 
     45 CA         20.1947  -28.8301  -39.5005 C.3       7 UNK         0.0196 
     46 CB         19.5520  -27.8395  -38.5163 C.3       7 UNK        -0.2007 
     47 C          20.1582  -30.2631  -38.9324 C.2       7 UNK         0.5020 
     48 O          19.0936  -30.8803  -38.9205 O.2       7 UNK        -0.5147 
     49 N          21.3116  -30.7665  -38.4708 N.am      8 UNK        -0.4734 
     50 CA         21.4830  -32.1139  -37.9223 C.3       8 UNK         0.0238 
     51 CB         22.7164  -32.1178  -37.0036 C.3       8 UNK        -0.1912 
     52 C          21.6180  -33.2121  -38.9938 C.2       8 UNK         0.5038 
     53 O          21.4347  -34.3826  -38.6573 O.2       8 UNK        -0.5046 
     54 N          21.9511  -32.8321  -40.2364 N.am      9 UNK        -0.4200 
     55 CA         22.2518  -33.7258  -41.3692 C.3       9 UNK         0.0839 
     56 C          23.5366  -34.5611  -41.1011 C.2       9 UNK         0.5513 
     57 N          24.6556  -33.9026  -40.8271 N.am      9 UNK        -0.7519 
     58 O          23.5307  -35.7894  -41.1376 O.2       9 UNK        -0.4960 
     59 C59        21.0381  -34.5882  -41.8506 C.3       10 UNK        -0.0876 
     60 S60        19.5638  -33.7417  -42.5523 S.3       10 UNK        -0.2414 
     61 C61        19.9448  -31.9699  -42.4645 C.3       10 UNK         0.0169 
     62 H62        15.9835  -22.3052  -44.9356 H         1 UNK         0.0903 
     63 H63        14.7528  -23.4817  -45.4029 H         1 UNK         0.0903 
     64 H64        14.8879  -22.9679  -43.7204 H         1 UNK         0.0903 
     65 H65        15.8766  -24.5169  -42.4378 H         1 UNK         0.3096 
     66 H66        17.5322  -26.6102  -43.6420 H         1 UNK         0.1121 
     67 H67        17.3356  -27.7101  -41.3813 H         1 UNK         0.0849 
     68 H68        16.3885  -26.3556  -40.8237 H         1 UNK         0.0849 
     69 H69        15.5812  -29.8103  -41.4054 H         1 UNK         0.0865 
     70 H70        14.7395  -30.0001  -42.9210 H         1 UNK         0.0865 
     71 H71        17.5110  -31.1419  -41.5716 H         1 UNK         0.1346 
     72 H72        20.1773  -30.8289  -44.8938 H         1 UNK         0.1412 
     73 H73        16.5320  -28.5652  -44.8638 H         1 UNK         0.1426 
     74 H74        18.3442  -27.9051  -46.3484 H         1 UNK         0.0716 
     75 H75        18.4526  -29.4474  -47.1653 H         1 UNK         0.0716 
     76 H76        20.2234  -27.8581  -44.2789 H         1 UNK         0.0695 
     77 H77        21.7163  -28.7181  -44.3504 H         1 UNK         0.0695 
     78 H78        21.5973  -26.0924  -45.8881 H         1 UNK         0.0983 
     79 H79        21.0242  -26.2419  -43.0547 H         1 UNK         0.3095 
     80 H80        21.0377  -24.1717  -41.7288 H         1 UNK         0.0454 
     81 H81        21.5657  -21.9016  -42.6099 H         1 UNK         0.0851 
     82 H82        20.0695  -21.8862  -43.5328 H         1 UNK         0.0851 
     83 H83        20.0242  -21.9021  -41.7700 H         1 UNK         0.0851 
     84 H84        18.5002  -23.7439  -43.1630 H         1 UNK         0.2976 
     85 H85        23.3556  -27.5303  -46.8115 H         1 UNK         0.3116 
     86 H86        25.9438  -26.7127  -45.9630 H         1 UNK         0.0646 
     87 H87        26.7248  -28.2773  -47.7507 H         1 UNK         0.0847 
     88 H88        25.4065  -27.2699  -48.3212 H         1 UNK         0.0847 
     89 H89        25.1083  -28.9537  -47.8856 H         1 UNK         0.0847 
     90 H90        24.0348  -29.5371  -45.1421 H         1 UNK         0.3040 
     91 H91        26.2651  -30.8497  -43.6747 H         1 UNK         0.1015 
     92 H92        23.3961  -31.7884  -44.2257 H         1 UNK         0.0786 
     93 H93        24.7011  -32.7496  -43.5399 H         1 UNK         0.0786 
     94 H94        24.7983  -32.2176  -45.2063 H         1 UNK         0.0786 
     95 H95        24.4740  -28.2938  -42.9776 H         1 UNK         0.3172 
     96 H96        23.6210  -27.2394  -41.2541 H         1 UNK         0.0595 
     97 H97        24.1363  -27.8374  -38.9344 H         1 UNK         0.0839 
     98 H98        24.5123  -29.4966  -39.3706 H         1 UNK         0.0839 
     99 H99        25.5598  -28.1818  -39.8930 H         1 UNK         0.0839 
    100 H100       21.9653  -27.6890  -39.2151 H         1 UNK         0.2998 
    101 H101       19.6000  -28.8321  -40.4175 H         1 UNK         0.0822 
    102 H102       18.5296  -28.1358  -38.2778 H         1 UNK         0.0787 
    103 H103       20.1046  -27.7847  -37.5776 H         1 UNK         0.0787 
    104 H104       19.5046  -26.8363  -38.9409 H         1 UNK         0.0787 
    105 H105       22.1335  -30.1823  -38.5109 H         1 UNK         0.3055 
    106 H106       20.6056  -32.3591  -37.3191 H         1 UNK         0.1106 
    107 H107       22.6119  -31.3957  -36.1936 H         1 UNK         0.0828 
    108 H108       22.8582  -33.0972  -36.5442 H         1 UNK         0.0828 
    109 H109       23.6297  -31.8812  -37.5514 H         1 UNK         0.0828 
    110 H110       22.1018  -31.8482  -40.4112 H         1 UNK         0.2931 
    111 H111       22.5340  -33.0810  -42.1995 H         1 UNK         0.0412 
    112 H112       24.6721  -32.8867  -40.8621 H         1 UNK         0.3472 
    113 H113       25.5029  -34.4158  -40.6442 H         1 UNK         0.3472 
    114 H114       20.6949  -35.2332  -41.0408 H         1 UNK         0.0970 
    115 H115       21.3756  -35.2733  -42.6304 H         1 UNK         0.0970 
    116 H116       19.9814  -31.6643  -41.4220 H         1 UNK         0.0612 
    117 H117       20.9299  -31.7857  -42.8907 H         1 UNK         0.0612 
@<TRIPOS>BOND
     1    1    2 1    
     2    1   62 1    
     3    1   63 1    
     4    1   64 1    
     5    2    3 2    
     6    2    4 am   BACKBONE|DICT|INTERRES
     7    4    5 1    
     8    4   65 1    
     9    5    6 1    
    10    5   25 1    
    11    5   66 1    
    12    6    7 1    
    13    6   67 1    
    14    6   68 1    
    15    7    8 1    
    16    8    9 1    
    17    8   69 1    
    18    8   70 1    
    19    9   10 ar   
    20    9   14 ar   
    21   10   11 ar   
    22   10   71 1    
    23   11   12 ar   
    24   11   61 1    
    25   12   13 ar   
    26   12   72 1    
    27   13   14 ar   
    28   13   15 1    
    29   14   73 1    
    30   15   16 1    
    31   15   74 1    
    32   15   75 1    
    33   16   17 1    
    34   17   18 1    
    35   17   76 1    
    36   17   77 1    
    37   18   19 1    
    38   18   27 1    
    39   18   78 1    
    40   19   20 am   BACKBONE|DICT|INTERRES
    41   19   79 1    
    42   20   21 2    
    43   20   22 1    
    44   22   23 1    
    45   22   24 1    
    46   22   80 1    
    47   23   81 1    
    48   23   82 1    
    49   23   83 1    
    50   24   25 am   BACKBONE|DICT|INTERRES
    51   24   84 1    
    52   25   26 2    
    53   27   28 2    
    54   27   29 am   BACKBONE|DICT|INTERRES
    55   29   30 1    
    56   29   85 1    
    57   30   31 1    
    58   30   32 1    
    59   30   86 1    
    60   31   87 1    
    61   31   88 1    
    62   31   89 1    
    63   32   33 2    
    64   32   34 am   BACKBONE|DICT|INTERRES
    65   34   35 1    
    66   34   90 1    
    67   35   36 1    
    68   35   37 1    
    69   35   91 1    
    70   36   92 1    
    71   36   93 1    
    72   36   94 1    
    73   37   38 2    
    74   37   39 am   BACKBONE|DICT|INTERRES
    75   39   40 1    
    76   39   95 1    
    77   40   41 1    
    78   40   42 1    
    79   40   96 1    
    80   41   97 1    
    81   41   98 1    
    82   41   99 1    
    83   42   43 2    
    84   42   44 am   BACKBONE|DICT|INTERRES
    85   44   45 1    
    86   44  100 1    
    87   45   46 1    
    88   45   47 1    
    89   45  101 1    
    90   46  102 1    
    91   46  103 1    
    92   46  104 1    
    93   47   48 2    
    94   47   49 am   BACKBONE|DICT|INTERRES
    95   49   50 1    
    96   49  105 1    
    97   50   51 1    
    98   50   52 1    
    99   50  106 1    
   100   51  107 1    
   101   51  108 1    
   102   51  109 1    
   103   52   53 2    
   104   52   54 am   BACKBONE|DICT|INTERRES
   105   54   55 1    
   106   54  110 1    
   107   55   56 1    
   108   55   59 1    
   109   55  111 1    
   110   56   57 am   BACKBONE|DICT|INTERRES
   111   56   58 2    
   112   57  112 1    
   113   57  113 1    
   114   59   60 1    
   115   59  114 1    
   116   59  115 1    
   117   60   61 1    
   118   61  116 1    
   119   61  117 1    
@<TRIPOS>SUBSTRUCTURE
     1 UNK         1 GROUP             0       ****    0 ROOT    
