@<TRIPOS>MOLECULE
3R8
117   119    1
SMALL
USER_CHARGES


@<TRIPOS>ATOM
      1 CA         14.7624  -23.6070  -42.0660 C.3       0 UNK        -0.2013 
      2 C          15.6932  -23.6450  -43.2687 C.2       0 UNK         0.4866 
      3 O          15.9366  -22.6089  -43.8885 O.2       0 UNK        -0.5176 
      4 N          16.2078  -24.8326  -43.6088 N.am      1 UNK        -0.4884 
      5 CA         17.1629  -25.0472  -44.7004 C.3       1 UNK         0.0853 
      6 C6         17.3385  -26.5527  -45.0231 C.3       10 UNK        -0.0849 
      7 S7         15.8010  -27.4082  -45.5043 S.3       10 UNK        -0.2776 
      8 C8         15.7070  -28.7670  -44.2788 C.3       10 UNK         0.0316 
      9 C9         16.9689  -29.6277  -44.1729 C.ar      10 UNK        -0.0863 
     10 C10        17.3725  -30.1010  -42.9184 C.ar      10 UNK        -0.1009 
     11 C11        18.5346  -30.8670  -42.7848 C.ar      10 UNK        -0.0712 
     12 C12        19.2900  -31.1707  -43.9175 C.ar      10 UNK        -0.0894 
     13 C13        18.9061  -30.7060  -45.1756 C.ar      10 UNK        -0.0745 
     14 C14        17.7345  -29.9522  -45.3009 C.ar      10 UNK        -0.0972 
     15 C15        19.7716  -31.0088  -46.3918 C.3       10 UNK         0.0209 
     16 S16        21.3852  -30.1557  -46.3236 S.3       10 UNK        -0.2568 
     17 C17        20.8777  -28.4017  -46.3602 C.3       10 UNK        -0.0983 
     18 CA         21.6361  -27.4469  -45.3993 C.3       3 UNK         0.0876 
     19 N          21.1170  -26.0867  -45.5751 N.am      3 UNK        -0.4424 
     20 C          21.5705  -24.9639  -45.0005 C.2       2 UNK         0.4918 
     21 O          22.5565  -24.9165  -44.2674 O.2       2 UNK        -0.4875 
     22 CA         20.7268  -23.6956  -45.2415 C.3       2 UNK         0.0481 
     23 CB         21.2095  -22.9557  -46.4988 C.3       2 UNK        -0.1831 
     24 N          19.2928  -24.0011  -45.3622 N.am      2 UNK        -0.4498 
     25 C          18.5464  -24.4634  -44.3474 C.2       1 UNK         0.5027 
     26 O          18.9603  -24.5475  -43.1895 O.2       1 UNK        -0.4969 
     27 C          21.6177  -27.9081  -43.9190 C.2       3 UNK         0.5005 
     28 O          22.5232  -28.6297  -43.4999 O.2       3 UNK        -0.5279 
     29 N          20.6429  -27.4275  -43.1293 N.am      4 UNK        -0.4463 
     30 CA         20.4970  -27.7309  -41.7010 C.3       4 UNK         0.0283 
     31 CB         19.1041  -27.2916  -41.2191 C.3       4 UNK        -0.1875 
     32 C          21.5913  -27.1188  -40.8046 C.2       4 UNK         0.4949 
     33 O          21.6839  -27.5038  -39.6390 O.2       4 UNK        -0.5039 
     34 N          22.3989  -26.1880  -41.3374 N.am      5 UNK        -0.4663 
     35 CA         23.5717  -25.6354  -40.6530 C.3       5 UNK         0.0242 
     36 CB         23.9848  -24.3182  -41.3289 C.3       5 UNK        -0.1982 
     37 C          24.7586  -26.6173  -40.6148 C.2       5 UNK         0.5017 
     38 O          25.6417  -26.4510  -39.7722 O.2       5 UNK        -0.5012 
     39 N          24.7653  -27.6108  -41.5142 N.am      6 UNK        -0.4439 
     40 CA         25.7279  -28.7100  -41.5393 C.3       6 UNK         0.0297 
     41 CB         25.9848  -29.1049  -43.0040 C.3       6 UNK        -0.2006 
     42 C          25.1721  -29.9071  -40.7546 C.2       6 UNK         0.4892 
     43 O          23.9638  -29.9902  -40.5197 O.2       6 UNK        -0.5089 
     44 N          26.0501  -30.8625  -40.4223 N.am      7 UNK        -0.4243 
     45 CA         25.7190  -32.1330  -39.7603 C.3       7 UNK         0.0196 
     46 CB         26.9924  -32.6955  -39.1001 C.3       7 UNK        -0.2007 
     47 C          25.0429  -33.1518  -40.7080 C.2       7 UNK         0.5020 
     48 O          25.3853  -34.3347  -40.6961 O.2       7 UNK        -0.5147 
     49 N          24.1025  -32.6703  -41.5278 N.am      8 UNK        -0.4734 
     50 CA         23.3437  -33.4410  -42.5132 C.3       8 UNK         0.0238 
     51 CB         22.9099  -32.4916  -43.6419 C.3       8 UNK        -0.1912 
     52 C          22.1350  -34.1723  -41.9021 C.2       8 UNK         0.5038 
     53 O          21.6435  -35.1204  -42.5130 O.2       8 UNK        -0.5046 
     54 N          21.6960  -33.7349  -40.7166 N.am      9 UNK        -0.4200 
     55 CA         20.6739  -34.3809  -39.8842 C.3       9 UNK         0.0839 
     56 C          21.3171  -34.8249  -38.5475 C.2       9 UNK         0.5513 
     57 N          20.9245  -35.9736  -38.0225 N.am      9 UNK        -0.7519 
     58 O          22.1415  -34.1216  -37.9668 O.2       9 UNK        -0.4960 
     59 C59        19.4638  -33.4475  -39.6191 C.3       10 UNK        -0.0876 
     60 S60        18.5213  -33.0777  -41.1360 S.3       10 UNK        -0.2414 
     61 C61        19.0010  -31.3493  -41.4214 C.3       10 UNK         0.0169 
     62 H62        13.7820  -23.2352  -42.3618 H         1 UNK         0.0903 
     63 H63        14.6309  -24.5927  -41.6205 H         1 UNK         0.0903 
     64 H64        15.1638  -22.9411  -41.3028 H         1 UNK         0.0903 
     65 H65        15.9793  -25.6492  -43.0617 H         1 UNK         0.3096 
     66 H66        16.7828  -24.5360  -45.5878 H         1 UNK         0.1121 
     67 H67        18.0352  -26.6831  -45.8525 H         1 UNK         0.0849 
     68 H68        17.7857  -27.0683  -44.1722 H         1 UNK         0.0849 
     69 H69        14.8676  -29.4132  -44.5384 H         1 UNK         0.0865 
     70 H70        15.4673  -28.3300  -43.3081 H         1 UNK         0.0865 
     71 H71        16.7888  -29.8642  -42.0392 H         1 UNK         0.1346 
     72 H72        20.1864  -31.7631  -43.8187 H         1 UNK         0.1412 
     73 H73        17.4312  -29.5974  -46.2763 H         1 UNK         0.1426 
     74 H74        19.2592  -30.7297  -47.3139 H         1 UNK         0.0716 
     75 H75        19.9432  -32.0846  -46.4494 H         1 UNK         0.0716 
     76 H76        19.8078  -28.3345  -46.1677 H         1 UNK         0.0695 
     77 H77        21.0087  -28.0589  -47.3878 H         1 UNK         0.0695 
     78 H78        22.6852  -27.4292  -45.7027 H         1 UNK         0.0983 
     79 H79        20.3229  -26.0008  -46.1901 H         1 UNK         0.3095 
     80 H80        20.8658  -23.0346  -44.3833 H         1 UNK         0.0454 
     81 H81        22.2676  -22.7020  -46.4181 H         1 UNK         0.0851 
     82 H82        20.6657  -22.0220  -46.6427 H         1 UNK         0.0851 
     83 H83        21.0876  -23.5585  -47.3995 H         1 UNK         0.0851 
     84 H84        18.8882  -23.9357  -46.2860 H         1 UNK         0.2976 
     85 H85        19.9835  -26.7692  -43.5163 H         1 UNK         0.3116 
     86 H86        20.5663  -28.8146  -41.5913 H         1 UNK         0.0646 
     87 H87        18.9145  -27.6527  -40.2076 H         1 UNK         0.0847 
     88 H88        18.3125  -27.6851  -41.8540 H         1 UNK         0.0847 
     89 H89        19.0083  -26.2063  -41.1943 H         1 UNK         0.0847 
     90 H90        22.2589  -25.9053  -42.3002 H         1 UNK         0.3040 
     91 H91        23.2961  -25.4148  -39.6191 H         1 UNK         0.1015 
     92 H92        23.1531  -23.6150  -41.3766 H         1 UNK         0.0786 
     93 H93        24.3462  -24.4817  -42.3447 H         1 UNK         0.0786 
     94 H94        24.7890  -23.8329  -40.7743 H         1 UNK         0.0786 
     95 H95        23.9494  -27.7324  -42.1045 H         1 UNK         0.3172 
     96 H96        26.6711  -28.3964  -41.0872 H         1 UNK         0.0595 
     97 H97        25.0833  -29.4887  -43.4840 H         1 UNK         0.0839 
     98 H98        26.7459  -29.8827  -43.0764 H         1 UNK         0.0839 
     99 H99        26.3371  -28.2545  -43.5880 H         1 UNK         0.0839 
    100 H100       27.0168  -30.7397  -40.6890 H         1 UNK         0.2998 
    101 H101       25.0000  -31.9259  -38.9642 H         1 UNK         0.0822 
    102 H102       27.4297  -31.9785  -38.4047 H         1 UNK         0.0787 
    103 H103       26.7729  -33.5996  -38.5303 H         1 UNK         0.0787 
    104 H104       27.7510  -32.9520  -39.8411 H         1 UNK         0.0787 
    105 H105       23.8729  -31.6842  -41.4345 H         1 UNK         0.3055 
    106 H106       23.9947  -34.2065  -42.9423 H         1 UNK         0.1106 
    107 H107       22.2651  -32.9966  -44.3625 H         1 UNK         0.0828 
    108 H108       22.3693  -31.6264  -43.2563 H         1 UNK         0.0828 
    109 H109       23.7725  -32.1157  -44.1923 H         1 UNK         0.0828 
    110 H110       22.2082  -32.9913  -40.2669 H         1 UNK         0.2931 
    111 H111       20.3039  -35.2777  -40.3854 H         1 UNK         0.0412 
    112 H112       21.3223  -36.2728  -37.1458 H         1 UNK         0.3472 
    113 H113       20.2419  -36.5524  -38.4871 H         1 UNK         0.3472 
    114 H114       19.7849  -32.5202  -39.1406 H         1 UNK         0.0970 
    115 H115       18.7706  -33.9190  -38.9199 H         1 UNK         0.0970 
    116 H116       18.5892  -30.7212  -40.6299 H         1 UNK         0.0612 
    117 H117       20.0868  -31.2603  -41.3567 H         1 UNK         0.0612 
@<TRIPOS>BOND
     1    1    2 1    
     2    1   62 1    
     3    1   63 1    
     4    1   64 1    
     5    2    3 2    
     6    2    4 am   BACKBONE|DICT|INTERRES
     7    4    5 1    
     8    4   65 1    
     9    5    6 1    
    10    5   25 1    
    11    5   66 1    
    12    6    7 1    
    13    6   67 1    
    14    6   68 1    
    15    7    8 1    
    16    8    9 1    
    17    8   69 1    
    18    8   70 1    
    19    9   10 ar   
    20    9   14 ar   
    21   10   11 ar   
    22   10   71 1    
    23   11   12 ar   
    24   11   61 1    
    25   12   13 ar   
    26   12   72 1    
    27   13   14 ar   
    28   13   15 1    
    29   14   73 1    
    30   15   16 1    
    31   15   74 1    
    32   15   75 1    
    33   16   17 1    
    34   17   18 1    
    35   17   76 1    
    36   17   77 1    
    37   18   19 1    
    38   18   27 1    
    39   18   78 1    
    40   19   20 am   BACKBONE|DICT|INTERRES
    41   19   79 1    
    42   20   21 2    
    43   20   22 1    
    44   22   23 1    
    45   22   24 1    
    46   22   80 1    
    47   23   81 1    
    48   23   82 1    
    49   23   83 1    
    50   24   25 am   BACKBONE|DICT|INTERRES
    51   24   84 1    
    52   25   26 2    
    53   27   28 2    
    54   27   29 am   BACKBONE|DICT|INTERRES
    55   29   30 1    
    56   29   85 1    
    57   30   31 1    
    58   30   32 1    
    59   30   86 1    
    60   31   87 1    
    61   31   88 1    
    62   31   89 1    
    63   32   33 2    
    64   32   34 am   BACKBONE|DICT|INTERRES
    65   34   35 1    
    66   34   90 1    
    67   35   36 1    
    68   35   37 1    
    69   35   91 1    
    70   36   92 1    
    71   36   93 1    
    72   36   94 1    
    73   37   38 2    
    74   37   39 am   BACKBONE|DICT|INTERRES
    75   39   40 1    
    76   39   95 1    
    77   40   41 1    
    78   40   42 1    
    79   40   96 1    
    80   41   97 1    
    81   41   98 1    
    82   41   99 1    
    83   42   43 2    
    84   42   44 am   BACKBONE|DICT|INTERRES
    85   44   45 1    
    86   44  100 1    
    87   45   46 1    
    88   45   47 1    
    89   45  101 1    
    90   46  102 1    
    91   46  103 1    
    92   46  104 1    
    93   47   48 2    
    94   47   49 am   BACKBONE|DICT|INTERRES
    95   49   50 1    
    96   49  105 1    
    97   50   51 1    
    98   50   52 1    
    99   50  106 1    
   100   51  107 1    
   101   51  108 1    
   102   51  109 1    
   103   52   53 2    
   104   52   54 am   BACKBONE|DICT|INTERRES
   105   54   55 1    
   106   54  110 1    
   107   55   56 1    
   108   55   59 1    
   109   55  111 1    
   110   56   57 am   BACKBONE|DICT|INTERRES
   111   56   58 2    
   112   57  112 1    
   113   57  113 1    
   114   59   60 1    
   115   59  114 1    
   116   59  115 1    
   117   60   61 1    
   118   61  116 1    
   119   61  117 1    
@<TRIPOS>SUBSTRUCTURE
     1 UNK         1 GROUP             0       ****    0 ROOT    
