@<TRIPOS>MOLECULE
3R8
117   119    1
SMALL
USER_CHARGES


@<TRIPOS>ATOM
      1 CA         19.8703  -21.1581  -46.2009 C.3       0 UNK        -0.2013 
      2 C          20.1081  -22.2597  -45.1790 C.2       0 UNK         0.4866 
      3 O          20.2169  -21.9742  -43.9865 O.2       0 UNK        -0.5176 
      4 N          20.1913  -23.5168  -45.6367 N.am      1 UNK        -0.4884 
      5 CA         20.3996  -24.7020  -44.7928 C.3       1 UNK         0.0853 
      6 C6         20.8400  -25.9245  -45.6457 C.3       10 UNK        -0.0849 
      7 S7         21.9256  -27.0668  -44.7311 S.3       10 UNK        -0.2776 
      8 C8         22.0841  -28.4484  -45.9087 C.3       10 UNK         0.0316 
      9 C9         21.0329  -29.5219  -45.6651 C.ar      10 UNK        -0.0863 
     10 C10        21.2125  -30.4364  -44.6233 C.ar      10 UNK        -0.1009 
     11 C11        20.2600  -31.4273  -44.3729 C.ar      10 UNK        -0.0712 
     12 C12        19.1256  -31.5110  -45.1828 C.ar      10 UNK        -0.0894 
     13 C13        18.9251  -30.5941  -46.2197 C.ar      10 UNK        -0.0745 
     14 C14        19.8890  -29.6086  -46.4670 C.ar      10 UNK        -0.0972 
     15 C15        17.6320  -30.6336  -47.0220 C.3       10 UNK         0.0209 
     16 S16        16.4698  -29.3221  -46.5079 S.3       10 UNK        -0.2568 
     17 C17        16.2663  -29.6353  -44.7156 C.3       10 UNK        -0.0983 
     18 CA         17.2837  -28.8212  -43.8705 C.3       3 UNK         0.0876 
     19 N          17.2172  -27.3798  -44.1041 N.am      3 UNK        -0.4424 
     20 C          16.3122  -26.5016  -43.6567 C.2       2 UNK         0.4918 
     21 O          15.2819  -26.8172  -43.0606 O.2       2 UNK        -0.4875 
     22 CA         16.6238  -25.0076  -43.9064 C.3       2 UNK         0.0481 
     23 CB         16.4035  -24.1680  -42.6312 C.3       2 UNK        -0.1831 
     24 N          17.9602  -24.7405  -44.4717 N.am      2 UNK        -0.4498 
     25 C          19.1587  -25.0362  -43.9358 C.2       1 UNK         0.5027 
     26 O          19.2974  -25.5944  -42.8470 O.2       1 UNK        -0.4969 
     27 C          17.3130  -29.1768  -42.3690 C.2       3 UNK         0.5005 
     28 O          16.6563  -30.1283  -41.9408 O.2       3 UNK        -0.5279 
     29 N          18.0857  -28.3950  -41.6008 N.am      4 UNK        -0.4463 
     30 CA         18.3152  -28.5662  -40.1678 C.3       4 UNK         0.0283 
     31 CB         17.0914  -28.0711  -39.3678 C.3       4 UNK        -0.1875 
     32 C          19.6197  -27.8559  -39.7698 C.2       4 UNK         0.4949 
     33 O          19.6406  -27.1257  -38.7772 O.2       4 UNK        -0.5039 
     34 N          20.6803  -28.0473  -40.5639 N.am      5 UNK        -0.4663 
     35 CA         21.9854  -27.4124  -40.3843 C.3       5 UNK         0.0242 
     36 CB         21.9409  -25.9528  -40.8857 C.3       5 UNK        -0.1982 
     37 C          23.0712  -28.2303  -41.0984 C.2       5 UNK         0.5017 
     38 O          22.7779  -29.2890  -41.6602 O.2       5 UNK        -0.5012 
     39 N          24.3096  -27.7156  -41.0461 N.am      6 UNK        -0.4439 
     40 CA         25.5516  -28.3047  -41.5643 C.3       6 UNK         0.0297 
     41 CB         25.4555  -28.5393  -43.0900 C.3       6 UNK        -0.2006 
     42 C          25.9651  -29.5769  -40.7985 C.2       6 UNK         0.4892 
     43 O          25.3089  -29.9702  -39.8323 O.2       6 UNK        -0.5089 
     44 N          27.0552  -30.2162  -41.2416 N.am      7 UNK        -0.4243 
     45 CA         27.5474  -31.4823  -40.6829 C.3       7 UNK         0.0196 
     46 CB         28.9342  -31.7868  -41.2729 C.3       7 UNK        -0.2007 
     47 C          26.5915  -32.6707  -40.9115 C.2       7 UNK         0.5020 
     48 O          26.6952  -33.6742  -40.2060 O.2       7 UNK        -0.5147 
     49 N          25.6936  -32.5426  -41.8974 N.am      8 UNK        -0.4734 
     50 CA         24.7158  -33.5569  -42.2798 C.3       8 UNK         0.0238 
     51 CB         24.1869  -33.2362  -43.6869 C.3       8 UNK        -0.1912 
     52 C          23.5614  -33.7253  -41.2753 C.2       8 UNK         0.5038 
     53 O          23.1128  -34.8583  -41.0934 O.2       8 UNK        -0.5046 
     54 N          23.0890  -32.6333  -40.6541 N.am      9 UNK        -0.4200 
     55 CA         21.9403  -32.6620  -39.7287 C.3       9 UNK         0.0839 
     56 C          21.8928  -31.5184  -38.6749 C.2       9 UNK         0.5513 
     57 N          22.9030  -30.6717  -38.5337 N.am      9 UNK        -0.7519 
     58 O          20.9236  -31.4159  -37.9270 O.2       9 UNK        -0.4960 
     59 C59        20.5795  -32.8905  -40.4516 C.3       10 UNK        -0.0876 
     60 S60        20.1336  -31.5673  -41.6253 S.3       10 UNK        -0.2414 
     61 C61        20.4477  -32.3903  -43.2134 C.3       10 UNK         0.0169 
     62 H62        20.6873  -20.4376  -46.1724 H         1 UNK         0.0903 
     63 H63        19.7993  -21.5495  -47.2156 H         1 UNK         0.0903 
     64 H64        18.9436  -20.6311  -45.9753 H         1 UNK         0.0903 
     65 H65        20.1087  -23.6866  -46.6298 H         1 UNK         0.3096 
     66 H66        21.2051  -24.4552  -44.0966 H         1 UNK         0.1121 
     67 H67        19.9856  -26.4690  -46.0529 H         1 UNK         0.0849 
     68 H68        21.4146  -25.5887  -46.5107 H         1 UNK         0.0849 
     69 H69        23.0764  -28.8877  -45.7948 H         1 UNK         0.0865 
     70 H70        22.0353  -28.0788  -46.9341 H         1 UNK         0.0865 
     71 H71        22.0848  -30.3613  -43.9881 H         1 UNK         0.1346 
     72 H72        18.3782  -32.2659  -44.9800 H         1 UNK         0.1412 
     73 H73        19.7319  -28.8945  -47.2641 H         1 UNK         0.1426 
     74 H74        17.1432  -31.6040  -46.9218 H         1 UNK         0.0716 
     75 H75        17.8573  -30.5128  -48.0825 H         1 UNK         0.0716 
     76 H76        16.3697  -30.7058  -44.5315 H         1 UNK         0.0695 
     77 H77        15.2456  -29.3746  -44.4313 H         1 UNK         0.0695 
     78 H78        18.2833  -29.0923  -44.1994 H         1 UNK         0.0983 
     79 H79        18.0106  -26.9946  -44.5918 H         1 UNK         0.3095 
     80 H80        15.9062  -24.6699  -44.6553 H         1 UNK         0.0454 
     81 H81        16.6053  -23.1122  -42.8110 H         1 UNK         0.0851 
     82 H82        17.0452  -24.4975  -41.8133 H         1 UNK         0.0851 
     83 H83        15.3725  -24.2443  -42.2836 H         1 UNK         0.0851 
     84 H84        17.9627  -24.2902  -45.3767 H         1 UNK         0.2976 
     85 H85        18.5769  -27.6159  -42.0284 H         1 UNK         0.3116 
     86 H86        18.4594  -29.6277  -39.9575 H         1 UNK         0.0646 
     87 H87        17.2438  -28.2032  -38.2960 H         1 UNK         0.0847 
     88 H88        16.1891  -28.6223  -39.6321 H         1 UNK         0.0847 
     89 H89        16.9004  -27.0122  -39.5454 H         1 UNK         0.0847 
     90 H90        20.6450  -28.7313  -41.3116 H         1 UNK         0.3040 
     91 H91        22.2281  -27.4209  -39.3194 H         1 UNK         0.1015 
     92 H92        21.1168  -25.3966  -40.4389 H         1 UNK         0.0786 
     93 H93        21.8190  -25.9089  -41.9675 H         1 UNK         0.0786 
     94 H94        22.8554  -25.4137  -40.6384 H         1 UNK         0.0786 
     95 H95        24.4333  -26.8580  -40.5271 H         1 UNK         0.3172 
     96 H96        26.3328  -27.5647  -41.3854 H         1 UNK         0.0595 
     97 H97        24.7931  -29.3698  -43.3367 H         1 UNK         0.0839 
     98 H98        26.4305  -28.7607  -43.5244 H         1 UNK         0.0839 
     99 H99        25.0755  -27.6546  -43.6013 H         1 UNK         0.0839 
    100 H100       27.5661  -29.8340  -42.0246 H         1 UNK         0.2998 
    101 H101       27.6537  -31.3563  -39.6031 H         1 UNK         0.0822 
    102 H102       28.8942  -31.9112  -42.3558 H         1 UNK         0.0787 
    103 H103       29.6447  -30.9902  -41.0507 H         1 UNK         0.0787 
    104 H104       29.3428  -32.7078  -40.8544 H         1 UNK         0.0787 
    105 H105       25.6879  -31.6809  -42.4221 H         1 UNK         0.3055 
    106 H106       25.2342  -34.5176  -42.3300 H         1 UNK         0.1106 
    107 H107       23.4462  -33.9715  -44.0045 H         1 UNK         0.0828 
    108 H108       23.7179  -32.2528  -43.7290 H         1 UNK         0.0828 
    109 H109       24.9898  -33.2536  -44.4240 H         1 UNK         0.0828 
    110 H110       23.4777  -31.7217  -40.8549 H         1 UNK         0.2931 
    111 H111       22.0938  -33.5407  -39.0991 H         1 UNK         0.0412 
    112 H112       23.7358  -30.6885  -39.1143 H         1 UNK         0.3472 
    113 H113       22.8302  -29.9687  -37.8172 H         1 UNK         0.3472 
    114 H114       19.7717  -32.9811  -39.7235 H         1 UNK         0.0970 
    115 H115       20.5907  -33.8479  -40.9736 H         1 UNK         0.0970 
    116 H116       19.7816  -33.2489  -43.3110 H         1 UNK         0.0612 
    117 H117       21.4620  -32.7822  -43.2248 H         1 UNK         0.0612 
@<TRIPOS>BOND
     1    1    2 1    
     2    1   62 1    
     3    1   63 1    
     4    1   64 1    
     5    2    3 2    
     6    2    4 am   BACKBONE|DICT|INTERRES
     7    4    5 1    
     8    4   65 1    
     9    5    6 1    
    10    5   25 1    
    11    5   66 1    
    12    6    7 1    
    13    6   67 1    
    14    6   68 1    
    15    7    8 1    
    16    8    9 1    
    17    8   69 1    
    18    8   70 1    
    19    9   10 ar   
    20    9   14 ar   
    21   10   11 ar   
    22   10   71 1    
    23   11   12 ar   
    24   11   61 1    
    25   12   13 ar   
    26   12   72 1    
    27   13   14 ar   
    28   13   15 1    
    29   14   73 1    
    30   15   16 1    
    31   15   74 1    
    32   15   75 1    
    33   16   17 1    
    34   17   18 1    
    35   17   76 1    
    36   17   77 1    
    37   18   19 1    
    38   18   27 1    
    39   18   78 1    
    40   19   20 am   BACKBONE|DICT|INTERRES
    41   19   79 1    
    42   20   21 2    
    43   20   22 1    
    44   22   23 1    
    45   22   24 1    
    46   22   80 1    
    47   23   81 1    
    48   23   82 1    
    49   23   83 1    
    50   24   25 am   BACKBONE|DICT|INTERRES
    51   24   84 1    
    52   25   26 2    
    53   27   28 2    
    54   27   29 am   BACKBONE|DICT|INTERRES
    55   29   30 1    
    56   29   85 1    
    57   30   31 1    
    58   30   32 1    
    59   30   86 1    
    60   31   87 1    
    61   31   88 1    
    62   31   89 1    
    63   32   33 2    
    64   32   34 am   BACKBONE|DICT|INTERRES
    65   34   35 1    
    66   34   90 1    
    67   35   36 1    
    68   35   37 1    
    69   35   91 1    
    70   36   92 1    
    71   36   93 1    
    72   36   94 1    
    73   37   38 2    
    74   37   39 am   BACKBONE|DICT|INTERRES
    75   39   40 1    
    76   39   95 1    
    77   40   41 1    
    78   40   42 1    
    79   40   96 1    
    80   41   97 1    
    81   41   98 1    
    82   41   99 1    
    83   42   43 2    
    84   42   44 am   BACKBONE|DICT|INTERRES
    85   44   45 1    
    86   44  100 1    
    87   45   46 1    
    88   45   47 1    
    89   45  101 1    
    90   46  102 1    
    91   46  103 1    
    92   46  104 1    
    93   47   48 2    
    94   47   49 am   BACKBONE|DICT|INTERRES
    95   49   50 1    
    96   49  105 1    
    97   50   51 1    
    98   50   52 1    
    99   50  106 1    
   100   51  107 1    
   101   51  108 1    
   102   51  109 1    
   103   52   53 2    
   104   52   54 am   BACKBONE|DICT|INTERRES
   105   54   55 1    
   106   54  110 1    
   107   55   56 1    
   108   55   59 1    
   109   55  111 1    
   110   56   57 am   BACKBONE|DICT|INTERRES
   111   56   58 2    
   112   57  112 1    
   113   57  113 1    
   114   59   60 1    
   115   59  114 1    
   116   59  115 1    
   117   60   61 1    
   118   61  116 1    
   119   61  117 1    
@<TRIPOS>SUBSTRUCTURE
     1 UNK         1 GROUP             0       ****    0 ROOT    
