@<TRIPOS>MOLECULE
3R8
117   119    1
SMALL
USER_CHARGES


@<TRIPOS>ATOM
      1 CA         16.5028  -25.3924  -41.6242 C.3       0 UNK        -0.2013 
      2 C          17.5199  -25.8611  -42.6522 C.2       0 UNK         0.4866 
      3 O          18.3395  -26.7211  -42.3394 O.2       0 UNK        -0.5176 
      4 N          17.4719  -25.2977  -43.8676 N.am      1 UNK        -0.4884 
      5 CA         18.3458  -25.5672  -45.0204 C.3       1 UNK         0.0853 
      6 C6         17.7869  -26.6817  -45.9643 C.3       10 UNK        -0.0849 
      7 S7         18.0405  -28.4268  -45.4832 S.3       10 UNK        -0.2776 
      8 C8         16.4795  -28.8819  -44.6750 C.3       10 UNK         0.0316 
      9 C9         16.6929  -30.1489  -43.8631 C.ar      10 UNK        -0.0863 
     10 C10        16.3848  -31.4046  -44.3947 C.ar      10 UNK        -0.1009 
     11 C11        16.6486  -32.5684  -43.6635 C.ar      10 UNK        -0.0712 
     12 C12        17.2356  -32.4680  -42.3973 C.ar      10 UNK        -0.0894 
     13 C13        17.5584  -31.2164  -41.8625 C.ar      10 UNK        -0.0745 
     14 C14        17.2599  -30.0627  -42.5901 C.ar      10 UNK        -0.0972 
     15 C15        18.2653  -31.1079  -40.5201 C.3       10 UNK         0.0209 
     16 S16        20.0137  -30.6323  -40.7318 S.3       10 UNK        -0.2568 
     17 C17        19.9589  -28.8564  -40.3278 C.3       10 UNK        -0.0983 
     18 CA         21.1472  -28.0523  -40.9188 C.3       3 UNK         0.0876 
     19 N          21.0635  -27.8168  -42.3739 N.am      3 UNK        -0.4424 
     20 C          22.1182  -27.4202  -43.1100 C.2       2 UNK         0.4918 
     21 O          23.2495  -27.3175  -42.6398 O.2       2 UNK        -0.4875 
     22 CA         21.9218  -26.9961  -44.5785 C.3       2 UNK         0.0481 
     23 CB         22.5479  -28.0081  -45.5507 C.3       2 UNK        -0.1831 
     24 N          20.5324  -26.7393  -44.9506 N.am      2 UNK        -0.4498 
     25 C          19.8487  -25.6329  -44.6379 C.2       1 UNK         0.5027 
     26 O          20.3546  -24.6800  -44.0417 O.2       1 UNK        -0.4969 
     27 C          21.3499  -26.7373  -40.1368 C.2       3 UNK         0.5005 
     28 O          21.9227  -26.7714  -39.0472 O.2       3 UNK        -0.5279 
     29 N          20.9243  -25.5999  -40.7077 N.am      4 UNK        -0.4463 
     30 CA         21.2265  -24.2642  -40.1867 C.3       4 UNK         0.0283 
     31 CB         20.3128  -23.2286  -40.8605 C.3       4 UNK        -0.1875 
     32 C          22.7094  -23.8781  -40.3600 C.2       4 UNK         0.4949 
     33 O          23.2100  -23.0677  -39.5802 O.2       4 UNK        -0.5039 
     34 N          23.3820  -24.4562  -41.3663 N.am      5 UNK        -0.4663 
     35 CA         24.8068  -24.2597  -41.6353 C.3       5 UNK         0.0242 
     36 CB         25.0668  -24.3567  -43.1488 C.3       5 UNK        -0.1982 
     37 C          25.6720  -25.2658  -40.8602 C.2       5 UNK         0.5017 
     38 O          26.6164  -24.8513  -40.1870 O.2       5 UNK        -0.5012 
     39 N          25.3406  -26.5595  -40.9652 N.am      6 UNK        -0.4439 
     40 CA         26.0476  -27.6644  -40.3212 C.3       6 UNK         0.0297 
     41 CB         27.3493  -27.9999  -41.0793 C.3       6 UNK        -0.2006 
     42 C          25.1135  -28.8738  -40.1893 C.2       6 UNK         0.4892 
     43 O          24.6144  -29.1337  -39.0945 O.2       6 UNK        -0.5089 
     44 N          24.8891  -29.5871  -41.2989 N.am      7 UNK        -0.4243 
     45 CA         24.0218  -30.7579  -41.3935 C.3       7 UNK         0.0196 
     46 CB         24.7745  -32.0174  -40.9280 C.3       7 UNK        -0.2007 
     47 C          23.5555  -30.9077  -42.8450 C.2       7 UNK         0.5020 
     48 O          24.3378  -30.6440  -43.7609 O.2       7 UNK        -0.5147 
     49 N          22.3048  -31.3451  -43.0207 N.am      8 UNK        -0.4734 
     50 CA         21.6961  -31.6656  -44.3100 C.3       8 UNK         0.0238 
     51 CB         20.3287  -30.9626  -44.4164 C.3       8 UNK        -0.1912 
     52 C          21.5996  -33.1925  -44.4337 C.2       8 UNK         0.5038 
     53 O          22.5665  -33.8210  -44.8657 O.2       8 UNK        -0.5046 
     54 N          20.4505  -33.7607  -44.0438 N.am      9 UNK        -0.4200 
     55 CA         20.1617  -35.2033  -44.0805 C.3       9 UNK         0.0839 
     56 C          20.9573  -36.0598  -43.0516 C.2       9 UNK         0.5513 
     57 N          21.6023  -35.4731  -42.0503 N.am      9 UNK        -0.7519 
     58 O          20.9883  -37.2822  -43.1677 O.2       9 UNK        -0.4960 
     59 C59        18.6414  -35.4909  -43.9642 C.3       10 UNK        -0.0876 
     60 S60        17.6423  -34.6376  -45.2343 S.3       10 UNK        -0.2414 
     61 C61        16.2871  -33.9281  -44.2446 C.3       10 UNK         0.0169 
     62 H62        17.0139  -25.0011  -40.7451 H         1 UNK         0.0903 
     63 H63        15.8531  -24.6106  -42.0168 H         1 UNK         0.0903 
     64 H64        15.8786  -26.2287  -41.3106 H         1 UNK         0.0903 
     65 H65        16.7845  -24.5743  -44.0273 H         1 UNK         0.3096 
     66 H66        18.2853  -24.6470  -45.6044 H         1 UNK         0.1121 
     67 H67        18.2430  -26.5642  -46.9489 H         1 UNK         0.0849 
     68 H68        16.7211  -26.5192  -46.1321 H         1 UNK         0.0849 
     69 H69        16.1432  -28.0748  -44.0237 H         1 UNK         0.0865 
     70 H70        15.7021  -29.0246  -45.4270 H         1 UNK         0.0865 
     71 H71        15.9532  -31.4780  -45.3836 H         1 UNK         0.1346 
     72 H72        17.4504  -33.3632  -41.8309 H         1 UNK         0.1412 
     73 H73        17.5145  -29.0945  -42.1874 H         1 UNK         0.1426 
     74 H74        18.2288  -32.0628  -39.9938 H         1 UNK         0.0716 
     75 H75        17.7472  -30.3907  -39.8819 H         1 UNK         0.0716 
     76 H76        19.9629  -28.8022  -39.2370 H         1 UNK         0.0695 
     77 H77        19.0073  -28.4290  -40.6357 H         1 UNK         0.0695 
     78 H78        22.0521  -28.6308  -40.7337 H         1 UNK         0.0983 
     79 H79        20.1303  -27.7984  -42.7705 H         1 UNK         0.3095 
     80 H80        22.4774  -26.0634  -44.6985 H         1 UNK         0.0454 
     81 H81        22.6030  -27.5983  -46.5591 H         1 UNK         0.0851 
     82 H82        21.9842  -28.9360  -45.6046 H         1 UNK         0.0851 
     83 H83        23.5661  -28.2632  -45.2525 H         1 UNK         0.0851 
     84 H84        20.0186  -27.4952  -45.3886 H         1 UNK         0.2976 
     85 H85        20.4209  -25.6558  -41.5846 H         1 UNK         0.3116 
     86 H86        21.0069  -24.2601  -39.1168 H         1 UNK         0.0646 
     87 H87        20.5152  -23.1427  -41.9281 H         1 UNK         0.0847 
     88 H88        20.4611  -22.2400  -40.4242 H         1 UNK         0.0847 
     89 H89        19.2602  -23.4825  -40.7361 H         1 UNK         0.0847 
     90 H90        22.9009  -25.1340  -41.9398 H         1 UNK         0.3040 
     91 H91        25.0981  -23.2565  -41.3146 H         1 UNK         0.1015 
     92 H92        24.8090  -25.3366  -43.5509 H         1 UNK         0.0786 
     93 H93        26.1201  -24.1821  -43.3727 H         1 UNK         0.0786 
     94 H94        24.4921  -23.6098  -43.6967 H         1 UNK         0.0786 
     95 H95        24.5380  -26.8198  -41.5396 H         1 UNK         0.3172 
     96 H96        26.3153  -27.3612  -39.3065 H         1 UNK         0.0595 
     97 H97        27.1724  -28.1810  -42.1399 H         1 UNK         0.0839 
     98 H98        27.8246  -28.8909  -40.6666 H         1 UNK         0.0839 
     99 H99        28.0713  -27.1871  -41.0009 H         1 UNK         0.0839 
    100 H100       25.2848  -29.2876  -42.1815 H         1 UNK         0.2998 
    101 H101       23.1496  -30.6151  -40.7537 H         1 UNK         0.0822 
    102 H102       24.1448  -32.9039  -41.0145 H         1 UNK         0.0787 
    103 H103       25.6705  -32.1927  -41.5249 H         1 UNK         0.0787 
    104 H104       25.0779  -31.9369  -39.8841 H         1 UNK         0.0787 
    105 H105       21.7292  -31.5119  -42.2051 H         1 UNK         0.3055 
    106 H106       22.3249  -31.3137  -45.1308 H         1 UNK         0.1106 
    107 H107       19.8626  -31.1471  -45.3852 H         1 UNK         0.0828 
    108 H108       19.6308  -31.2910  -43.6506 H         1 UNK         0.0828 
    109 H109       20.4231  -29.8856  -44.3002 H         1 UNK         0.0828 
    110 H110       19.6998  -33.1689  -43.7208 H         1 UNK         0.2931 
    111 H111       20.4785  -35.5568  -45.0638 H         1 UNK         0.0412 
    112 H112       21.5830  -34.4724  -41.9469 H         1 UNK         0.3472 
    113 H113       22.1145  -36.0408  -41.3935 H         1 UNK         0.3472 
    114 H114       18.2853  -35.2258  -42.9684 H         1 UNK         0.0970 
    115 H115       18.4505  -36.5606  -44.0708 H         1 UNK         0.0970 
    116 H116       15.9983  -34.6209  -43.4527 H         1 UNK         0.0612 
    117 H117       15.4104  -33.8271  -44.8861 H         1 UNK         0.0612 
@<TRIPOS>BOND
     1    1    2 1    
     2    1   62 1    
     3    1   63 1    
     4    1   64 1    
     5    2    3 2    
     6    2    4 am   BACKBONE|DICT|INTERRES
     7    4    5 1    
     8    4   65 1    
     9    5    6 1    
    10    5   25 1    
    11    5   66 1    
    12    6    7 1    
    13    6   67 1    
    14    6   68 1    
    15    7    8 1    
    16    8    9 1    
    17    8   69 1    
    18    8   70 1    
    19    9   10 ar   
    20    9   14 ar   
    21   10   11 ar   
    22   10   71 1    
    23   11   12 ar   
    24   11   61 1    
    25   12   13 ar   
    26   12   72 1    
    27   13   14 ar   
    28   13   15 1    
    29   14   73 1    
    30   15   16 1    
    31   15   74 1    
    32   15   75 1    
    33   16   17 1    
    34   17   18 1    
    35   17   76 1    
    36   17   77 1    
    37   18   19 1    
    38   18   27 1    
    39   18   78 1    
    40   19   20 am   BACKBONE|DICT|INTERRES
    41   19   79 1    
    42   20   21 2    
    43   20   22 1    
    44   22   23 1    
    45   22   24 1    
    46   22   80 1    
    47   23   81 1    
    48   23   82 1    
    49   23   83 1    
    50   24   25 am   BACKBONE|DICT|INTERRES
    51   24   84 1    
    52   25   26 2    
    53   27   28 2    
    54   27   29 am   BACKBONE|DICT|INTERRES
    55   29   30 1    
    56   29   85 1    
    57   30   31 1    
    58   30   32 1    
    59   30   86 1    
    60   31   87 1    
    61   31   88 1    
    62   31   89 1    
    63   32   33 2    
    64   32   34 am   BACKBONE|DICT|INTERRES
    65   34   35 1    
    66   34   90 1    
    67   35   36 1    
    68   35   37 1    
    69   35   91 1    
    70   36   92 1    
    71   36   93 1    
    72   36   94 1    
    73   37   38 2    
    74   37   39 am   BACKBONE|DICT|INTERRES
    75   39   40 1    
    76   39   95 1    
    77   40   41 1    
    78   40   42 1    
    79   40   96 1    
    80   41   97 1    
    81   41   98 1    
    82   41   99 1    
    83   42   43 2    
    84   42   44 am   BACKBONE|DICT|INTERRES
    85   44   45 1    
    86   44  100 1    
    87   45   46 1    
    88   45   47 1    
    89   45  101 1    
    90   46  102 1    
    91   46  103 1    
    92   46  104 1    
    93   47   48 2    
    94   47   49 am   BACKBONE|DICT|INTERRES
    95   49   50 1    
    96   49  105 1    
    97   50   51 1    
    98   50   52 1    
    99   50  106 1    
   100   51  107 1    
   101   51  108 1    
   102   51  109 1    
   103   52   53 2    
   104   52   54 am   BACKBONE|DICT|INTERRES
   105   54   55 1    
   106   54  110 1    
   107   55   56 1    
   108   55   59 1    
   109   55  111 1    
   110   56   57 am   BACKBONE|DICT|INTERRES
   111   56   58 2    
   112   57  112 1    
   113   57  113 1    
   114   59   60 1    
   115   59  114 1    
   116   59  115 1    
   117   60   61 1    
   118   61  116 1    
   119   61  117 1    
@<TRIPOS>SUBSTRUCTURE
     1 UNK         1 GROUP             0       ****    0 ROOT    
