@<TRIPOS>MOLECULE
3R8
117   119    1
SMALL
USER_CHARGES


@<TRIPOS>ATOM
      1 CA         17.2528  -29.8312  -42.0681 C.3       0 UNK        -0.2013 
      2 C          16.6248  -28.4820  -42.3532 C.2       0 UNK         0.4866 
      3 O          16.1602  -27.8038  -41.4351 O.2       0 UNK        -0.5176 
      4 N          16.6121  -28.0785  -43.6276 N.am      1 UNK        -0.4884 
      5 CA         16.0636  -26.8037  -44.1035 C.3       1 UNK         0.0853 
      6 C6         15.5639  -26.8937  -45.5707 C.3       10 UNK        -0.0849 
      7 S7         14.4815  -28.3393  -45.8618 S.3       10 UNK        -0.2776 
      8 C8         15.4321  -29.2992  -47.0884 C.3       10 UNK         0.0316 
      9 C9         16.7624  -29.8231  -46.5544 C.ar      10 UNK        -0.0863 
     10 C10        16.8257  -31.0374  -45.8621 C.ar      10 UNK        -0.1009 
     11 C11        18.0587  -31.5647  -45.4563 C.ar      10 UNK        -0.0712 
     12 C12        19.2305  -30.8440  -45.7132 C.ar      10 UNK        -0.0894 
     13 C13        19.1790  -29.6235  -46.3922 C.ar      10 UNK        -0.0745 
     14 C14        17.9451  -29.1272  -46.8193 C.ar      10 UNK        -0.0972 
     15 C15        20.4543  -28.8658  -46.7328 C.3       10 UNK         0.0209 
     16 S16        20.5493  -27.2664  -45.8698 S.3       10 UNK        -0.2568 
     17 C17        21.3210  -27.7413  -44.2898 C.3       10 UNK        -0.0983 
     18 CA         21.8344  -26.4918  -43.5189 C.3       3 UNK         0.0876 
     19 N          20.7549  -25.5702  -43.1313 N.am      3 UNK        -0.4424 
     20 C          19.7854  -25.8267  -42.2422 C.2       2 UNK         0.4918 
     21 O          19.7342  -26.8477  -41.5569 O.2       2 UNK        -0.4875 
     22 CA         18.6450  -24.8029  -42.1011 C.3       2 UNK         0.0481 
     23 CB         18.9291  -23.4063  -42.7021 C.3       2 UNK        -0.1831 
     24 N          17.4178  -25.4159  -42.6169 N.am      2 UNK        -0.4498 
     25 C          17.1247  -25.7024  -43.8951 C.2       1 UNK         0.5027 
     26 O          17.6976  -25.2053  -44.8656 O.2       1 UNK        -0.4969 
     27 C          22.7594  -26.8507  -42.3347 C.2       3 UNK         0.5005 
     28 O          23.1520  -28.0093  -42.1758 O.2       3 UNK        -0.5279 
     29 N          23.1241  -25.8393  -41.5311 N.am      4 UNK        -0.4463 
     30 CA         24.0153  -25.9616  -40.3692 C.3       4 UNK         0.0283 
     31 CB         24.1106  -24.6069  -39.6509 C.3       4 UNK        -0.1875 
     32 C          25.4210  -26.4908  -40.7116 C.2       4 UNK         0.4949 
     33 O          26.0271  -27.1717  -39.8854 O.2       4 UNK        -0.5039 
     34 N          25.8863  -26.2319  -41.9426 N.am      5 UNK        -0.4663 
     35 CA         27.1206  -26.7856  -42.5119 C.3       5 UNK         0.0242 
     36 CB         27.4182  -26.0800  -43.8448 C.3       5 UNK        -0.1982 
     37 C          27.0829  -28.3148  -42.7103 C.2       5 UNK         0.5017 
     38 O          28.1436  -28.9383  -42.7484 O.2       5 UNK        -0.5012 
     39 N          25.8753  -28.8880  -42.8081 N.am      6 UNK        -0.4439 
     40 CA         25.6094  -30.3267  -42.8566 C.3       6 UNK         0.0297 
     41 CB         24.6683  -30.6166  -44.0411 C.3       6 UNK        -0.2006 
     42 C          25.0062  -30.8215  -41.5270 C.2       6 UNK         0.4892 
     43 O          24.3618  -31.8712  -41.5150 O.2       6 UNK        -0.5089 
     44 N          25.1850  -30.0468  -40.4426 N.am      7 UNK        -0.4243 
     45 CA         24.6782  -30.2735  -39.0823 C.3       7 UNK         0.0196 
     46 CB         25.3846  -31.4871  -38.4410 C.3       7 UNK        -0.2007 
     47 C          23.1406  -30.3696  -38.9957 C.2       7 UNK         0.5020 
     48 O          22.6258  -31.0267  -38.0902 O.2       7 UNK        -0.5147 
     49 N          22.4386  -29.7257  -39.9418 N.am      8 UNK        -0.4734 
     50 CA         20.9895  -29.7878  -40.1658 C.3       8 UNK         0.0238 
     51 CB         20.2153  -29.1236  -39.0076 C.3       8 UNK        -0.1912 
     52 C          20.4891  -31.2074  -40.5057 C.2       8 UNK         0.5038 
     53 O          19.3751  -31.5652  -40.1210 O.2       8 UNK        -0.5046 
     54 N          21.3256  -31.9674  -41.2300 N.am      9 UNK        -0.4200 
     55 CA         21.0997  -33.3264  -41.7456 C.3       9 UNK         0.0839 
     56 C          20.6366  -34.3694  -40.6817 C.2       9 UNK         0.5513 
     57 N          19.8438  -35.3671  -41.0513 N.am      9 UNK        -0.7519 
     58 O          21.0586  -34.3269  -39.5280 O.2       9 UNK        -0.4960 
     59 C59        20.3500  -33.3384  -43.1134 C.3       10 UNK        -0.0876 
     60 S60        18.5753  -32.9062  -43.0579 S.3       10 UNK        -0.2414 
     61 C61        18.1256  -32.9496  -44.8205 C.3       10 UNK         0.0169 
     62 H62        17.3633  -29.9863  -40.9954 H         1 UNK         0.0903 
     63 H63        16.6290  -30.6314  -42.4653 H         1 UNK         0.0903 
     64 H64        18.2407  -29.9001  -42.5237 H         1 UNK         0.0903 
     65 H65        17.0046  -28.6735  -44.3462 H         1 UNK         0.3096 
     66 H66        15.1994  -26.5422  -43.4881 H         1 UNK         0.1121 
     67 H67        16.3970  -26.9183  -46.2717 H         1 UNK         0.0849 
     68 H68        15.0000  -25.9941  -45.8231 H         1 UNK         0.0849 
     69 H69        14.8206  -30.1397  -47.4202 H         1 UNK         0.0865 
     70 H70        15.5947  -28.6845  -47.9753 H         1 UNK         0.0865 
     71 H71        15.9159  -31.5927  -45.6781 H         1 UNK         0.1346 
     72 H72        20.1871  -31.2483  -45.4174 H         1 UNK         0.1412 
     73 H73        17.9161  -28.2015  -47.3778 H         1 UNK         0.1426 
     74 H74        21.3413  -29.4624  -46.5144 H         1 UNK         0.0716 
     75 H75        20.4732  -28.6800  -47.8076 H         1 UNK         0.0716 
     76 H76        22.1470  -28.4158  -44.5193 H         1 UNK         0.0695 
     77 H77        20.6071  -28.3142  -43.6956 H         1 UNK         0.0695 
     78 H78        22.4728  -25.9330  -44.2052 H         1 UNK         0.0983 
     79 H79        20.6906  -24.7189  -43.6704 H         1 UNK         0.3095 
     80 H80        18.4868  -24.6660  -41.0304 H         1 UNK         0.0454 
     81 H81        18.0806  -22.7393  -42.5507 H         1 UNK         0.0851 
     82 H82        19.1375  -23.4310  -43.7713 H         1 UNK         0.0851 
     83 H83        19.7879  -22.9438  -42.2145 H         1 UNK         0.0851 
     84 H84        16.9109  -25.9647  -41.9282 H         1 UNK         0.2976 
     85 H85        22.7520  -24.9200  -41.7230 H         1 UNK         0.3116 
     86 H86        23.5585  -26.6791  -39.6840 H         1 UNK         0.0646 
     87 H87        23.1319  -24.2660  -39.3128 H         1 UNK         0.0847 
     88 H88        24.7480  -24.6779  -38.7682 H         1 UNK         0.0847 
     89 H89        24.5329  -23.8350  -40.2955 H         1 UNK         0.0847 
     90 H90        25.3257  -25.6523  -42.5502 H         1 UNK         0.3040 
     91 H91        27.9362  -26.5706  -41.8176 H         1 UNK         0.1015 
     92 H92        26.6267  -26.2472  -44.5765 H         1 UNK         0.0786 
     93 H93        28.3482  -26.4471  -44.2816 H         1 UNK         0.0786 
     94 H94        27.5303  -25.0041  -43.7088 H         1 UNK         0.0786 
     95 H95        25.0487  -28.3044  -42.7193 H         1 UNK         0.3172 
     96 H96        26.5365  -30.8808  -43.0143 H         1 UNK         0.0595 
     97 H97        23.6846  -30.1712  -43.8911 H         1 UNK         0.0839 
     98 H98        24.5222  -31.6895  -44.1730 H         1 UNK         0.0839 
     99 H99        25.0741  -30.2299  -44.9759 H         1 UNK         0.0839 
    100 H100       25.7030  -29.1835  -40.5590 H         1 UNK         0.2998 
    101 H101       24.9538  -29.3891  -38.5059 H         1 UNK         0.0822 
    102 H102       25.1281  -31.5785  -37.3849 H         1 UNK         0.0787 
    103 H103       25.1007  -32.4215  -38.9264 H         1 UNK         0.0787 
    104 H104       26.4688  -31.3928  -38.5015 H         1 UNK         0.0787 
    105 H105       22.9495  -29.2034  -40.6498 H         1 UNK         0.3055 
    106 H106       20.8017  -29.1953  -41.0621 H         1 UNK         0.1106 
    107 H107       20.5839  -28.1163  -38.8142 H         1 UNK         0.0828 
    108 H108       19.1558  -29.0346  -39.2506 H         1 UNK         0.0828 
    109 H109       20.2916  -29.6974  -38.0839 H         1 UNK         0.0828 
    110 H110       22.2600  -31.6113  -41.3929 H         1 UNK         0.2931 
    111 H111       22.1105  -33.6631  -41.9789 H         1 UNK         0.0412 
    112 H112       19.5694  -36.0562  -40.3686 H         1 UNK         0.3472 
    113 H113       19.4701  -35.4077  -41.9864 H         1 UNK         0.3472 
    114 H114       20.8516  -32.6492  -43.7917 H         1 UNK         0.0970 
    115 H115       20.4505  -34.3190  -43.5813 H         1 UNK         0.0970 
    116 H116       17.1599  -33.4496  -44.9079 H         1 UNK         0.0612 
    117 H117       18.8326  -33.5701  -45.3728 H         1 UNK         0.0612 
@<TRIPOS>BOND
     1    1    2 1    
     2    1   62 1    
     3    1   63 1    
     4    1   64 1    
     5    2    3 2    
     6    2    4 am   BACKBONE|DICT|INTERRES
     7    4    5 1    
     8    4   65 1    
     9    5    6 1    
    10    5   25 1    
    11    5   66 1    
    12    6    7 1    
    13    6   67 1    
    14    6   68 1    
    15    7    8 1    
    16    8    9 1    
    17    8   69 1    
    18    8   70 1    
    19    9   10 ar   
    20    9   14 ar   
    21   10   11 ar   
    22   10   71 1    
    23   11   12 ar   
    24   11   61 1    
    25   12   13 ar   
    26   12   72 1    
    27   13   14 ar   
    28   13   15 1    
    29   14   73 1    
    30   15   16 1    
    31   15   74 1    
    32   15   75 1    
    33   16   17 1    
    34   17   18 1    
    35   17   76 1    
    36   17   77 1    
    37   18   19 1    
    38   18   27 1    
    39   18   78 1    
    40   19   20 am   BACKBONE|DICT|INTERRES
    41   19   79 1    
    42   20   21 2    
    43   20   22 1    
    44   22   23 1    
    45   22   24 1    
    46   22   80 1    
    47   23   81 1    
    48   23   82 1    
    49   23   83 1    
    50   24   25 am   BACKBONE|DICT|INTERRES
    51   24   84 1    
    52   25   26 2    
    53   27   28 2    
    54   27   29 am   BACKBONE|DICT|INTERRES
    55   29   30 1    
    56   29   85 1    
    57   30   31 1    
    58   30   32 1    
    59   30   86 1    
    60   31   87 1    
    61   31   88 1    
    62   31   89 1    
    63   32   33 2    
    64   32   34 am   BACKBONE|DICT|INTERRES
    65   34   35 1    
    66   34   90 1    
    67   35   36 1    
    68   35   37 1    
    69   35   91 1    
    70   36   92 1    
    71   36   93 1    
    72   36   94 1    
    73   37   38 2    
    74   37   39 am   BACKBONE|DICT|INTERRES
    75   39   40 1    
    76   39   95 1    
    77   40   41 1    
    78   40   42 1    
    79   40   96 1    
    80   41   97 1    
    81   41   98 1    
    82   41   99 1    
    83   42   43 2    
    84   42   44 am   BACKBONE|DICT|INTERRES
    85   44   45 1    
    86   44  100 1    
    87   45   46 1    
    88   45   47 1    
    89   45  101 1    
    90   46  102 1    
    91   46  103 1    
    92   46  104 1    
    93   47   48 2    
    94   47   49 am   BACKBONE|DICT|INTERRES
    95   49   50 1    
    96   49  105 1    
    97   50   51 1    
    98   50   52 1    
    99   50  106 1    
   100   51  107 1    
   101   51  108 1    
   102   51  109 1    
   103   52   53 2    
   104   52   54 am   BACKBONE|DICT|INTERRES
   105   54   55 1    
   106   54  110 1    
   107   55   56 1    
   108   55   59 1    
   109   55  111 1    
   110   56   57 am   BACKBONE|DICT|INTERRES
   111   56   58 2    
   112   57  112 1    
   113   57  113 1    
   114   59   60 1    
   115   59  114 1    
   116   59  115 1    
   117   60   61 1    
   118   61  116 1    
   119   61  117 1    
@<TRIPOS>SUBSTRUCTURE
     1 UNK         1 GROUP             0       ****    0 ROOT    
