@<TRIPOS>MOLECULE
3R8
117   119    1
SMALL
USER_CHARGES


@<TRIPOS>ATOM
      1 CA         14.7421  -22.4259  -41.3682 C.3       0 UNK        -0.2013 
      2 C          15.4119  -23.1958  -42.4967 C.2       0 UNK         0.4866 
      3 O          16.4231  -22.7407  -43.0324 O.2       0 UNK        -0.5176 
      4 N          14.8528  -24.3545  -42.8681 N.am      1 UNK        -0.4884 
      5 CA         15.4039  -25.2582  -43.8821 C.3       1 UNK         0.0853 
      6 C6         14.3358  -26.2714  -44.3589 C.3       10 UNK        -0.0849 
      7 S7         14.7504  -27.0343  -45.9649 S.3       10 UNK        -0.2776 
      8 C8         14.6775  -28.8151  -45.5832 C.3       10 UNK         0.0316 
      9 C9         16.0576  -29.4227  -45.3716 C.ar      10 UNK        -0.0863 
     10 C10        16.5556  -29.6523  -44.0838 C.ar      10 UNK        -0.1009 
     11 C11        17.7912  -30.2867  -43.9026 C.ar      10 UNK        -0.0712 
     12 C12        18.5210  -30.6971  -45.0221 C.ar      10 UNK        -0.0894 
     13 C13        18.0517  -30.4396  -46.3118 C.ar      10 UNK        -0.0745 
     14 C14        16.8184  -29.8055  -46.4798 C.ar      10 UNK        -0.0972 
     15 C15        18.8662  -30.8583  -47.5252 C.3       10 UNK         0.0209 
     16 S16        19.9483  -29.5148  -48.1071 S.3       10 UNK        -0.2568 
     17 C17        21.3500  -29.6129  -46.9436 C.3       10 UNK        -0.0983 
     18 CA         21.5638  -28.2968  -46.1572 C.3       3 UNK         0.0876 
     19 N          20.5218  -28.0396  -45.1694 N.am      3 UNK        -0.4424 
     20 C          19.7218  -26.9724  -45.1489 C.2       2 UNK         0.4918 
     21 O          19.6255  -26.1500  -46.0635 O.2       2 UNK        -0.4875 
     22 CA         18.9484  -26.7481  -43.8472 C.3       2 UNK         0.0481 
     23 CB         19.8111  -25.9822  -42.8254 C.3       2 UNK        -0.1831 
     24 N          17.7189  -26.0226  -44.1358 N.am      2 UNK        -0.4498 
     25 C          16.6512  -25.9770  -43.3334 C.2       1 UNK         0.5027 
     26 O          16.6061  -26.4917  -42.2124 O.2       1 UNK        -0.4969 
     27 C          22.8667  -28.3523  -45.3496 C.2       3 UNK         0.5005 
     28 O          22.9349  -29.1062  -44.3762 O.2       3 UNK        -0.5279 
     29 N          23.8586  -27.5462  -45.7500 N.am      4 UNK        -0.4463 
     30 CA         25.1317  -27.3068  -45.0640 C.3       4 UNK         0.0283 
     31 CB         26.0076  -28.5774  -45.0040 C.3       4 UNK        -0.1875 
     32 C          24.9279  -26.6368  -43.6925 C.2       4 UNK         0.4949 
     33 O          24.9446  -25.4076  -43.6253 O.2       4 UNK        -0.5039 
     34 N          24.7432  -27.4361  -42.6362 N.am      5 UNK        -0.4663 
     35 CA         24.6066  -27.0083  -41.2450 C.3       5 UNK         0.0242 
     36 CB         25.9608  -26.4807  -40.7195 C.3       5 UNK        -0.1982 
     37 C          24.1056  -28.1867  -40.3958 C.2       5 UNK         0.5017 
     38 O          23.8481  -29.2725  -40.9240 O.2       5 UNK        -0.5012 
     39 N          24.0151  -27.9715  -39.0769 N.am      6 UNK        -0.4439 
     40 CA         23.8096  -29.0269  -38.0823 C.3       6 UNK         0.0297 
     41 CB         23.6665  -28.3937  -36.6896 C.3       6 UNK        -0.2006 
     42 C          24.9664  -30.0441  -38.0999 C.2       6 UNK         0.4892 
     43 O          26.1115  -29.6558  -38.3377 O.2       6 UNK        -0.5089 
     44 N          24.6222  -31.3159  -37.8696 N.am      7 UNK        -0.4243 
     45 CA         25.4276  -32.5381  -38.0047 C.3       7 UNK         0.0196 
     46 CB         26.8729  -32.4085  -37.4821 C.3       7 UNK        -0.2007 
     47 C          25.3673  -33.1273  -39.4237 C.2       7 UNK         0.5020 
     48 O          25.4743  -34.3468  -39.5557 O.2       7 UNK        -0.5147 
     49 N          25.1274  -32.2939  -40.4485 N.am      8 UNK        -0.4734 
     50 CA         24.6070  -32.7511  -41.7413 C.3       8 UNK         0.0238 
     51 CB         25.0094  -31.7902  -42.8720 C.3       8 UNK        -0.1912 
     52 C          23.0827  -32.9028  -41.6239 C.2       8 UNK         0.5038 
     53 O          22.5607  -33.9887  -41.8792 O.2       8 UNK        -0.5046 
     54 N          22.4164  -31.8399  -41.1522 N.am      9 UNK        -0.4200 
     55 CA         21.0592  -31.8991  -40.5958 C.3       9 UNK         0.0839 
     56 C          21.0882  -32.4951  -39.1641 C.2       9 UNK         0.5513 
     57 N          20.1720  -33.3974  -38.8449 N.am      9 UNK        -0.7519 
     58 O          21.9077  -32.1130  -38.3304 O.2       9 UNK        -0.4960 
     59 C59        20.3776  -30.5089  -40.5882 C.3       10 UNK        -0.0876 
     60 S60        20.0258  -29.9187  -42.2729 S.3       10 UNK        -0.2414 
     61 C61        18.3295  -30.5526  -42.5016 C.3       10 UNK         0.0169 
     62 H62        14.4448  -21.4362  -41.7139 H         1 UNK         0.0903 
     63 H63        13.8536  -22.9361  -40.9967 H         1 UNK         0.0903 
     64 H64        15.4347  -22.3024  -40.5361 H         1 UNK         0.0903 
     65 H65        14.0439  -24.6961  -42.3685 H         1 UNK         0.3096 
     66 H66        15.7000  -24.6433  -44.7359 H         1 UNK         0.1121 
     67 H67        13.3816  -25.7610  -44.4996 H         1 UNK         0.0849 
     68 H68        14.1514  -27.0318  -43.5976 H         1 UNK         0.0849 
     69 H69        14.0364  -29.0037  -44.7212 H         1 UNK         0.0865 
     70 H70        14.1919  -29.3219  -46.4188 H         1 UNK         0.0865 
     71 H71        15.9757  -29.3480  -43.2233 H         1 UNK         0.1346 
     72 H72        19.4676  -31.2008  -44.8852 H         1 UNK         0.1412 
     73 H73        16.4437  -29.6192  -47.4773 H         1 UNK         0.1426 
     74 H74        18.1935  -31.1392  -48.3369 H         1 UNK         0.0716 
     75 H75        19.4596  -31.7471  -47.3059 H         1 UNK         0.0716 
     76 H76        22.2362  -29.8444  -47.5375 H         1 UNK         0.0695 
     77 H77        21.2207  -30.4549  -46.2626 H         1 UNK         0.0695 
     78 H78        21.6273  -27.4708  -46.8689 H         1 UNK         0.0983 
     79 H79        20.5664  -28.6363  -44.3520 H         1 UNK         0.3095 
     80 H80        18.6779  -27.7172  -43.4336 H         1 UNK         0.0454 
     81 H81        20.7414  -26.5146  -42.6218 H         1 UNK         0.0851 
     82 H82        19.2952  -25.8662  -41.8725 H         1 UNK         0.0851 
     83 H83        20.0744  -24.9880  -43.1879 H         1 UNK         0.0851 
     84 H84        17.6847  -25.6092  -45.0597 H         1 UNK         0.2976 
     85 H85        23.6916  -26.9533  -46.5518 H         1 UNK         0.3116 
     86 H86        25.6708  -26.5836  -45.6780 H         1 UNK         0.0646 
     87 H87        25.5252  -29.3984  -44.4774 H         1 UNK         0.0847 
     88 H88        26.2526  -28.9300  -46.0056 H         1 UNK         0.0847 
     89 H89        26.9502  -28.3755  -44.4944 H         1 UNK         0.0847 
     90 H90        24.5948  -28.4283  -42.7869 H         1 UNK         0.3040 
     91 H91        23.8566  -26.2172  -41.1956 H         1 UNK         0.1015 
     92 H92        25.8795  -26.1030  -39.7004 H         1 UNK         0.0786 
     93 H93        26.3385  -25.6573  -41.3247 H         1 UNK         0.0786 
     94 H94        26.7184  -27.2648  -40.7165 H         1 UNK         0.0786 
     95 H95        24.2688  -27.0626  -38.7193 H         1 UNK         0.3172 
     96 H96        22.8787  -29.5409  -38.3293 H         1 UNK         0.0595 
     97 H97        24.5698  -27.8582  -36.3942 H         1 UNK         0.0839 
     98 H98        23.4789  -29.1564  -35.9327 H         1 UNK         0.0839 
     99 H99        22.8322  -27.6933  -36.6541 H         1 UNK         0.0839 
    100 H100       23.6281  -31.5048  -37.7542 H         1 UNK         0.2998 
    101 H101       24.9266  -33.2636  -37.3618 H         1 UNK         0.0822 
    102 H102       27.3438  -33.3896  -37.4120 H         1 UNK         0.0787 
    103 H103       26.9006  -31.9627  -36.4880 H         1 UNK         0.0787 
    104 H104       27.4956  -31.8057  -38.1433 H         1 UNK         0.0787 
    105 H105       25.0621  -31.3027  -40.2576 H         1 UNK         0.3055 
    106 H106       25.0279  -33.7313  -41.9778 H         1 UNK         0.1106 
    107 H107       26.0883  -31.6401  -42.9024 H         1 UNK         0.0828 
    108 H108       24.7099  -32.1915  -43.8406 H         1 UNK         0.0828 
    109 H109       24.5369  -30.8150  -42.7768 H         1 UNK         0.0828 
    110 H110       22.9176  -30.9679  -41.0111 H         1 UNK         0.2931 
    111 H111       20.4616  -32.5612  -41.2263 H         1 UNK         0.0412 
    112 H112       19.4912  -33.7123  -39.5187 H         1 UNK         0.3472 
    113 H113       20.1675  -33.7810  -37.9125 H         1 UNK         0.3472 
    114 H114       19.4424  -30.5327  -40.0251 H         1 UNK         0.0970 
    115 H115       21.0103  -29.7729  -40.0887 H         1 UNK         0.0970 
    116 H116       17.6818  -30.0981  -41.7504 H         1 UNK         0.0612 
    117 H117       18.3183  -31.6279  -42.3200 H         1 UNK         0.0612 
@<TRIPOS>BOND
     1    1    2 1    
     2    1   62 1    
     3    1   63 1    
     4    1   64 1    
     5    2    3 2    
     6    2    4 am   BACKBONE|DICT|INTERRES
     7    4    5 1    
     8    4   65 1    
     9    5    6 1    
    10    5   25 1    
    11    5   66 1    
    12    6    7 1    
    13    6   67 1    
    14    6   68 1    
    15    7    8 1    
    16    8    9 1    
    17    8   69 1    
    18    8   70 1    
    19    9   10 ar   
    20    9   14 ar   
    21   10   11 ar   
    22   10   71 1    
    23   11   12 ar   
    24   11   61 1    
    25   12   13 ar   
    26   12   72 1    
    27   13   14 ar   
    28   13   15 1    
    29   14   73 1    
    30   15   16 1    
    31   15   74 1    
    32   15   75 1    
    33   16   17 1    
    34   17   18 1    
    35   17   76 1    
    36   17   77 1    
    37   18   19 1    
    38   18   27 1    
    39   18   78 1    
    40   19   20 am   BACKBONE|DICT|INTERRES
    41   19   79 1    
    42   20   21 2    
    43   20   22 1    
    44   22   23 1    
    45   22   24 1    
    46   22   80 1    
    47   23   81 1    
    48   23   82 1    
    49   23   83 1    
    50   24   25 am   BACKBONE|DICT|INTERRES
    51   24   84 1    
    52   25   26 2    
    53   27   28 2    
    54   27   29 am   BACKBONE|DICT|INTERRES
    55   29   30 1    
    56   29   85 1    
    57   30   31 1    
    58   30   32 1    
    59   30   86 1    
    60   31   87 1    
    61   31   88 1    
    62   31   89 1    
    63   32   33 2    
    64   32   34 am   BACKBONE|DICT|INTERRES
    65   34   35 1    
    66   34   90 1    
    67   35   36 1    
    68   35   37 1    
    69   35   91 1    
    70   36   92 1    
    71   36   93 1    
    72   36   94 1    
    73   37   38 2    
    74   37   39 am   BACKBONE|DICT|INTERRES
    75   39   40 1    
    76   39   95 1    
    77   40   41 1    
    78   40   42 1    
    79   40   96 1    
    80   41   97 1    
    81   41   98 1    
    82   41   99 1    
    83   42   43 2    
    84   42   44 am   BACKBONE|DICT|INTERRES
    85   44   45 1    
    86   44  100 1    
    87   45   46 1    
    88   45   47 1    
    89   45  101 1    
    90   46  102 1    
    91   46  103 1    
    92   46  104 1    
    93   47   48 2    
    94   47   49 am   BACKBONE|DICT|INTERRES
    95   49   50 1    
    96   49  105 1    
    97   50   51 1    
    98   50   52 1    
    99   50  106 1    
   100   51  107 1    
   101   51  108 1    
   102   51  109 1    
   103   52   53 2    
   104   52   54 am   BACKBONE|DICT|INTERRES
   105   54   55 1    
   106   54  110 1    
   107   55   56 1    
   108   55   59 1    
   109   55  111 1    
   110   56   57 am   BACKBONE|DICT|INTERRES
   111   56   58 2    
   112   57  112 1    
   113   57  113 1    
   114   59   60 1    
   115   59  114 1    
   116   59  115 1    
   117   60   61 1    
   118   61  116 1    
   119   61  117 1    
@<TRIPOS>SUBSTRUCTURE
     1 UNK         1 GROUP             0       ****    0 ROOT    
