@<TRIPOS>MOLECULE
3R8
117   119    1
SMALL
USER_CHARGES


@<TRIPOS>ATOM
      1 CA         19.4583  -27.3291  -41.1580 C.3       0 UNK        -0.2013 
      2 C          19.0510  -26.9524  -42.5680 C.2       0 UNK         0.4866 
      3 O          19.5348  -27.5514  -43.5308 O.2       0 UNK        -0.5176 
      4 N          18.1758  -25.9418  -42.6786 N.am      1 UNK        -0.4884 
      5 CA         17.4441  -25.5186  -43.8875 C.3       1 UNK         0.0853 
      6 C6         16.4476  -26.6029  -44.3795 C.3       10 UNK        -0.0849 
      7 S7         15.3377  -27.2317  -43.0653 S.3       10 UNK        -0.2776 
      8 C8         14.5746  -28.6882  -43.8573 C.3       10 UNK         0.0316 
      9 C9         15.6132  -29.6938  -44.3344 C.ar      10 UNK        -0.0863 
     10 C10        16.1755  -30.6201  -43.4495 C.ar      10 UNK        -0.1009 
     11 C11        17.1617  -31.5109  -43.8888 C.ar      10 UNK        -0.0712 
     12 C12        17.5931  -31.4563  -45.2194 C.ar      10 UNK        -0.0894 
     13 C13        17.0475  -30.5229  -46.1058 C.ar      10 UNK        -0.0745 
     14 C14        16.0340  -29.6711  -45.6663 C.ar      10 UNK        -0.0972 
     15 C15        17.5767  -30.3921  -47.5263 C.3       10 UNK         0.0209 
     16 S16        18.5764  -28.8781  -47.7237 S.3       10 UNK        -0.2568 
     17 C17        19.9781  -29.2626  -46.6281 C.3       10 UNK        -0.0983 
     18 CA         21.0979  -28.1942  -46.6760 C.3       3 UNK         0.0876 
     19 N          20.6858  -26.9134  -46.0983 N.am      3 UNK        -0.4424 
     20 C          21.1840  -25.7198  -46.4519 C.2       2 UNK         0.4918 
     21 O          21.9921  -25.5717  -47.3697 O.2       2 UNK        -0.4875 
     22 CA         20.7506  -24.4819  -45.6321 C.3       2 UNK         0.0481 
     23 CB         20.5006  -23.2462  -46.5222 C.3       2 UNK        -0.1831 
     24 N          19.6248  -24.7294  -44.7219 N.am      2 UNK        -0.4498 
     25 C          18.3574  -25.0355  -45.0415 C.2       1 UNK         0.5027 
     26 O          17.9125  -24.9838  -46.1889 O.2       1 UNK        -0.4969 
     27 C          22.3384  -28.7161  -45.9345 C.2       3 UNK         0.5005 
     28 O          23.3167  -29.0986  -46.5788 O.2       3 UNK        -0.5279 
     29 N          22.2688  -28.7358  -44.5966 N.am      4 UNK        -0.4463 
     30 CA         23.2839  -29.3180  -43.7211 C.3       4 UNK         0.0283 
     31 CB         23.1349  -30.8522  -43.7062 C.3       4 UNK        -0.1875 
     32 C          23.1703  -28.6766  -42.3332 C.2       4 UNK         0.4949 
     33 O          22.8858  -29.3615  -41.3496 O.2       4 UNK        -0.5039 
     34 N          23.3458  -27.3482  -42.3006 N.am      5 UNK        -0.4663 
     35 CA         23.1373  -26.4820  -41.1346 C.3       5 UNK         0.0242 
     36 CB         23.2635  -25.0129  -41.5689 C.3       5 UNK        -0.1982 
     37 C          24.0434  -26.7732  -39.9272 C.2       5 UNK         0.5017 
     38 O          23.6029  -26.5779  -38.7940 O.2       5 UNK        -0.5012 
     39 N          25.2795  -27.2241  -40.1810 N.am      6 UNK        -0.4439 
     40 CA         26.2365  -27.6130  -39.1410 C.3       6 UNK         0.0297 
     41 CB         27.6498  -27.7065  -39.7408 C.3       6 UNK        -0.2006 
     42 C          25.8374  -28.9329  -38.4596 C.2       6 UNK         0.4892 
     43 O          25.7991  -28.9986  -37.2307 O.2       6 UNK        -0.5089 
     44 N          25.5366  -29.9409  -39.2844 N.am      7 UNK        -0.4243 
     45 CA         25.1189  -31.2977  -38.9437 C.3       7 UNK         0.0196 
     46 CB         26.2043  -32.0226  -38.1179 C.3       7 UNK        -0.2007 
     47 C          24.8951  -32.0332  -40.2763 C.2       7 UNK         0.5020 
     48 O          25.5684  -31.6932  -41.2499 O.2       7 UNK        -0.5147 
     49 N          24.0177  -33.0427  -40.3585 N.am      8 UNK        -0.4734 
     50 CA         23.1753  -33.5887  -39.2886 C.3       8 UNK         0.0238 
     51 CB         22.9367  -35.0814  -39.5714 C.3       8 UNK        -0.1912 
     52 C          21.8265  -32.8653  -39.1308 C.2       8 UNK         0.5038 
     53 O          21.1958  -33.0272  -38.0855 O.2       8 UNK        -0.5046 
     54 N          21.3948  -32.1110  -40.1513 N.am      9 UNK        -0.4200 
     55 CA         20.1107  -31.3881  -40.1504 C.3       9 UNK         0.0839 
     56 C          20.0861  -30.1891  -39.1637 C.2       9 UNK         0.5513 
     57 N          21.1839  -29.4602  -39.0061 N.am      9 UNK        -0.7519 
     58 O          19.0652  -29.9265  -38.5342 O.2       9 UNK        -0.4960 
     59 C59        19.6664  -30.9550  -41.5732 C.3       10 UNK        -0.0876 
     60 S60        19.5490  -32.3667  -42.7244 S.3       10 UNK        -0.2414 
     61 C61        17.7483  -32.5464  -42.9365 C.3       10 UNK         0.0169 
     62 H62        19.6928  -26.4470  -40.5630 H         1 UNK         0.0903 
     63 H63        18.6510  -27.8728  -40.6681 H         1 UNK         0.0903 
     64 H64        20.3347  -27.9723  -41.1815 H         1 UNK         0.0903 
     65 H65        17.8627  -25.4909  -41.8295 H         1 UNK         0.3096 
     66 H66        16.8596  -24.6441  -43.5972 H         1 UNK         0.1121 
     67 H67        17.0238  -27.4311  -44.7901 H         1 UNK         0.0849 
     68 H68        15.8254  -26.2243  -45.1926 H         1 UNK         0.0849 
     69 H69        13.8997  -29.1665  -43.1459 H         1 UNK         0.0865 
     70 H70        13.9515  -28.3579  -44.6901 H         1 UNK         0.0865 
     71 H71        15.8480  -30.6410  -42.4189 H         1 UNK         0.1346 
     72 H72        18.3721  -32.1270  -45.5554 H         1 UNK         0.1412 
     73 H73        15.6166  -28.9450  -46.3510 H         1 UNK         0.1426 
     74 H74        16.7390  -30.3589  -48.2245 H         1 UNK         0.0716 
     75 H75        18.1739  -31.2624  -47.8028 H         1 UNK         0.0716 
     76 H76        20.3663  -30.2387  -46.9271 H         1 UNK         0.0695 
     77 H77        19.6038  -29.3796  -45.6092 H         1 UNK         0.0695 
     78 H78        21.3783  -28.0447  -47.7212 H         1 UNK         0.0983 
     79 H79        20.0580  -26.9699  -45.3018 H         1 UNK         0.3095 
     80 H80        21.5979  -24.2477  -44.9862 H         1 UNK         0.0454 
     81 H81        21.4067  -22.9618  -47.0583 H         1 UNK         0.0851 
     82 H82        20.1939  -22.3844  -45.9299 H         1 UNK         0.0851 
     83 H83        19.7306  -23.4315  -47.2713 H         1 UNK         0.0851 
     84 H84        19.8689  -24.8139  -43.7447 H         1 UNK         0.2976 
     85 H85        21.4302  -28.3853  -44.1425 H         1 UNK         0.3116 
     86 H86        24.2769  -29.0725  -44.1037 H         1 UNK         0.0646 
     87 H87        22.1601  -31.1595  -43.3330 H         1 UNK         0.0847 
     88 H88        23.2572  -31.2763  -44.7026 H         1 UNK         0.0847 
     89 H89        23.8893  -31.3130  -43.0743 H         1 UNK         0.0847 
     90 H90        23.5777  -26.8833  -43.1670 H         1 UNK         0.3040 
     91 H91        22.1178  -26.6380  -40.7868 H         1 UNK         0.1015 
     92 H92        22.5319  -24.7611  -42.3370 H         1 UNK         0.0786 
     93 H93        23.0899  -24.3401  -40.7276 H         1 UNK         0.0786 
     94 H94        24.2562  -24.7919  -41.9630 H         1 UNK         0.0786 
     95 H95        25.5559  -27.3469  -41.1442 H         1 UNK         0.3172 
     96 H96        26.2490  -26.8323  -38.3770 H         1 UNK         0.0595 
     97 H97        27.7090  -28.4491  -40.5375 H         1 UNK         0.0839 
     98 H98        28.3769  -27.9896  -38.9784 H         1 UNK         0.0839 
     99 H99        27.9703  -26.7486  -40.1507 H         1 UNK         0.0839 
    100 H100       25.5923  -29.7899  -40.2843 H         1 UNK         0.2998 
    101 H101       24.1869  -31.2293  -38.3817 H         1 UNK         0.0822 
    102 H102       25.9602  -33.0748  -37.9705 H         1 UNK         0.0787 
    103 H103       27.1746  -31.9847  -38.6146 H         1 UNK         0.0787 
    104 H104       26.3192  -31.5839  -37.1271 H         1 UNK         0.0787 
    105 H105       23.9281  -33.5033  -41.2527 H         1 UNK         0.3055 
    106 H106       23.6923  -33.5200  -38.3305 H         1 UNK         0.1106 
    107 H107       23.8767  -35.6316  -39.6210 H         1 UNK         0.0828 
    108 H108       22.3388  -35.5394  -38.7819 H         1 UNK         0.0828 
    109 H109       22.4060  -35.2365  -40.5118 H         1 UNK         0.0828 
    110 H110       21.9803  -31.9950  -40.9645 H         1 UNK         0.2931 
    111 H111       19.3557  -32.0915  -39.7923 H         1 UNK         0.0412 
    112 H112       21.1831  -28.6918  -38.3553 H         1 UNK         0.3472 
    113 H113       21.9764  -29.6038  -39.6231 H         1 UNK         0.3472 
    114 H114       20.3696  -30.2352  -41.9928 H         1 UNK         0.0970 
    115 H115       18.7034  -30.4421  -41.5366 H         1 UNK         0.0970 
    116 H116       17.2644  -32.5058  -41.9594 H         1 UNK         0.0612 
    117 H117       17.5450  -33.5402  -43.3374 H         1 UNK         0.0612 
@<TRIPOS>BOND
     1    1    2 1    
     2    1   62 1    
     3    1   63 1    
     4    1   64 1    
     5    2    3 2    
     6    2    4 am   BACKBONE|DICT|INTERRES
     7    4    5 1    
     8    4   65 1    
     9    5    6 1    
    10    5   25 1    
    11    5   66 1    
    12    6    7 1    
    13    6   67 1    
    14    6   68 1    
    15    7    8 1    
    16    8    9 1    
    17    8   69 1    
    18    8   70 1    
    19    9   10 ar   
    20    9   14 ar   
    21   10   11 ar   
    22   10   71 1    
    23   11   12 ar   
    24   11   61 1    
    25   12   13 ar   
    26   12   72 1    
    27   13   14 ar   
    28   13   15 1    
    29   14   73 1    
    30   15   16 1    
    31   15   74 1    
    32   15   75 1    
    33   16   17 1    
    34   17   18 1    
    35   17   76 1    
    36   17   77 1    
    37   18   19 1    
    38   18   27 1    
    39   18   78 1    
    40   19   20 am   BACKBONE|DICT|INTERRES
    41   19   79 1    
    42   20   21 2    
    43   20   22 1    
    44   22   23 1    
    45   22   24 1    
    46   22   80 1    
    47   23   81 1    
    48   23   82 1    
    49   23   83 1    
    50   24   25 am   BACKBONE|DICT|INTERRES
    51   24   84 1    
    52   25   26 2    
    53   27   28 2    
    54   27   29 am   BACKBONE|DICT|INTERRES
    55   29   30 1    
    56   29   85 1    
    57   30   31 1    
    58   30   32 1    
    59   30   86 1    
    60   31   87 1    
    61   31   88 1    
    62   31   89 1    
    63   32   33 2    
    64   32   34 am   BACKBONE|DICT|INTERRES
    65   34   35 1    
    66   34   90 1    
    67   35   36 1    
    68   35   37 1    
    69   35   91 1    
    70   36   92 1    
    71   36   93 1    
    72   36   94 1    
    73   37   38 2    
    74   37   39 am   BACKBONE|DICT|INTERRES
    75   39   40 1    
    76   39   95 1    
    77   40   41 1    
    78   40   42 1    
    79   40   96 1    
    80   41   97 1    
    81   41   98 1    
    82   41   99 1    
    83   42   43 2    
    84   42   44 am   BACKBONE|DICT|INTERRES
    85   44   45 1    
    86   44  100 1    
    87   45   46 1    
    88   45   47 1    
    89   45  101 1    
    90   46  102 1    
    91   46  103 1    
    92   46  104 1    
    93   47   48 2    
    94   47   49 am   BACKBONE|DICT|INTERRES
    95   49   50 1    
    96   49  105 1    
    97   50   51 1    
    98   50   52 1    
    99   50  106 1    
   100   51  107 1    
   101   51  108 1    
   102   51  109 1    
   103   52   53 2    
   104   52   54 am   BACKBONE|DICT|INTERRES
   105   54   55 1    
   106   54  110 1    
   107   55   56 1    
   108   55   59 1    
   109   55  111 1    
   110   56   57 am   BACKBONE|DICT|INTERRES
   111   56   58 2    
   112   57  112 1    
   113   57  113 1    
   114   59   60 1    
   115   59  114 1    
   116   59  115 1    
   117   60   61 1    
   118   61  116 1    
   119   61  117 1    
@<TRIPOS>SUBSTRUCTURE
     1 UNK         1 GROUP             0       ****    0 ROOT    
