@<TRIPOS>MOLECULE
3R8
117   119    1
SMALL
USER_CHARGES


@<TRIPOS>ATOM
      1 CA         14.3633  -24.8382  -40.4057 C.3       0 UNK        -0.2013 
      2 C          15.5953  -25.5678  -40.9192 C.2       0 UNK         0.4866 
      3 O          16.5238  -25.8107  -40.1470 O.2       0 UNK        -0.5176 
      4 N          15.6087  -25.9092  -42.2160 N.am      1 UNK        -0.4884 
      5 CA         16.6641  -26.6171  -42.9590 C.3       1 UNK         0.0853 
      6 C6         16.9877  -28.0317  -42.4076 C.3       10 UNK        -0.0849 
      7 S7         15.6095  -29.2217  -42.6060 S.3       10 UNK        -0.2776 
      8 C8         15.8042  -29.8552  -44.3125 C.3       10 UNK         0.0316 
      9 C9         17.1284  -30.5775  -44.5175 C.ar      10 UNK        -0.0863 
     10 C10        17.2615  -31.9443  -44.2465 C.ar      10 UNK        -0.1009 
     11 C11        18.5061  -32.5799  -44.3567 C.ar      10 UNK        -0.0712 
     12 C12        19.6254  -31.8155  -44.7199 C.ar      10 UNK        -0.0894 
     13 C13        19.4985  -30.4517  -44.9878 C.ar      10 UNK        -0.0745 
     14 C14        18.2410  -29.8538  -44.9433 C.ar      10 UNK        -0.0972 
     15 C15        20.7227  -29.5828  -45.2007 C.3       10 UNK         0.0209 
     16 S16        20.9795  -28.6140  -43.6876 S.3       10 UNK        -0.2568 
     17 C17        22.4429  -27.6124  -44.0798 C.3       10 UNK        -0.0983 
     18 CA         22.0960  -26.1776  -44.5837 C.3       3 UNK         0.0876 
     19 N          21.0591  -25.5061  -43.7867 N.am      3 UNK        -0.4424 
     20 C          21.0784  -25.2139  -42.4802 C.2       2 UNK         0.4918 
     21 O          22.0245  -25.4493  -41.7282 O.2       2 UNK        -0.4875 
     22 CA         19.8057  -24.5639  -41.9010 C.3       2 UNK         0.0481 
     23 CB         19.6026  -23.1371  -42.4475 C.3       2 UNK        -0.1831 
     24 N          18.5829  -25.3715  -42.0387 N.am      2 UNK        -0.4498 
     25 C          17.9408  -25.7672  -43.1479 C.2       1 UNK         0.5027 
     26 O          18.3032  -25.4802  -44.2902 O.2       1 UNK        -0.4969 
     27 C          23.3733  -25.3216  -44.7594 C.2       3 UNK         0.5005 
     28 O          23.4401  -24.1735  -44.3117 O.2       3 UNK        -0.5279 
     29 N          24.3777  -25.9184  -45.4119 N.am      4 UNK        -0.4463 
     30 CA         25.7614  -25.4439  -45.4894 C.3       4 UNK         0.0283 
     31 CB         26.0511  -24.9274  -46.9112 C.3       4 UNK        -0.1875 
     32 C          26.7096  -26.5824  -45.0629 C.2       4 UNK         0.4949 
     33 O          27.8123  -26.7064  -45.5969 O.2       4 UNK        -0.5039 
     34 N          26.2403  -27.4148  -44.1257 N.am      5 UNK        -0.4663 
     35 CA         26.8929  -28.6078  -43.5941 C.3       5 UNK         0.0242 
     36 CB         26.8365  -29.7583  -44.6259 C.3       5 UNK        -0.1982 
     37 C          26.2214  -28.9340  -42.2488 C.2       5 UNK         0.5017 
     38 O          25.9541  -28.0089  -41.4786 O.2       5 UNK        -0.5012 
     39 N          25.9389  -30.2175  -41.9861 N.am      6 UNK        -0.4439 
     40 CA         25.1770  -30.6833  -40.8257 C.3       6 UNK         0.0297 
     41 CB         25.2947  -32.2133  -40.7145 C.3       6 UNK        -0.2006 
     42 C          23.7061  -30.2504  -40.9401 C.2       6 UNK         0.4892 
     43 O          23.0005  -30.7480  -41.8206 O.2       6 UNK        -0.5089 
     44 N          23.2908  -29.3229  -40.0660 N.am      7 UNK        -0.4243 
     45 CA         21.9499  -28.7361  -40.0191 C.3       7 UNK         0.0196 
     46 CB         21.8894  -27.6787  -38.9051 C.3       7 UNK        -0.2007 
     47 C          20.8636  -29.8038  -39.8214 C.2       7 UNK         0.5020 
     48 O          20.9062  -30.5321  -38.8278 O.2       7 UNK        -0.5147 
     49 N          19.9421  -29.8972  -40.7895 N.am      8 UNK        -0.4734 
     50 CA         18.8548  -30.8820  -40.8786 C.3       8 UNK         0.0238 
     51 CB         17.8102  -30.6399  -39.7670 C.3       8 UNK        -0.1912 
     52 C          19.3557  -32.3413  -40.9027 C.2       8 UNK         0.5038 
     53 O          18.6719  -33.2243  -40.3815 O.2       8 UNK        -0.5046 
     54 N          20.5466  -32.5597  -41.4814 N.am      9 UNK        -0.4200 
     55 CA         21.2954  -33.8269  -41.4810 C.3       9 UNK         0.0839 
     56 C          21.8784  -34.2176  -40.0867 C.2       9 UNK         0.5513 
     57 N          21.8787  -33.3464  -39.0835 N.am      9 UNK        -0.7519 
     58 O          22.3779  -35.3266  -39.9148 O.2       9 UNK        -0.4960 
     59 C59        20.5361  -35.0054  -42.1656 C.3       10 UNK        -0.0876 
     60 S60        20.2787  -34.7806  -43.9591 S.3       10 UNK        -0.2414 
     61 C61        18.5893  -34.0819  -44.0640 C.3       10 UNK         0.0169 
     62 H62        14.6433  -23.8619  -40.0111 H         1 UNK         0.0903 
     63 H63        13.6203  -24.6876  -41.1887 H         1 UNK         0.0903 
     64 H64        13.8981  -25.4096  -39.6028 H         1 UNK         0.0903 
     65 H65        14.8104  -25.6521  -42.7808 H         1 UNK         0.3096 
     66 H66        16.2633  -26.7529  -43.9650 H         1 UNK         0.1121 
     67 H67        17.2226  -27.9752  -41.3456 H         1 UNK         0.0849 
     68 H68        17.8922  -28.4349  -42.8549 H         1 UNK         0.0849 
     69 H69        14.9787  -30.5343  -44.5309 H         1 UNK         0.0865 
     70 H70        15.7080  -29.0300  -45.0197 H         1 UNK         0.0865 
     71 H71        16.3962  -32.5114  -43.9305 H         1 UNK         0.1346 
     72 H72        20.6087  -32.2598  -44.7663 H         1 UNK         0.1412 
     73 H73        18.1509  -28.7947  -45.1450 H         1 UNK         0.1426 
     74 H74        21.6067  -30.1874  -45.4094 H         1 UNK         0.0716 
     75 H75        20.5729  -28.9172  -46.0520 H         1 UNK         0.0716 
     76 H76        23.0410  -28.1597  -44.8097 H         1 UNK         0.0695 
     77 H77        23.0458  -27.5632  -43.1708 H         1 UNK         0.0695 
     78 H78        21.6653  -26.2753  -45.5815 H         1 UNK         0.0983 
     79 H79        20.1894  -25.3135  -44.2748 H         1 UNK         0.3095 
     80 H80        19.9673  -24.4727  -40.8257 H         1 UNK         0.0454 
     81 H81        19.4005  -23.1290  -43.5187 H         1 UNK         0.0851 
     82 H82        20.4928  -22.5285  -42.2829 H         1 UNK         0.0851 
     83 H83        18.7726  -22.6378  -41.9479 H         1 UNK         0.0851 
     84 H84        18.1354  -25.6313  -41.1624 H         1 UNK         0.2976 
     85 H85        24.2275  -26.8495  -45.7768 H         1 UNK         0.3116 
     86 H86        25.9213  -24.6256  -44.7843 H         1 UNK         0.0646 
     87 H87        25.3652  -24.1267  -47.1880 H         1 UNK         0.0847 
     88 H88        27.0622  -24.5249  -46.9842 H         1 UNK         0.0847 
     89 H89        25.9595  -25.7201  -47.6545 H         1 UNK         0.0847 
     90 H90        25.3736  -27.1738  -43.6635 H         1 UNK         0.3040 
     91 H91        27.9377  -28.3706  -43.3818 H         1 UNK         0.1015 
     92 H92        25.8101  -30.0577  -44.8436 H         1 UNK         0.0786 
     93 H93        27.3782  -30.6372  -44.2745 H         1 UNK         0.0786 
     94 H94        27.2995  -29.4676  -45.5690 H         1 UNK         0.0786 
     95 H95        26.1550  -30.9081  -42.6900 H         1 UNK         0.3172 
     96 H96        25.6138  -30.2445  -39.9259 H         1 UNK         0.0595 
     97 H97        24.8930  -32.7179  -41.5944 H         1 UNK         0.0839 
     98 H98        24.7418  -32.5827  -39.8497 H         1 UNK         0.0839 
     99 H99        26.3320  -32.5253  -40.5920 H         1 UNK         0.0839 
    100 H100       23.9532  -28.9744  -39.3887 H         1 UNK         0.2998 
    101 H101       21.7855  -28.2248  -40.9679 H         1 UNK         0.0822 
    102 H102       20.9016  -27.2177  -38.8614 H         1 UNK         0.0787 
    103 H103       22.0931  -28.1110  -37.9246 H         1 UNK         0.0787 
    104 H104       22.6094  -26.8788  -39.0798 H         1 UNK         0.0787 
    105 H105       20.0566  -29.3040  -41.6028 H         1 UNK         0.3055 
    106 H106       18.3657  -30.7166  -41.8389 H         1 UNK         0.1106 
    107 H107       16.9138  -31.2365  -39.9405 H         1 UNK         0.0828 
    108 H108       18.1965  -30.9116  -38.7841 H         1 UNK         0.0828 
    109 H109       17.4984  -29.5977  -39.7236 H         1 UNK         0.0828 
    110 H110       21.0664  -31.7618  -41.8290 H         1 UNK         0.2931 
    111 H111       22.1792  -33.6229  -42.0866 H         1 UNK         0.0412 
    112 H112       22.2690  -33.6243  -38.1975 H         1 UNK         0.3472 
    113 H113       21.4751  -32.4210  -39.1835 H         1 UNK         0.3472 
    114 H114       19.5893  -35.2177  -41.6692 H         1 UNK         0.0970 
    115 H115       21.1143  -35.9260  -42.0710 H         1 UNK         0.0970 
    116 H116       18.0446  -34.3034  -43.1453 H         1 UNK         0.0612 
    117 H117       18.0638  -34.6072  -44.8624 H         1 UNK         0.0612 
@<TRIPOS>BOND
     1    1    2 1    
     2    1   62 1    
     3    1   63 1    
     4    1   64 1    
     5    2    3 2    
     6    2    4 am   BACKBONE|DICT|INTERRES
     7    4    5 1    
     8    4   65 1    
     9    5    6 1    
    10    5   25 1    
    11    5   66 1    
    12    6    7 1    
    13    6   67 1    
    14    6   68 1    
    15    7    8 1    
    16    8    9 1    
    17    8   69 1    
    18    8   70 1    
    19    9   10 ar   
    20    9   14 ar   
    21   10   11 ar   
    22   10   71 1    
    23   11   12 ar   
    24   11   61 1    
    25   12   13 ar   
    26   12   72 1    
    27   13   14 ar   
    28   13   15 1    
    29   14   73 1    
    30   15   16 1    
    31   15   74 1    
    32   15   75 1    
    33   16   17 1    
    34   17   18 1    
    35   17   76 1    
    36   17   77 1    
    37   18   19 1    
    38   18   27 1    
    39   18   78 1    
    40   19   20 am   BACKBONE|DICT|INTERRES
    41   19   79 1    
    42   20   21 2    
    43   20   22 1    
    44   22   23 1    
    45   22   24 1    
    46   22   80 1    
    47   23   81 1    
    48   23   82 1    
    49   23   83 1    
    50   24   25 am   BACKBONE|DICT|INTERRES
    51   24   84 1    
    52   25   26 2    
    53   27   28 2    
    54   27   29 am   BACKBONE|DICT|INTERRES
    55   29   30 1    
    56   29   85 1    
    57   30   31 1    
    58   30   32 1    
    59   30   86 1    
    60   31   87 1    
    61   31   88 1    
    62   31   89 1    
    63   32   33 2    
    64   32   34 am   BACKBONE|DICT|INTERRES
    65   34   35 1    
    66   34   90 1    
    67   35   36 1    
    68   35   37 1    
    69   35   91 1    
    70   36   92 1    
    71   36   93 1    
    72   36   94 1    
    73   37   38 2    
    74   37   39 am   BACKBONE|DICT|INTERRES
    75   39   40 1    
    76   39   95 1    
    77   40   41 1    
    78   40   42 1    
    79   40   96 1    
    80   41   97 1    
    81   41   98 1    
    82   41   99 1    
    83   42   43 2    
    84   42   44 am   BACKBONE|DICT|INTERRES
    85   44   45 1    
    86   44  100 1    
    87   45   46 1    
    88   45   47 1    
    89   45  101 1    
    90   46  102 1    
    91   46  103 1    
    92   46  104 1    
    93   47   48 2    
    94   47   49 am   BACKBONE|DICT|INTERRES
    95   49   50 1    
    96   49  105 1    
    97   50   51 1    
    98   50   52 1    
    99   50  106 1    
   100   51  107 1    
   101   51  108 1    
   102   51  109 1    
   103   52   53 2    
   104   52   54 am   BACKBONE|DICT|INTERRES
   105   54   55 1    
   106   54  110 1    
   107   55   56 1    
   108   55   59 1    
   109   55  111 1    
   110   56   57 am   BACKBONE|DICT|INTERRES
   111   56   58 2    
   112   57  112 1    
   113   57  113 1    
   114   59   60 1    
   115   59  114 1    
   116   59  115 1    
   117   60   61 1    
   118   61  116 1    
   119   61  117 1    
@<TRIPOS>SUBSTRUCTURE
     1 UNK         1 GROUP             0       ****    0 ROOT    
