@<TRIPOS>MOLECULE
3R8
117   119    1
SMALL
USER_CHARGES


@<TRIPOS>ATOM
      1 CA         16.4568  -26.7403  -40.4758 C.3       0 UNK        -0.2013 
      2 C          17.2195  -27.6277  -41.4541 C.2       0 UNK         0.4866 
      3 O          17.5234  -28.7682  -41.1201 O.2       0 UNK        -0.5176 
      4 N          17.5472  -27.1588  -42.6619 N.am      1 UNK        -0.4884 
      5 CA         17.2710  -25.8333  -43.2096 C.3       1 UNK         0.0853 
      6 C6         15.9262  -25.8129  -43.9907 C.3       10 UNK        -0.0849 
      7 S7         15.8864  -26.6818  -45.6077 S.3       10 UNK        -0.2776 
      8 C8         15.7432  -28.4469  -45.1470 C.3       10 UNK         0.0316 
      9 C9         17.0545  -29.2434  -45.1470 C.ar      10 UNK        -0.0863 
     10 C10        17.1494  -30.3750  -44.3311 C.ar      10 UNK        -0.1009 
     11 C11        18.2861  -31.1873  -44.3563 C.ar      10 UNK        -0.0712 
     12 C12        19.3576  -30.8383  -45.1850 C.ar      10 UNK        -0.0894 
     13 C13        19.3016  -29.7000  -45.9973 C.ar      10 UNK        -0.0745 
     14 C14        18.1317  -28.9247  -45.9873 C.ar      10 UNK        -0.0972 
     15 C15        20.4990  -29.3854  -46.9057 C.3       10 UNK         0.0209 
     16 S16        20.6361  -27.6431  -47.4522 S.3       10 UNK        -0.2568 
     17 C17        22.3631  -27.1650  -47.0418 C.3       10 UNK        -0.0983 
     18 CA         22.5127  -26.2735  -45.7729 C.3       3 UNK         0.0876 
     19 N          21.4697  -25.2479  -45.7150 N.am      3 UNK        -0.4424 
     20 C          21.2920  -24.3050  -44.7807 C.2       2 UNK         0.4918 
     21 O          22.1032  -24.0450  -43.8921 O.2       2 UNK        -0.4875 
     22 CA         19.9529  -23.5362  -44.8405 C.3       2 UNK         0.0481 
     23 CB         19.4608  -23.3027  -46.2863 C.3       2 UNK        -0.1831 
     24 N          18.8811  -24.1521  -44.0391 N.am      2 UNK        -0.4498 
     25 C          18.4786  -25.4334  -44.0723 C.2       1 UNK         0.5027 
     26 O          19.0137  -26.3024  -44.7589 O.2       1 UNK        -0.4969 
     27 C          22.5670  -27.1371  -44.4973 C.2       3 UNK         0.5005 
     28 O          23.6527  -27.3559  -43.9543 O.2       3 UNK        -0.5279 
     29 N          21.3944  -27.6321  -44.0709 N.am      4 UNK        -0.4463 
     30 CA         21.1168  -28.4587  -42.8885 C.3       4 UNK         0.0283 
     31 CB         21.1096  -27.5680  -41.6304 C.3       4 UNK        -0.1875 
     32 C          22.0272  -29.6938  -42.7216 C.2       4 UNK         0.4949 
     33 O          22.2188  -30.1493  -41.5953 O.2       4 UNK        -0.5039 
     34 N          22.6115  -30.1798  -43.8282 N.am      5 UNK        -0.4663 
     35 CA         23.6604  -31.2059  -43.9056 C.3       5 UNK         0.0242 
     36 CB         23.0716  -32.6020  -43.6235 C.3       5 UNK        -0.1982 
     37 C          24.8841  -30.8763  -43.0231 C.2       5 UNK         0.5017 
     38 O          25.4034  -31.7595  -42.3404 O.2       5 UNK        -0.5012 
     39 N          25.2917  -29.5959  -43.0239 N.am      6 UNK        -0.4439 
     40 CA         26.3250  -29.0008  -42.1651 C.3       6 UNK         0.0297 
     41 CB         27.7186  -29.6001  -42.4532 C.3       6 UNK        -0.2006 
     42 C          25.9312  -29.0511  -40.6750 C.2       6 UNK         0.4892 
     43 O          26.7455  -29.4162  -39.8261 O.2       6 UNK        -0.5089 
     44 N          24.6674  -28.6901  -40.4091 N.am      7 UNK        -0.4243 
     45 CA         23.9717  -28.6554  -39.1159 C.3       7 UNK         0.0196 
     46 CB         24.7000  -27.7486  -38.1013 C.3       7 UNK        -0.2007 
     47 C          23.6281  -30.0364  -38.5234 C.2       7 UNK         0.5020 
     48 O          23.0863  -30.0866  -37.4182 O.2       7 UNK        -0.5147 
     49 N          23.8838  -31.1307  -39.2553 N.am      8 UNK        -0.4734 
     50 CA         23.5224  -32.4948  -38.8530 C.3       8 UNK         0.0238 
     51 CB         24.2390  -33.5106  -39.7550 C.3       8 UNK        -0.1912 
     52 C          22.0031  -32.7489  -38.8416 C.2       8 UNK         0.5038 
     53 O          21.5478  -33.5894  -38.0645 O.2       8 UNK        -0.5046 
     54 N          21.2485  -32.0134  -39.6695 N.am      9 UNK        -0.4200 
     55 CA         19.7760  -31.9997  -39.6719 C.3       9 UNK         0.0839 
     56 C          19.1506  -31.1924  -38.4952 C.2       9 UNK         0.5513 
     57 N          19.9195  -30.4729  -37.6838 N.am      9 UNK        -0.7519 
     58 O          17.9393  -31.2399  -38.2980 O.2       9 UNK        -0.4960 
     59 C59        19.2012  -31.5357  -41.0372 C.3       10 UNK        -0.0876 
     60 S60        19.7168  -32.6164  -42.4119 S.3       10 UNK        -0.2414 
     61 C61        18.3108  -32.4889  -43.5601 C.3       10 UNK         0.0169 
     62 H62        16.1143  -27.3243  -39.6216 H         1 UNK         0.0903 
     63 H63        17.0991  -25.9448  -40.0992 H         1 UNK         0.0903 
     64 H64        15.5788  -26.2961  -40.9430 H         1 UNK         0.0903 
     65 H65        18.0514  -27.7528  -43.3093 H         1 UNK         0.3096 
     66 H66        17.2116  -25.1106  -42.3942 H         1 UNK         0.1121 
     67 H67        15.1213  -26.2026  -43.3664 H         1 UNK         0.0849 
     68 H68        15.6518  -24.7751  -44.1875 H         1 UNK         0.0849 
     69 H69        15.2581  -28.5204  -44.1725 H         1 UNK         0.0865 
     70 H70        15.0669  -28.9245  -45.8569 H         1 UNK         0.0865 
     71 H71        16.3147  -30.6482  -43.6998 H         1 UNK         0.1346 
     72 H72        20.2326  -31.4734  -45.2090 H         1 UNK         0.1412 
     73 H73        18.0558  -28.0653  -46.6372 H         1 UNK         0.1426 
     74 H74        20.4283  -30.0140  -47.7941 H         1 UNK         0.0716 
     75 H75        21.4206  -29.6770  -46.4035 H         1 UNK         0.0716 
     76 H76        22.7342  -26.6024  -47.8998 H         1 UNK         0.0695 
     77 H77        23.0013  -28.0495  -46.9924 H         1 UNK         0.0695 
     78 H78        23.4696  -25.7510  -45.8345 H         1 UNK         0.0983 
     79 H79        20.6954  -25.4161  -46.3426 H         1 UNK         0.3095 
     80 H80        20.1429  -22.5561  -44.4003 H         1 UNK         0.0454 
     81 H81        20.2504  -22.8794  -46.9087 H         1 UNK         0.0851 
     82 H82        18.6286  -22.5990  -46.3049 H         1 UNK         0.0851 
     83 H83        19.1190  -24.2219  -46.7638 H         1 UNK         0.0851 
     84 H84        18.4005  -23.5179  -43.4159 H         1 UNK         0.2976 
     85 H85        20.5654  -27.3411  -44.5886 H         1 UNK         0.3116 
     86 H86        20.1074  -28.8490  -43.0240 H         1 UNK         0.0646 
     87 H87        22.0968  -27.1533  -41.4263 H         1 UNK         0.0847 
     88 H88        20.4174  -26.7340  -41.7427 H         1 UNK         0.0847 
     89 H89        20.7931  -28.1282  -40.7494 H         1 UNK         0.0847 
     90 H90        22.3983  -29.7060  -44.6925 H         1 UNK         0.3040 
     91 H91        24.0258  -31.2052  -44.9337 H         1 UNK         0.1015 
     92 H92        23.8248  -33.3816  -43.7439 H         1 UNK         0.0786 
     93 H93        22.2558  -32.8332  -44.3078 H         1 UNK         0.0786 
     94 H94        22.6845  -32.6744  -42.6078 H         1 UNK         0.0786 
     95 H95        24.7506  -28.9258  -43.5669 H         1 UNK         0.3172 
     96 H96        26.3646  -27.9435  -42.4320 H         1 UNK         0.0595 
     97 H97        27.7856  -30.6453  -42.1499 H         1 UNK         0.0839 
     98 H98        28.4934  -29.0579  -41.9100 H         1 UNK         0.0839 
     99 H99        27.9651  -29.5412  -43.5132 H         1 UNK         0.0839 
    100 H100       24.0837  -28.4721  -41.2051 H         1 UNK         0.2998 
    101 H101       23.0073  -28.1906  -39.3228 H         1 UNK         0.0822 
    102 H102       24.0899  -27.5902  -37.2112 H         1 UNK         0.0787 
    103 H103       24.9116  -26.7670  -38.5253 H         1 UNK         0.0787 
    104 H104       25.6431  -28.1836  -37.7700 H         1 UNK         0.0787 
    105 H105       24.2860  -31.0134  -40.1762 H         1 UNK         0.3055 
    106 H106       23.8788  -32.6428  -37.8311 H         1 UNK         0.1106 
    107 H107       25.3193  -33.3647  -39.7396 H         1 UNK         0.0828 
    108 H108       24.0439  -34.5313  -39.4239 H         1 UNK         0.0828 
    109 H109       23.9073  -33.4368  -40.7897 H         1 UNK         0.0828 
    110 H110       21.7000  -31.3516  -40.2978 H         1 UNK         0.2931 
    111 H111       19.4436  -33.0291  -39.5242 H         1 UNK         0.0412 
    112 H112       19.4911  -29.9679  -36.9243 H         1 UNK         0.3472 
    113 H113       20.9238  -30.4510  -37.7976 H         1 UNK         0.3472 
    114 H114       18.1104  -31.5159  -41.0031 H         1 UNK         0.0970 
    115 H115       19.5125  -30.5144  -41.2560 H         1 UNK         0.0970 
    116 H116       18.3728  -33.3180  -44.2660 H         1 UNK         0.0612 
    117 H117       17.3813  -32.6327  -43.0074 H         1 UNK         0.0612 
@<TRIPOS>BOND
     1    1    2 1    
     2    1   62 1    
     3    1   63 1    
     4    1   64 1    
     5    2    3 2    
     6    2    4 am   BACKBONE|DICT|INTERRES
     7    4    5 1    
     8    4   65 1    
     9    5    6 1    
    10    5   25 1    
    11    5   66 1    
    12    6    7 1    
    13    6   67 1    
    14    6   68 1    
    15    7    8 1    
    16    8    9 1    
    17    8   69 1    
    18    8   70 1    
    19    9   10 ar   
    20    9   14 ar   
    21   10   11 ar   
    22   10   71 1    
    23   11   12 ar   
    24   11   61 1    
    25   12   13 ar   
    26   12   72 1    
    27   13   14 ar   
    28   13   15 1    
    29   14   73 1    
    30   15   16 1    
    31   15   74 1    
    32   15   75 1    
    33   16   17 1    
    34   17   18 1    
    35   17   76 1    
    36   17   77 1    
    37   18   19 1    
    38   18   27 1    
    39   18   78 1    
    40   19   20 am   BACKBONE|DICT|INTERRES
    41   19   79 1    
    42   20   21 2    
    43   20   22 1    
    44   22   23 1    
    45   22   24 1    
    46   22   80 1    
    47   23   81 1    
    48   23   82 1    
    49   23   83 1    
    50   24   25 am   BACKBONE|DICT|INTERRES
    51   24   84 1    
    52   25   26 2    
    53   27   28 2    
    54   27   29 am   BACKBONE|DICT|INTERRES
    55   29   30 1    
    56   29   85 1    
    57   30   31 1    
    58   30   32 1    
    59   30   86 1    
    60   31   87 1    
    61   31   88 1    
    62   31   89 1    
    63   32   33 2    
    64   32   34 am   BACKBONE|DICT|INTERRES
    65   34   35 1    
    66   34   90 1    
    67   35   36 1    
    68   35   37 1    
    69   35   91 1    
    70   36   92 1    
    71   36   93 1    
    72   36   94 1    
    73   37   38 2    
    74   37   39 am   BACKBONE|DICT|INTERRES
    75   39   40 1    
    76   39   95 1    
    77   40   41 1    
    78   40   42 1    
    79   40   96 1    
    80   41   97 1    
    81   41   98 1    
    82   41   99 1    
    83   42   43 2    
    84   42   44 am   BACKBONE|DICT|INTERRES
    85   44   45 1    
    86   44  100 1    
    87   45   46 1    
    88   45   47 1    
    89   45  101 1    
    90   46  102 1    
    91   46  103 1    
    92   46  104 1    
    93   47   48 2    
    94   47   49 am   BACKBONE|DICT|INTERRES
    95   49   50 1    
    96   49  105 1    
    97   50   51 1    
    98   50   52 1    
    99   50  106 1    
   100   51  107 1    
   101   51  108 1    
   102   51  109 1    
   103   52   53 2    
   104   52   54 am   BACKBONE|DICT|INTERRES
   105   54   55 1    
   106   54  110 1    
   107   55   56 1    
   108   55   59 1    
   109   55  111 1    
   110   56   57 am   BACKBONE|DICT|INTERRES
   111   56   58 2    
   112   57  112 1    
   113   57  113 1    
   114   59   60 1    
   115   59  114 1    
   116   59  115 1    
   117   60   61 1    
   118   61  116 1    
   119   61  117 1    
@<TRIPOS>SUBSTRUCTURE
     1 UNK         1 GROUP             0       ****    0 ROOT    
