@<TRIPOS>MOLECULE
3R8
117   119    1
SMALL
USER_CHARGES


@<TRIPOS>ATOM
      1 CA         12.1054  -24.5932  -45.0819 C.3       0 UNK        -0.2013 
      2 C          13.4708  -25.2227  -44.8464 C.2       0 UNK         0.4866 
      3 O          13.9669  -25.1764  -43.7212 O.2       0 UNK        -0.5176 
      4 N          14.0614  -25.7983  -45.9054 N.am      1 UNK        -0.4884 
      5 CA         15.3702  -26.4674  -45.9747 C.3       1 UNK         0.0853 
      6 C6         15.3209  -27.9761  -45.5867 C.3       10 UNK        -0.0849 
      7 S7         14.9862  -28.3875  -43.8331 S.3       10 UNK        -0.2776 
      8 C8         15.9738  -29.9012  -43.5887 C.3       10 UNK         0.0316 
      9 C9         17.4716  -29.6276  -43.6188 C.ar      10 UNK        -0.0863 
     10 C10        18.1282  -29.1502  -42.4800 C.ar      10 UNK        -0.1009 
     11 C11        19.5044  -28.9007  -42.5072 C.ar      10 UNK        -0.0712 
     12 C12        20.2222  -29.1403  -43.6825 C.ar      10 UNK        -0.0894 
     13 C13        19.5733  -29.5962  -44.8325 C.ar      10 UNK        -0.0745 
     14 C14        18.2028  -29.8571  -44.7876 C.ar      10 UNK        -0.0972 
     15 C15        20.3394  -29.7918  -46.1318 C.3       10 UNK         0.0209 
     16 S16        20.4330  -28.2395  -47.0864 S.3       10 UNK        -0.2568 
     17 C17        21.7918  -27.3733  -46.2284 C.3       10 UNK        -0.0983 
     18 CA         21.3963  -26.0504  -45.5142 C.3       3 UNK         0.0876 
     19 N          20.1322  -26.1536  -44.7681 N.am      3 UNK        -0.4424 
     20 C          19.4483  -25.1169  -44.2658 C.2       2 UNK         0.4918 
     21 O          19.7985  -23.9424  -44.3909 O.2       2 UNK        -0.4875 
     22 CA         18.1774  -25.4718  -43.4737 C.3       2 UNK         0.0481 
     23 CB         17.5798  -24.2626  -42.7241 C.3       2 UNK        -0.1831 
     24 N          17.1557  -26.1275  -44.2957 N.am      2 UNK        -0.4498 
     25 C          16.5149  -25.6245  -45.3609 C.2       1 UNK         0.5027 
     26 O          16.7752  -24.5317  -45.8693 O.2       1 UNK        -0.4969 
     27 C          22.5894  -25.5828  -44.6438 C.2       3 UNK         0.5005 
     28 O          23.6230  -25.2134  -45.2029 O.2       3 UNK        -0.5279 
     29 N          22.4438  -25.6548  -43.3085 N.am      4 UNK        -0.4463 
     30 CA         23.4724  -25.4515  -42.2778 C.3       4 UNK         0.0283 
     31 CB         24.0103  -24.0046  -42.2906 C.3       4 UNK        -0.1875 
     32 C          24.5821  -26.5177  -42.3682 C.2       4 UNK         0.4949 
     33 O          25.7697  -26.1928  -42.3526 O.2       4 UNK        -0.5039 
     34 N          24.1560  -27.7832  -42.4758 N.am      5 UNK        -0.4663 
     35 CA         25.0137  -28.9551  -42.6761 C.3       5 UNK         0.0242 
     36 CB         24.2620  -29.9523  -43.5749 C.3       5 UNK        -0.1982 
     37 C          25.4724  -29.6173  -41.3602 C.2       5 UNK         0.5017 
     38 O          26.1240  -30.6619  -41.4131 O.2       5 UNK        -0.5012 
     39 N          25.1296  -29.0147  -40.2110 N.am      6 UNK        -0.4439 
     40 CA         25.4536  -29.4449  -38.8463 C.3       6 UNK         0.0297 
     41 CB         26.9668  -29.2862  -38.5700 C.3       6 UNK        -0.2006 
     42 C          24.8979  -30.8506  -38.5488 C.2       6 UNK         0.4892 
     43 O          23.6791  -31.0204  -38.5397 O.2       6 UNK        -0.5089 
     44 N          25.7790  -31.8360  -38.3287 N.am      7 UNK        -0.4243 
     45 CA         25.4231  -33.2332  -38.0589 C.3       7 UNK         0.0196 
     46 CB         26.6965  -34.0215  -37.7135 C.3       7 UNK        -0.2007 
     47 C          24.6619  -33.9192  -39.2088 C.2       7 UNK         0.5020 
     48 O          23.8833  -34.8375  -38.9508 O.2       7 UNK        -0.5147 
     49 N          24.8731  -33.4567  -40.4491 N.am      8 UNK        -0.4734 
     50 CA         24.1976  -33.9683  -41.6439 C.3       8 UNK         0.0238 
     51 CB         25.0806  -33.7152  -42.8761 C.3       8 UNK        -0.1912 
     52 C          22.7637  -33.4325  -41.8334 C.2       8 UNK         0.5038 
     53 O          22.0848  -33.8945  -42.7516 O.2       8 UNK        -0.5046 
     54 N          22.3047  -32.5122  -40.9696 N.am      9 UNK        -0.4200 
     55 CA         20.8932  -32.0918  -40.8898 C.3       9 UNK         0.0839 
     56 C          19.9297  -33.2031  -40.3748 C.2       9 UNK         0.5513 
     57 N          20.4122  -34.2633  -39.7348 N.am      9 UNK        -0.7519 
     58 O          18.7202  -33.0994  -40.5597 O.2       9 UNK        -0.4960 
     59 C59        20.7087  -30.8047  -40.0448 C.3       10 UNK        -0.0876 
     60 S60        21.5933  -29.3632  -40.7258 S.3       10 UNK        -0.2414 
     61 C61        20.2077  -28.3262  -41.2849 C.3       10 UNK         0.0169 
     62 H62        11.3618  -25.0602  -44.4364 H         1 UNK         0.0903 
     63 H63        12.1381  -23.5291  -44.8490 H         1 UNK         0.0903 
     64 H64        11.7743  -24.7040  -46.1144 H         1 UNK         0.0903 
     65 H65        13.5770  -25.7533  -46.7915 H         1 UNK         0.3096 
     66 H66        15.6057  -26.4604  -47.0408 H         1 UNK         0.1121 
     67 H67        16.2505  -28.4431  -45.9048 H         1 UNK         0.0849 
     68 H68        14.5491  -28.4679  -46.1806 H         1 UNK         0.0849 
     69 H69        15.7064  -30.3440  -42.6280 H         1 UNK         0.0865 
     70 H70        15.7006  -30.6387  -44.3452 H         1 UNK         0.0865 
     71 H71        17.5629  -28.9636  -41.5768 H         1 UNK         0.1346 
     72 H72        21.2858  -28.9551  -43.7020 H         1 UNK         0.1412 
     73 H73        17.7030  -30.2275  -45.6724 H         1 UNK         0.1426 
     74 H74        19.8440  -30.5466  -46.7445 H         1 UNK         0.0716 
     75 H75        21.3403  -30.1786  -45.9336 H         1 UNK         0.0716 
     76 H76        22.2635  -28.0645  -45.5308 H         1 UNK         0.0695 
     77 H77        22.5584  -27.1640  -46.9770 H         1 UNK         0.0695 
     78 H78        21.2492  -25.2882  -46.2827 H         1 UNK         0.0983 
     79 H79        19.7506  -27.0854  -44.6705 H         1 UNK         0.3095 
     80 H80        18.4735  -26.1986  -42.7176 H         1 UNK         0.0454 
     81 H81        16.7096  -24.5536  -42.1355 H         1 UNK         0.0851 
     82 H82        18.3079  -23.8305  -42.0368 H         1 UNK         0.0851 
     83 H83        17.2692  -23.4713  -43.4070 H         1 UNK         0.0851 
     84 H84        16.8362  -27.0296  -43.9619 H         1 UNK         0.2976 
     85 H85        21.5386  -25.9432  -42.9694 H         1 UNK         0.3116 
     86 H86        22.9791  -25.6052  -41.3167 H         1 UNK         0.0646 
     87 H87        24.6737  -23.8297  -41.4429 H         1 UNK         0.0847 
     88 H88        23.1997  -23.2792  -42.2226 H         1 UNK         0.0847 
     89 H89        24.5799  -23.7872  -43.1944 H         1 UNK         0.0847 
     90 H90        23.1640  -27.9636  -42.4289 H         1 UNK         0.3040 
     91 H91        25.9178  -28.6446  -43.2048 H         1 UNK         0.1015 
     92 H92        23.8503  -29.4638  -44.4570 H         1 UNK         0.0786 
     93 H93        23.4442  -30.4448  -43.0469 H         1 UNK         0.0786 
     94 H94        24.9373  -30.7240  -43.9404 H         1 UNK         0.0786 
     95 H95        24.5445  -28.1953  -40.2837 H         1 UNK         0.3172 
     96 H96        24.9255  -28.7650  -38.1762 H         1 UNK         0.0595 
     97 H97        27.2802  -28.2521  -38.7139 H         1 UNK         0.0839 
     98 H98        27.5790  -29.9049  -39.2270 H         1 UNK         0.0839 
     99 H99        27.2103  -29.5491  -37.5396 H         1 UNK         0.0839 
    100 H100       26.7634  -31.6166  -38.3772 H         1 UNK         0.2998 
    101 H101       24.7662  -33.2430  -37.1864 H         1 UNK         0.0822 
    102 H102       26.4608  -35.0612  -37.4811 H         1 UNK         0.0787 
    103 H103       27.4058  -34.0258  -38.5423 H         1 UNK         0.0787 
    104 H104       27.1993  -33.6031  -36.8413 H         1 UNK         0.0787 
    105 H105       25.4961  -32.6672  -40.5797 H         1 UNK         0.3055 
    106 H106       24.0949  -35.0513  -41.5418 H         1 UNK         0.1106 
    107 H107       26.0110  -34.2796  -42.8131 H         1 UNK         0.0828 
    108 H108       24.5812  -34.0208  -43.7966 H         1 UNK         0.0828 
    109 H109       25.3413  -32.6651  -42.9754 H         1 UNK         0.0828 
    110 H110       22.9144  -32.1612  -40.2409 H         1 UNK         0.2931 
    111 H111       20.5697  -31.8593  -41.9067 H         1 UNK         0.0412 
    112 H112       19.7756  -34.9738  -39.4092 H         1 UNK         0.3472 
    113 H113       21.4027  -34.3587  -39.5665 H         1 UNK         0.3472 
    114 H114       21.0567  -30.9686  -39.0237 H         1 UNK         0.0970 
    115 H115       19.6497  -30.5544  -39.9577 H         1 UNK         0.0970 
    116 H116       19.5098  -28.1832  -40.4584 H         1 UNK         0.0612 
    117 H117       20.5911  -27.3364  -41.5318 H         1 UNK         0.0612 
@<TRIPOS>BOND
     1    1    2 1    
     2    1   62 1    
     3    1   63 1    
     4    1   64 1    
     5    2    3 2    
     6    2    4 am   BACKBONE|DICT|INTERRES
     7    4    5 1    
     8    4   65 1    
     9    5    6 1    
    10    5   25 1    
    11    5   66 1    
    12    6    7 1    
    13    6   67 1    
    14    6   68 1    
    15    7    8 1    
    16    8    9 1    
    17    8   69 1    
    18    8   70 1    
    19    9   10 ar   
    20    9   14 ar   
    21   10   11 ar   
    22   10   71 1    
    23   11   12 ar   
    24   11   61 1    
    25   12   13 ar   
    26   12   72 1    
    27   13   14 ar   
    28   13   15 1    
    29   14   73 1    
    30   15   16 1    
    31   15   74 1    
    32   15   75 1    
    33   16   17 1    
    34   17   18 1    
    35   17   76 1    
    36   17   77 1    
    37   18   19 1    
    38   18   27 1    
    39   18   78 1    
    40   19   20 am   BACKBONE|DICT|INTERRES
    41   19   79 1    
    42   20   21 2    
    43   20   22 1    
    44   22   23 1    
    45   22   24 1    
    46   22   80 1    
    47   23   81 1    
    48   23   82 1    
    49   23   83 1    
    50   24   25 am   BACKBONE|DICT|INTERRES
    51   24   84 1    
    52   25   26 2    
    53   27   28 2    
    54   27   29 am   BACKBONE|DICT|INTERRES
    55   29   30 1    
    56   29   85 1    
    57   30   31 1    
    58   30   32 1    
    59   30   86 1    
    60   31   87 1    
    61   31   88 1    
    62   31   89 1    
    63   32   33 2    
    64   32   34 am   BACKBONE|DICT|INTERRES
    65   34   35 1    
    66   34   90 1    
    67   35   36 1    
    68   35   37 1    
    69   35   91 1    
    70   36   92 1    
    71   36   93 1    
    72   36   94 1    
    73   37   38 2    
    74   37   39 am   BACKBONE|DICT|INTERRES
    75   39   40 1    
    76   39   95 1    
    77   40   41 1    
    78   40   42 1    
    79   40   96 1    
    80   41   97 1    
    81   41   98 1    
    82   41   99 1    
    83   42   43 2    
    84   42   44 am   BACKBONE|DICT|INTERRES
    85   44   45 1    
    86   44  100 1    
    87   45   46 1    
    88   45   47 1    
    89   45  101 1    
    90   46  102 1    
    91   46  103 1    
    92   46  104 1    
    93   47   48 2    
    94   47   49 am   BACKBONE|DICT|INTERRES
    95   49   50 1    
    96   49  105 1    
    97   50   51 1    
    98   50   52 1    
    99   50  106 1    
   100   51  107 1    
   101   51  108 1    
   102   51  109 1    
   103   52   53 2    
   104   52   54 am   BACKBONE|DICT|INTERRES
   105   54   55 1    
   106   54  110 1    
   107   55   56 1    
   108   55   59 1    
   109   55  111 1    
   110   56   57 am   BACKBONE|DICT|INTERRES
   111   56   58 2    
   112   57  112 1    
   113   57  113 1    
   114   59   60 1    
   115   59  114 1    
   116   59  115 1    
   117   60   61 1    
   118   61  116 1    
   119   61  117 1    
@<TRIPOS>SUBSTRUCTURE
     1 UNK         1 GROUP             0       ****    0 ROOT    
