@<TRIPOS>MOLECULE
3R8
117   119    1
SMALL
USER_CHARGES


@<TRIPOS>ATOM
      1 CA         15.8293  -26.4098  -45.0200 C.3       0 UNK        -0.2013 
      2 C          17.3392  -26.4674  -45.1929 C.2       0 UNK         0.4866 
      3 O          18.0602  -26.2955  -44.2095 O.2       0 UNK        -0.5176 
      4 N          17.7996  -26.7166  -46.4308 N.am      1 UNK        -0.4884 
      5 CA         19.1938  -26.8387  -46.8934 C.3       1 UNK         0.0853 
      6 C6         19.7423  -28.2995  -46.8693 C.3       10 UNK        -0.0849 
      7 S7         19.7870  -29.1317  -45.2426 S.3       10 UNK        -0.2776 
      8 C8         18.2530  -30.1094  -45.2999 C.3       10 UNK         0.0316 
      9 C9         17.8867  -30.6140  -43.9143 C.ar      10 UNK        -0.0863 
     10 C10        17.8944  -31.9794  -43.6125 C.ar      10 UNK        -0.1009 
     11 C11        17.5375  -32.4197  -42.3327 C.ar      10 UNK        -0.0712 
     12 C12        17.1968  -31.4839  -41.3492 C.ar      10 UNK        -0.0894 
     13 C13        17.1926  -30.1161  -41.6409 C.ar      10 UNK        -0.0745 
     14 C14        17.5207  -29.6944  -42.9297 C.ar      10 UNK        -0.0972 
     15 C15        16.8106  -29.0972  -40.5760 C.3       10 UNK         0.0209 
     16 S16        18.2701  -28.3675  -39.7621 S.3       10 UNK        -0.2568 
     17 C17        18.6951  -26.9744  -40.8669 C.3       10 UNK        -0.0983 
     18 CA         20.2150  -26.8646  -41.1674 C.3       3 UNK         0.0876 
     19 N          20.4653  -26.2034  -42.4649 N.am      3 UNK        -0.4424 
     20 C          21.6500  -25.7928  -42.9545 C.2       2 UNK         0.4918 
     21 O          22.7016  -25.8146  -42.3159 O.2       2 UNK        -0.4875 
     22 CA         21.6727  -25.2716  -44.4002 C.3       2 UNK         0.0481 
     23 CB         23.0975  -25.1370  -44.9725 C.3       2 UNK        -0.1831 
     24 N          20.8794  -26.1519  -45.2483 N.am      2 UNK        -0.4498 
     25 C          20.1307  -25.7700  -46.2863 C.2       1 UNK         0.5027 
     26 O          20.1209  -24.6257  -46.7454 O.2       1 UNK        -0.4969 
     27 C          20.9532  -26.2443  -39.9577 C.2       3 UNK         0.5005 
     28 O          21.4839  -26.9799  -39.1238 O.2       3 UNK        -0.5279 
     29 N          20.9884  -24.9046  -39.8970 N.am      4 UNK        -0.4463 
     30 CA         21.6471  -24.1296  -38.8411 C.3       4 UNK         0.0283 
     31 CB         21.2209  -22.6572  -38.9575 C.3       4 UNK        -0.1875 
     32 C          23.1841  -24.2418  -38.8364 C.2       4 UNK         0.4949 
     33 O          23.7897  -24.0467  -37.7820 O.2       4 UNK        -0.5039 
     34 N          23.7861  -24.5376  -39.9955 N.am      5 UNK        -0.4663 
     35 CA         25.2243  -24.7508  -40.1553 C.3       5 UNK         0.0242 
     36 CB         25.6963  -24.1234  -41.4788 C.3       5 UNK        -0.1982 
     37 C          25.5487  -26.2496  -40.1064 C.2       5 UNK         0.5017 
     38 O          26.3817  -26.6611  -39.2981 O.2       5 UNK        -0.5012 
     39 N          24.8739  -27.0337  -40.9554 N.am      6 UNK        -0.4439 
     40 CA         24.9880  -28.4840  -41.0637 C.3       6 UNK         0.0297 
     41 CB         26.3535  -28.8969  -41.6503 C.3       6 UNK        -0.2006 
     42 C          23.8424  -28.9815  -41.9495 C.2       6 UNK         0.4892 
     43 O          23.7797  -28.6110  -43.1235 O.2       6 UNK        -0.5089 
     44 N          22.9597  -29.8059  -41.3762 N.am      7 UNK        -0.4243 
     45 CA         21.8541  -30.4496  -42.0844 C.3       7 UNK         0.0196 
     46 CB         20.8952  -31.0567  -41.0514 C.3       7 UNK        -0.2007 
     47 C          22.3587  -31.5395  -43.0420 C.2       7 UNK         0.5020 
     48 O          23.3211  -32.2390  -42.7172 O.2       7 UNK        -0.5147 
     49 N          21.6703  -31.7051  -44.1791 N.am      8 UNK        -0.4734 
     50 CA         21.9951  -32.6941  -45.2168 C.3       8 UNK         0.0238 
     51 CB         21.0974  -32.4636  -46.4428 C.3       8 UNK        -0.1912 
     52 C          21.8929  -34.1568  -44.7465 C.2       8 UNK         0.5038 
     53 O          22.5760  -35.0173  -45.3030 O.2       8 UNK        -0.5046 
     54 N          21.0607  -34.4031  -43.7278 N.am      9 UNK        -0.4200 
     55 CA         20.9545  -35.6795  -43.0096 C.3       9 UNK         0.0839 
     56 C          22.1100  -35.9578  -42.0013 C.2       9 UNK         0.5513 
     57 N          23.0291  -35.0321  -41.7494 N.am      9 UNK        -0.7519 
     58 O          22.1834  -37.0512  -41.4461 O.2       9 UNK        -0.4960 
     59 C59        19.5531  -35.8551  -42.3666 C.3       10 UNK        -0.0876 
     60 S60        19.0646  -34.4711  -41.2714 S.3       10 UNK        -0.2414 
     61 C61        17.4996  -33.9057  -42.0138 C.3       10 UNK         0.0169 
     62 H62        15.5342  -25.4343  -44.6345 H         1 UNK         0.0903 
     63 H63        15.3015  -26.5784  -45.9585 H         1 UNK         0.0903 
     64 H64        15.5063  -27.1690  -44.3081 H         1 UNK         0.0903 
     65 H65        17.1167  -26.8112  -47.1698 H         1 UNK         0.3096 
     66 H66        19.1484  -26.5686  -47.9502 H         1 UNK         0.1121 
     67 H67        19.1523  -28.9127  -47.5521 H         1 UNK         0.0849 
     68 H68        20.7535  -28.3207  -47.2803 H         1 UNK         0.0849 
     69 H69        17.4360  -29.4940  -45.6781 H         1 UNK         0.0865 
     70 H70        18.3683  -30.9335  -46.0045 H         1 UNK         0.0865 
     71 H71        18.1624  -32.7002  -44.3727 H         1 UNK         0.1346 
     72 H72        16.9330  -31.8227  -40.3566 H         1 UNK         0.1412 
     73 H73        17.5040  -28.6439  -43.1745 H         1 UNK         0.1426 
     74 H74        16.1951  -29.5757  -39.8127 H         1 UNK         0.0716 
     75 H75        16.1914  -28.3098  -41.0086 H         1 UNK         0.0716 
     76 H76        18.3065  -26.0504  -40.4343 H         1 UNK         0.0695 
     77 H77        18.1421  -27.1006  -41.7930 H         1 UNK         0.0695 
     78 H78        20.6105  -27.8739  -41.2854 H         1 UNK         0.0983 
     79 H79        19.6571  -26.1427  -43.0815 H         1 UNK         0.3095 
     80 H80        21.2138  -24.2812  -44.3761 H         1 UNK         0.0454 
     81 H81        23.0824  -24.7661  -45.9972 H         1 UNK         0.0851 
     82 H82        23.6210  -26.0942  -44.9682 H         1 UNK         0.0851 
     83 H83        23.6911  -24.4356  -44.3855 H         1 UNK         0.0851 
     84 H84        20.7818  -27.1107  -44.9324 H         1 UNK         0.2976 
     85 H85        20.5368  -24.3822  -40.6340 H         1 UNK         0.3116 
     86 H86        21.2922  -24.5101  -37.8808 H         1 UNK         0.0646 
     87 H87        21.5302  -22.2208  -39.9081 H         1 UNK         0.0847 
     88 H88        21.6694  -22.0576  -38.1640 H         1 UNK         0.0847 
     89 H89        20.1399  -22.5468  -38.8708 H         1 UNK         0.0847 
     90 H90        23.2081  -24.7610  -40.8002 H         1 UNK         0.3040 
     91 H91        25.7690  -24.2637  -39.3430 H         1 UNK         0.1015 
     92 H92        25.1907  -24.5565  -42.3424 H         1 UNK         0.0786 
     93 H93        26.7676  -24.2729  -41.6196 H         1 UNK         0.0786 
     94 H94        25.5149  -23.0486  -41.4915 H         1 UNK         0.0786 
     95 H95        24.1716  -26.6127  -41.5642 H         1 UNK         0.3172 
     96 H96        24.8854  -28.9153  -40.0656 H         1 UNK         0.0595 
     97 H97        26.5336  -28.4257  -42.6174 H         1 UNK         0.0839 
     98 H98        26.4014  -29.9764  -41.7996 H         1 UNK         0.0839 
     99 H99        27.1764  -28.6279  -40.9885 H         1 UNK         0.0839 
    100 H100       23.1007  -30.0815  -40.4153 H         1 UNK         0.2998 
    101 H101       21.3212  -29.6902  -42.6601 H         1 UNK         0.0822 
    102 H102       20.0356  -31.5054  -41.5451 H         1 UNK         0.0787 
    103 H103       21.3741  -31.8391  -40.4610 H         1 UNK         0.0787 
    104 H104       20.5140  -30.3013  -40.3649 H         1 UNK         0.0787 
    105 H105       20.9002  -31.0775  -44.3756 H         1 UNK         0.3055 
    106 H106       23.0326  -32.5262  -45.5148 H         1 UNK         0.1106 
    107 H107       20.0466  -32.6356  -46.2105 H         1 UNK         0.0828 
    108 H108       21.1990  -31.4489  -46.8282 H         1 UNK         0.0828 
    109 H109       21.3646  -33.1430  -47.2534 H         1 UNK         0.0828 
    110 H110       20.5586  -33.6295  -43.3183 H         1 UNK         0.2931 
    111 H111       21.0448  -36.4705  -43.7567 H         1 UNK         0.0412 
    112 H112       23.0045  -34.1214  -42.1960 H         1 UNK         0.3472 
    113 H113       23.7678  -35.2441  -41.0979 H         1 UNK         0.3472 
    114 H114       19.5029  -36.7826  -41.7929 H         1 UNK         0.0970 
    115 H115       18.8192  -35.9805  -43.1626 H         1 UNK         0.0970 
    116 H116       16.6890  -34.1126  -41.3135 H         1 UNK         0.0612 
    117 H117       17.2597  -34.4666  -42.9171 H         1 UNK         0.0612 
@<TRIPOS>BOND
     1    1    2 1    
     2    1   62 1    
     3    1   63 1    
     4    1   64 1    
     5    2    3 2    
     6    2    4 am   BACKBONE|DICT|INTERRES
     7    4    5 1    
     8    4   65 1    
     9    5    6 1    
    10    5   25 1    
    11    5   66 1    
    12    6    7 1    
    13    6   67 1    
    14    6   68 1    
    15    7    8 1    
    16    8    9 1    
    17    8   69 1    
    18    8   70 1    
    19    9   10 ar   
    20    9   14 ar   
    21   10   11 ar   
    22   10   71 1    
    23   11   12 ar   
    24   11   61 1    
    25   12   13 ar   
    26   12   72 1    
    27   13   14 ar   
    28   13   15 1    
    29   14   73 1    
    30   15   16 1    
    31   15   74 1    
    32   15   75 1    
    33   16   17 1    
    34   17   18 1    
    35   17   76 1    
    36   17   77 1    
    37   18   19 1    
    38   18   27 1    
    39   18   78 1    
    40   19   20 am   BACKBONE|DICT|INTERRES
    41   19   79 1    
    42   20   21 2    
    43   20   22 1    
    44   22   23 1    
    45   22   24 1    
    46   22   80 1    
    47   23   81 1    
    48   23   82 1    
    49   23   83 1    
    50   24   25 am   BACKBONE|DICT|INTERRES
    51   24   84 1    
    52   25   26 2    
    53   27   28 2    
    54   27   29 am   BACKBONE|DICT|INTERRES
    55   29   30 1    
    56   29   85 1    
    57   30   31 1    
    58   30   32 1    
    59   30   86 1    
    60   31   87 1    
    61   31   88 1    
    62   31   89 1    
    63   32   33 2    
    64   32   34 am   BACKBONE|DICT|INTERRES
    65   34   35 1    
    66   34   90 1    
    67   35   36 1    
    68   35   37 1    
    69   35   91 1    
    70   36   92 1    
    71   36   93 1    
    72   36   94 1    
    73   37   38 2    
    74   37   39 am   BACKBONE|DICT|INTERRES
    75   39   40 1    
    76   39   95 1    
    77   40   41 1    
    78   40   42 1    
    79   40   96 1    
    80   41   97 1    
    81   41   98 1    
    82   41   99 1    
    83   42   43 2    
    84   42   44 am   BACKBONE|DICT|INTERRES
    85   44   45 1    
    86   44  100 1    
    87   45   46 1    
    88   45   47 1    
    89   45  101 1    
    90   46  102 1    
    91   46  103 1    
    92   46  104 1    
    93   47   48 2    
    94   47   49 am   BACKBONE|DICT|INTERRES
    95   49   50 1    
    96   49  105 1    
    97   50   51 1    
    98   50   52 1    
    99   50  106 1    
   100   51  107 1    
   101   51  108 1    
   102   51  109 1    
   103   52   53 2    
   104   52   54 am   BACKBONE|DICT|INTERRES
   105   54   55 1    
   106   54  110 1    
   107   55   56 1    
   108   55   59 1    
   109   55  111 1    
   110   56   57 am   BACKBONE|DICT|INTERRES
   111   56   58 2    
   112   57  112 1    
   113   57  113 1    
   114   59   60 1    
   115   59  114 1    
   116   59  115 1    
   117   60   61 1    
   118   61  116 1    
   119   61  117 1    
@<TRIPOS>SUBSTRUCTURE
     1 UNK         1 GROUP             0       ****    0 ROOT    
