@<TRIPOS>MOLECULE
3R8
117   119    1
SMALL
USER_CHARGES


@<TRIPOS>ATOM
      1 CA         15.7103  -23.6096  -46.4166 C.3       0 UNK        -0.2013 
      2 C          16.2800  -24.9031  -45.8548 C.2       0 UNK         0.4866 
      3 O          17.4910  -25.0034  -45.6537 O.2       0 UNK        -0.5176 
      4 N          15.4183  -25.8938  -45.5904 N.am      1 UNK        -0.4884 
      5 CA         15.7713  -27.2117  -45.0473 C.3       1 UNK         0.0853 
      6 C6         14.7086  -28.2832  -45.4178 C.3       10 UNK        -0.0849 
      7 S7         15.0208  -28.9452  -47.0894 S.3       10 UNK        -0.2776 
      8 C8         15.9320  -30.4836  -46.7099 C.3       10 UNK         0.0316 
      9 C9         17.1548  -30.2308  -45.8351 C.ar      10 UNK        -0.0863 
     10 C10        17.1051  -30.5010  -44.4635 C.ar      10 UNK        -0.1009 
     11 C11        18.2027  -30.2270  -43.6441 C.ar      10 UNK        -0.0712 
     12 C12        19.3630  -29.6920  -44.2093 C.ar      10 UNK        -0.0894 
     13 C13        19.4351  -29.4329  -45.5798 C.ar      10 UNK        -0.0745 
     14 C14        18.3260  -29.7035  -46.3889 C.ar      10 UNK        -0.0972 
     15 C15        20.7143  -28.8766  -46.1885 C.3       10 UNK         0.0209 
     16 S16        20.9224  -27.1007  -45.8405 S.3       10 UNK        -0.2568 
     17 C17        21.9103  -27.1113  -44.3042 C.3       10 UNK        -0.0983 
     18 CA         21.3333  -26.1698  -43.2184 C.3       3 UNK         0.0876 
     19 N          19.9637  -26.5288  -42.8254 N.am      3 UNK        -0.4424 
     20 C          19.1791  -25.8058  -42.0114 C.2       2 UNK         0.4918 
     21 O          19.5422  -24.7748  -41.4437 O.2       2 UNK        -0.4875 
     22 CA         17.7301  -26.2932  -41.8629 C.3       2 UNK         0.0481 
     23 CB         16.8610  -25.3557  -40.9983 C.3       2 UNK        -0.1831 
     24 N          17.1604  -26.4414  -43.1983 N.am      2 UNK        -0.4498 
     25 C          16.0738  -27.1424  -43.5344 C.2       1 UNK         0.5027 
     26 O          15.3423  -27.7070  -42.7189 O.2       1 UNK        -0.4969 
     27 C          22.3071  -26.0660  -42.0264 C.2       3 UNK         0.5005 
     28 O          23.1481  -25.1652  -42.0188 O.2       3 UNK        -0.5279 
     29 N          22.1808  -26.9810  -41.0510 N.am      4 UNK        -0.4463 
     30 CA         22.9298  -27.0908  -39.7886 C.3       4 UNK         0.0283 
     31 CB         22.7685  -25.8331  -38.9134 C.3       4 UNK        -0.1875 
     32 C          24.4109  -27.4669  -39.9621 C.2       4 UNK         0.4949 
     33 O          24.8639  -28.4349  -39.3494 O.2       4 UNK        -0.5039 
     34 N          25.1242  -26.7326  -40.8256 N.am      5 UNK        -0.4663 
     35 CA         26.5344  -26.9257  -41.1871 C.3       5 UNK         0.0242 
     36 CB         26.9932  -25.7370  -42.0466 C.3       5 UNK        -0.1982 
     37 C          26.8206  -28.2554  -41.9096 C.2       5 UNK         0.5017 
     38 O          27.9718  -28.6887  -41.9483 O.2       5 UNK        -0.5012 
     39 N          25.7650  -28.8960  -42.4288 N.am      6 UNK        -0.4439 
     40 CA         25.7644  -30.2507  -42.9844 C.3       6 UNK         0.0297 
     41 CB         24.4897  -30.4218  -43.8321 C.3       6 UNK        -0.2006 
     42 C          25.8532  -31.3620  -41.9140 C.2       6 UNK         0.4892 
     43 O          25.8645  -32.5331  -42.2916 O.2       6 UNK        -0.5089 
     44 N          25.8908  -30.9815  -40.6249 N.am      7 UNK        -0.4243 
     45 CA         25.6956  -31.7942  -39.4200 C.3       7 UNK         0.0196 
     46 CB         26.6043  -33.0420  -39.3715 C.3       7 UNK        -0.2007 
     47 C          24.1999  -32.1061  -39.2935 C.2       7 UNK         0.5020 
     48 O          23.7655  -33.2206  -39.5896 O.2       7 UNK        -0.5147 
     49 N          23.4346  -31.0634  -38.9382 N.am      8 UNK        -0.4734 
     50 CA         21.9716  -30.9824  -39.0010 C.3       8 UNK         0.0238 
     51 CB         21.2865  -32.0163  -38.0762 C.3       8 UNK        -0.1912 
     52 C          21.5294  -31.0365  -40.4718 C.2       8 UNK         0.5038 
     53 O          21.7210  -30.0445  -41.1798 O.2       8 UNK        -0.5046 
     54 N          20.9850  -32.1791  -40.9037 N.am      9 UNK        -0.4200 
     55 CA         20.6783  -32.4760  -42.3101 C.3       9 UNK         0.0839 
     56 C          21.7760  -33.3213  -43.0175 C.2       9 UNK         0.5513 
     57 N          22.8508  -33.7230  -42.3507 N.am      9 UNK        -0.7519 
     58 O          21.6575  -33.6074  -44.2058 O.2       9 UNK        -0.4960 
     59 C59        19.2709  -33.1077  -42.4916 C.3       10 UNK        -0.0876 
     60 S60        17.8757  -32.2229  -41.7031 S.3       10 UNK        -0.2414 
     61 C61        18.1241  -30.4695  -42.1430 C.3       10 UNK         0.0169 
     62 H62        15.9324  -22.7800  -45.7459 H         1 UNK         0.0903 
     63 H63        16.1585  -23.3934  -47.3861 H         1 UNK         0.0903 
     64 H64        14.6295  -23.6615  -46.5467 H         1 UNK         0.0903 
     65 H65        14.4333  -25.7451  -45.7593 H         1 UNK         0.3096 
     66 H66        16.7183  -27.5100  -45.5024 H         1 UNK         0.1121 
     67 H67        14.6992  -29.1217  -44.7204 H         1 UNK         0.0849 
     68 H68        13.7010  -27.8665  -45.3764 H         1 UNK         0.0849 
     69 H69        15.2556  -31.1910  -46.2273 H         1 UNK         0.0865 
     70 H70        16.2425  -30.9528  -47.6446 H         1 UNK         0.0865 
     71 H71        16.2043  -30.9066  -44.0232 H         1 UNK         0.1346 
     72 H72        20.2157  -29.4811  -43.5805 H         1 UNK         0.1412 
     73 H73        18.3672  -29.4931  -47.4492 H         1 UNK         0.1426 
     74 H74        21.5775  -29.4394  -45.8298 H         1 UNK         0.0716 
     75 H75        20.7010  -29.0118  -47.2710 H         1 UNK         0.0716 
     76 H76        22.0063  -28.1277  -43.9202 H         1 UNK         0.0695 
     77 H77        22.9213  -26.8006  -44.5760 H         1 UNK         0.0695 
     78 H78        21.2756  -25.1678  -43.6500 H         1 UNK         0.0983 
     79 H79        19.5655  -27.3305  -43.2915 H         1 UNK         0.3095 
     80 H80        17.7675  -27.2745  -41.3860 H         1 UNK         0.0454 
     81 H81        16.7695  -24.3663  -41.4478 H         1 UNK         0.0851 
     82 H82        15.8562  -25.7535  -40.8585 H         1 UNK         0.0851 
     83 H83        17.2937  -25.2263  -40.0055 H         1 UNK         0.0851 
     84 H84        17.6457  -25.9532  -43.9488 H         1 UNK         0.2976 
     85 H85        21.5160  -27.7295  -41.2047 H         1 UNK         0.3116 
     86 H86        22.4627  -27.9127  -39.2477 H         1 UNK         0.0646 
     87 H87        23.2370  -25.9759  -37.9388 H         1 UNK         0.0847 
     88 H88        21.7169  -25.6062  -38.7376 H         1 UNK         0.0847 
     89 H89        23.2279  -24.9536  -39.3653 H         1 UNK         0.0847 
     90 H90        24.6261  -25.9781  -41.2961 H         1 UNK         0.3040 
     91 H91        27.1167  -26.9317  -40.2631 H         1 UNK         0.1015 
     92 H92        26.8790  -24.7938  -41.5119 H         1 UNK         0.0786 
     93 H93        26.4238  -25.6674  -42.9745 H         1 UNK         0.0786 
     94 H94        28.0466  -25.8299  -42.3151 H         1 UNK         0.0786 
     95 H95        24.8654  -28.4479  -42.3349 H         1 UNK         0.3172 
     96 H96        26.6320  -30.3568  -43.6386 H         1 UNK         0.0595 
     97 H97        23.5873  -30.3454  -43.2239 H         1 UNK         0.0839 
     98 H98        24.4682  -31.3993  -44.3163 H         1 UNK         0.0839 
     99 H99        24.4295  -29.6719  -44.6211 H         1 UNK         0.0839 
    100 H100       25.8511  -29.9843  -40.4509 H         1 UNK         0.2998 
    101 H101       25.9710  -31.1623  -38.5738 H         1 UNK         0.0822 
    102 H102       27.6500  -32.7773  -39.5274 H         1 UNK         0.0787 
    103 H103       26.5323  -33.5286  -38.3984 H         1 UNK         0.0787 
    104 H104       26.3312  -33.7875  -40.1185 H         1 UNK         0.0787 
    105 H105       23.9061  -30.1742  -38.8011 H         1 UNK         0.3055 
    106 H106       21.6911  -29.9951  -38.6340 H         1 UNK         0.1106 
    107 H107       20.2013  -31.9107  -38.1130 H         1 UNK         0.0828 
    108 H108       21.5228  -33.0481  -38.3349 H         1 UNK         0.0828 
    109 H109       21.5855  -31.8654  -37.0390 H         1 UNK         0.0828 
    110 H110       20.8964  -32.9491  -40.2575 H         1 UNK         0.2931 
    111 H111       20.6835  -31.5442  -42.8667 H         1 UNK         0.0412 
    112 H112       23.5632  -34.2413  -42.8392 H         1 UNK         0.3472 
    113 H113       22.9999  -33.4819  -41.3763 H         1 UNK         0.3472 
    114 H114       19.2687  -34.1279  -42.1041 H         1 UNK         0.0970 
    115 H115       19.0378  -33.1938  -43.5548 H         1 UNK         0.0970 
    116 H116       17.2874  -29.8948  -41.7434 H         1 UNK         0.0612 
    117 H117       19.0115  -30.0903  -41.6377 H         1 UNK         0.0612 
@<TRIPOS>BOND
     1    1    2 1    
     2    1   62 1    
     3    1   63 1    
     4    1   64 1    
     5    2    3 2    
     6    2    4 am   BACKBONE|DICT|INTERRES
     7    4    5 1    
     8    4   65 1    
     9    5    6 1    
    10    5   25 1    
    11    5   66 1    
    12    6    7 1    
    13    6   67 1    
    14    6   68 1    
    15    7    8 1    
    16    8    9 1    
    17    8   69 1    
    18    8   70 1    
    19    9   10 ar   
    20    9   14 ar   
    21   10   11 ar   
    22   10   71 1    
    23   11   12 ar   
    24   11   61 1    
    25   12   13 ar   
    26   12   72 1    
    27   13   14 ar   
    28   13   15 1    
    29   14   73 1    
    30   15   16 1    
    31   15   74 1    
    32   15   75 1    
    33   16   17 1    
    34   17   18 1    
    35   17   76 1    
    36   17   77 1    
    37   18   19 1    
    38   18   27 1    
    39   18   78 1    
    40   19   20 am   BACKBONE|DICT|INTERRES
    41   19   79 1    
    42   20   21 2    
    43   20   22 1    
    44   22   23 1    
    45   22   24 1    
    46   22   80 1    
    47   23   81 1    
    48   23   82 1    
    49   23   83 1    
    50   24   25 am   BACKBONE|DICT|INTERRES
    51   24   84 1    
    52   25   26 2    
    53   27   28 2    
    54   27   29 am   BACKBONE|DICT|INTERRES
    55   29   30 1    
    56   29   85 1    
    57   30   31 1    
    58   30   32 1    
    59   30   86 1    
    60   31   87 1    
    61   31   88 1    
    62   31   89 1    
    63   32   33 2    
    64   32   34 am   BACKBONE|DICT|INTERRES
    65   34   35 1    
    66   34   90 1    
    67   35   36 1    
    68   35   37 1    
    69   35   91 1    
    70   36   92 1    
    71   36   93 1    
    72   36   94 1    
    73   37   38 2    
    74   37   39 am   BACKBONE|DICT|INTERRES
    75   39   40 1    
    76   39   95 1    
    77   40   41 1    
    78   40   42 1    
    79   40   96 1    
    80   41   97 1    
    81   41   98 1    
    82   41   99 1    
    83   42   43 2    
    84   42   44 am   BACKBONE|DICT|INTERRES
    85   44   45 1    
    86   44  100 1    
    87   45   46 1    
    88   45   47 1    
    89   45  101 1    
    90   46  102 1    
    91   46  103 1    
    92   46  104 1    
    93   47   48 2    
    94   47   49 am   BACKBONE|DICT|INTERRES
    95   49   50 1    
    96   49  105 1    
    97   50   51 1    
    98   50   52 1    
    99   50  106 1    
   100   51  107 1    
   101   51  108 1    
   102   51  109 1    
   103   52   53 2    
   104   52   54 am   BACKBONE|DICT|INTERRES
   105   54   55 1    
   106   54  110 1    
   107   55   56 1    
   108   55   59 1    
   109   55  111 1    
   110   56   57 am   BACKBONE|DICT|INTERRES
   111   56   58 2    
   112   57  112 1    
   113   57  113 1    
   114   59   60 1    
   115   59  114 1    
   116   59  115 1    
   117   60   61 1    
   118   61  116 1    
   119   61  117 1    
@<TRIPOS>SUBSTRUCTURE
     1 UNK         1 GROUP             0       ****    0 ROOT    
