@<TRIPOS>MOLECULE
3R8
117   119    1
SMALL
USER_CHARGES


@<TRIPOS>ATOM
      1 CA         19.8391  -26.9349  -47.8118 C.3       0 UNK        -0.2013 
      2 C          19.1025  -26.8011  -46.4892 C.2       0 UNK         0.4866 
      3 O          19.7414  -26.7751  -45.4367 O.2       0 UNK        -0.5176 
      4 N          17.7666  -26.6836  -46.5291 N.am      1 UNK        -0.4884 
      5 CA         16.8677  -26.6319  -45.3623 C.3       1 UNK         0.0853 
      6 C6         15.4643  -27.2031  -45.7005 C.3       10 UNK        -0.0849 
      7 S7         14.5766  -27.9129  -44.2669 S.3       10 UNK        -0.2776 
      8 C8         15.2701  -29.5973  -44.1379 C.3       10 UNK         0.0316 
      9 C9         16.6858  -29.5976  -43.5737 C.ar      10 UNK        -0.0863 
     10 C10        17.7603  -30.0255  -44.3602 C.ar      10 UNK        -0.1009 
     11 C11        19.0638  -29.9977  -43.8555 C.ar      10 UNK        -0.0712 
     12 C12        19.2879  -29.5545  -42.5487 C.ar      10 UNK        -0.0894 
     13 C13        18.2271  -29.1046  -41.7588 C.ar      10 UNK        -0.0745 
     14 C14        16.9266  -29.1439  -42.2718 C.ar      10 UNK        -0.0972 
     15 C15        18.4809  -28.5670  -40.3562 C.3       10 UNK         0.0209 
     16 S16        18.4154  -26.7432  -40.3090 S.3       10 UNK        -0.2568 
     17 C17        20.1332  -26.2586  -40.7016 C.3       10 UNK        -0.0983 
     18 CA         20.4147  -26.1866  -42.2250 C.3       3 UNK         0.0876 
     19 N          19.5166  -25.3366  -42.9999 N.am      3 UNK        -0.4424 
     20 C          19.2550  -24.0280  -42.8779 C.2       2 UNK         0.4918 
     21 O          19.6992  -23.3138  -41.9793 O.2       2 UNK        -0.4875 
     22 CA         18.3598  -23.4026  -43.9772 C.3       2 UNK         0.0481 
     23 CB         19.1463  -22.3526  -44.7794 C.3       2 UNK        -0.1831 
     24 N          17.8412  -24.4147  -44.9070 N.am      2 UNK        -0.4498 
     25 C          16.8543  -25.2737  -44.6142 C.2       1 UNK         0.5027 
     26 O          16.0305  -25.0600  -43.7250 O.2       1 UNK        -0.4969 
     27 C          21.8759  -25.9001  -42.6028 C.2       3 UNK         0.5005 
     28 O          22.7315  -25.7444  -41.7308 O.2       3 UNK        -0.5279 
     29 N          22.1350  -25.8656  -43.9197 N.am      4 UNK        -0.4463 
     30 CA         23.4478  -25.6115  -44.5220 C.3       4 UNK         0.0283 
     31 CB         23.2875  -25.4872  -46.0456 C.3       4 UNK        -0.1875 
     32 C          24.5003  -26.6796  -44.1740 C.2       4 UNK         0.4949 
     33 O          25.6750  -26.3454  -44.0223 O.2       4 UNK        -0.5039 
     34 N          24.0523  -27.9334  -44.0259 N.am      5 UNK        -0.4663 
     35 CA         24.8657  -29.0697  -43.5812 C.3       5 UNK         0.0242 
     36 CB         24.4689  -30.3152  -44.3943 C.3       5 UNK        -0.1982 
     37 C          24.7506  -29.3275  -42.0653 C.2       5 UNK         0.5017 
     38 O          25.3048  -30.3184  -41.5897 O.2       5 UNK        -0.5012 
     39 N          24.0417  -28.4527  -41.3325 N.am      6 UNK        -0.4439 
     40 CA         23.7663  -28.5227  -39.8927 C.3       6 UNK         0.0297 
     41 CB         25.0565  -28.2377  -39.0894 C.3       6 UNK        -0.2006 
     42 C          23.0501  -29.8308  -39.4918 C.2       6 UNK         0.4892 
     43 O          22.2230  -30.3317  -40.2574 O.2       6 UNK        -0.5089 
     44 N          23.3757  -30.3636  -38.3058 N.am      7 UNK        -0.4243 
     45 CA         22.8451  -31.6226  -37.7732 C.3       7 UNK         0.0196 
     46 CB         23.2194  -31.7389  -36.2870 C.3       7 UNK        -0.2007 
     47 C          23.3170  -32.8689  -38.5444 C.2       7 UNK         0.5020 
     48 O          22.6378  -33.8951  -38.4992 O.2       7 UNK        -0.5147 
     49 N          24.4441  -32.7624  -39.2659 N.am      8 UNK        -0.4734 
     50 CA         25.0009  -33.8250  -40.1133 C.3       8 UNK         0.0238 
     51 CB         26.4406  -33.4646  -40.5152 C.3       8 UNK        -0.1912 
     52 C          24.1426  -34.1484  -41.3523 C.2       8 UNK         0.5038 
     53 O          24.3762  -35.1779  -41.9872 O.2       8 UNK        -0.5046 
     54 N          23.1533  -33.2955  -41.6537 N.am      9 UNK        -0.4200 
     55 CA         22.0736  -33.5615  -42.6133 C.3       9 UNK         0.0839 
     56 C          21.1378  -34.7419  -42.2078 C.2       9 UNK         0.5513 
     57 N          21.0602  -35.1209  -40.9356 N.am      9 UNK        -0.7519 
     58 O          20.4814  -35.3316  -43.0617 O.2       9 UNK        -0.4960 
     59 C59        21.2590  -32.2703  -42.8871 C.3       10 UNK        -0.0876 
     60 S60        20.6012  -32.1876  -44.5858 S.3       10 UNK        -0.2414 
     61 C61        20.2336  -30.4124  -44.7348 C.3       10 UNK         0.0169 
     62 H62        19.1551  -26.9612  -48.6597 H         1 UNK         0.0903 
     63 H63        20.5203  -26.0956  -47.9485 H         1 UNK         0.0903 
     64 H64        20.4248  -27.8537  -47.8194 H         1 UNK         0.0903 
     65 H65        17.3061  -26.6682  -47.4290 H         1 UNK         0.3096 
     66 H66        17.3145  -27.3030  -44.6304 H         1 UNK         0.1121 
     67 H67        14.8384  -26.4338  -46.1563 H         1 UNK         0.0849 
     68 H68        15.5490  -27.9931  -46.4486 H         1 UNK         0.0849 
     69 H69        14.6320  -30.1889  -43.4799 H         1 UNK         0.0865 
     70 H70        15.2325  -30.0837  -45.1139 H         1 UNK         0.0865 
     71 H71        17.5875  -30.3646  -45.3725 H         1 UNK         0.1346 
     72 H72        20.2944  -29.5345  -42.1527 H         1 UNK         0.1412 
     73 H73        16.1017  -28.7935  -41.6660 H         1 UNK         0.1426 
     74 H74        19.4376  -28.9206  -39.9680 H         1 UNK         0.0716 
     75 H75        17.7184  -28.9596  -39.6820 H         1 UNK         0.0716 
     76 H76        20.8090  -26.9672  -40.2209 H         1 UNK         0.0695 
     77 H77        20.3294  -25.2927  -40.2337 H         1 UNK         0.0695 
     78 H78        20.2417  -27.1820  -42.6209 H         1 UNK         0.0983 
     79 H79        19.1574  -25.7966  -43.8278 H         1 UNK         0.3095 
     80 H80        17.5230  -22.9045  -43.4836 H         1 UNK         0.0454 
     81 H81        19.5113  -21.5568  -44.1286 H         1 UNK         0.0851 
     82 H82        18.5216  -21.8842  -45.5401 H         1 UNK         0.0851 
     83 H83        20.0134  -22.7889  -45.2769 H         1 UNK         0.0851 
     84 H84        18.4454  -24.6620  -45.6784 H         1 UNK         0.2976 
     85 H85        21.3673  -26.0516  -44.5596 H         1 UNK         0.3116 
     86 H86        23.8087  -24.6559  -44.1357 H         1 UNK         0.0646 
     87 H87        22.8987  -26.4054  -46.4880 H         1 UNK         0.0847 
     88 H88        22.6099  -24.6749  -46.3090 H         1 UNK         0.0847 
     89 H89        24.2454  -25.2755  -46.5229 H         1 UNK         0.0847 
     90 H90        23.0712  -28.1101  -44.1846 H         1 UNK         0.3040 
     91 H91        25.9209  -28.8682  -43.7791 H         1 UNK         0.1015 
     92 H92        25.0574  -31.1855  -44.0998 H         1 UNK         0.0786 
     93 H93        24.6386  -30.1600  -45.4598 H         1 UNK         0.0786 
     94 H94        23.4201  -30.5723  -44.2595 H         1 UNK         0.0786 
     95 H95        23.6515  -27.6436  -41.8009 H         1 UNK         0.3172 
     96 H96        23.0633  -27.7169  -39.6803 H         1 UNK         0.0595 
     97 H97        25.7835  -29.0458  -39.1812 H         1 UNK         0.0839 
     98 H98        24.8467  -28.0926  -38.0292 H         1 UNK         0.0839 
     99 H99        25.5380  -27.3239  -39.4383 H         1 UNK         0.0839 
    100 H100       24.0614  -29.8862  -37.7386 H         1 UNK         0.2998 
    101 H101       21.7561  -31.5874  -37.8512 H         1 UNK         0.0822 
    102 H102       22.8121  -32.6532  -35.8526 H         1 UNK         0.0787 
    103 H103       22.8211  -30.9040  -35.7100 H         1 UNK         0.0787 
    104 H104       24.3004  -31.7636  -36.1428 H         1 UNK         0.0787 
    105 H105       24.9211  -31.8716  -39.2867 H         1 UNK         0.3055 
    106 H106       25.0378  -34.7381  -39.5147 H         1 UNK         0.1106 
    107 H107       27.0659  -33.2848  -39.6406 H         1 UNK         0.0828 
    108 H108       26.9017  -34.2769  -41.0788 H         1 UNK         0.0828 
    109 H109       26.4772  -32.5760  -41.1444 H         1 UNK         0.0828 
    110 H110       23.0489  -32.4688  -41.0810 H         1 UNK         0.2931 
    111 H111       22.5687  -33.8572  -43.5405 H         1 UNK         0.0412 
    112 H112       20.4562  -35.8891  -40.6889 H         1 UNK         0.3472 
    113 H113       21.6004  -34.6561  -40.2159 H         1 UNK         0.3472 
    114 H114       20.4412  -32.1579  -42.1722 H         1 UNK         0.0970 
    115 H115       21.8903  -31.3934  -42.7420 H         1 UNK         0.0970 
    116 H116       20.0077  -30.1878  -45.7784 H         1 UNK         0.0612 
    117 H117       21.1192  -29.8260  -44.4876 H         1 UNK         0.0612 
@<TRIPOS>BOND
     1    1    2 1    
     2    1   62 1    
     3    1   63 1    
     4    1   64 1    
     5    2    3 2    
     6    2    4 am   BACKBONE|DICT|INTERRES
     7    4    5 1    
     8    4   65 1    
     9    5    6 1    
    10    5   25 1    
    11    5   66 1    
    12    6    7 1    
    13    6   67 1    
    14    6   68 1    
    15    7    8 1    
    16    8    9 1    
    17    8   69 1    
    18    8   70 1    
    19    9   10 ar   
    20    9   14 ar   
    21   10   11 ar   
    22   10   71 1    
    23   11   12 ar   
    24   11   61 1    
    25   12   13 ar   
    26   12   72 1    
    27   13   14 ar   
    28   13   15 1    
    29   14   73 1    
    30   15   16 1    
    31   15   74 1    
    32   15   75 1    
    33   16   17 1    
    34   17   18 1    
    35   17   76 1    
    36   17   77 1    
    37   18   19 1    
    38   18   27 1    
    39   18   78 1    
    40   19   20 am   BACKBONE|DICT|INTERRES
    41   19   79 1    
    42   20   21 2    
    43   20   22 1    
    44   22   23 1    
    45   22   24 1    
    46   22   80 1    
    47   23   81 1    
    48   23   82 1    
    49   23   83 1    
    50   24   25 am   BACKBONE|DICT|INTERRES
    51   24   84 1    
    52   25   26 2    
    53   27   28 2    
    54   27   29 am   BACKBONE|DICT|INTERRES
    55   29   30 1    
    56   29   85 1    
    57   30   31 1    
    58   30   32 1    
    59   30   86 1    
    60   31   87 1    
    61   31   88 1    
    62   31   89 1    
    63   32   33 2    
    64   32   34 am   BACKBONE|DICT|INTERRES
    65   34   35 1    
    66   34   90 1    
    67   35   36 1    
    68   35   37 1    
    69   35   91 1    
    70   36   92 1    
    71   36   93 1    
    72   36   94 1    
    73   37   38 2    
    74   37   39 am   BACKBONE|DICT|INTERRES
    75   39   40 1    
    76   39   95 1    
    77   40   41 1    
    78   40   42 1    
    79   40   96 1    
    80   41   97 1    
    81   41   98 1    
    82   41   99 1    
    83   42   43 2    
    84   42   44 am   BACKBONE|DICT|INTERRES
    85   44   45 1    
    86   44  100 1    
    87   45   46 1    
    88   45   47 1    
    89   45  101 1    
    90   46  102 1    
    91   46  103 1    
    92   46  104 1    
    93   47   48 2    
    94   47   49 am   BACKBONE|DICT|INTERRES
    95   49   50 1    
    96   49  105 1    
    97   50   51 1    
    98   50   52 1    
    99   50  106 1    
   100   51  107 1    
   101   51  108 1    
   102   51  109 1    
   103   52   53 2    
   104   52   54 am   BACKBONE|DICT|INTERRES
   105   54   55 1    
   106   54  110 1    
   107   55   56 1    
   108   55   59 1    
   109   55  111 1    
   110   56   57 am   BACKBONE|DICT|INTERRES
   111   56   58 2    
   112   57  112 1    
   113   57  113 1    
   114   59   60 1    
   115   59  114 1    
   116   59  115 1    
   117   60   61 1    
   118   61  116 1    
   119   61  117 1    
@<TRIPOS>SUBSTRUCTURE
     1 UNK         1 GROUP             0       ****    0 ROOT    
