@<TRIPOS>MOLECULE
3R8
117   119    1
SMALL
USER_CHARGES


@<TRIPOS>ATOM
      1 CA         20.0190  -29.7107  -42.0985 C.3       0 UNK        -0.2013 
      2 C          18.9620  -28.7312  -41.6262 C.2       0 UNK         0.4866 
      3 O          18.9470  -28.3715  -40.4479 O.2       0 UNK        -0.5176 
      4 N          18.0674  -28.3246  -42.5353 N.am      1 UNK        -0.4884 
      5 CA         16.9675  -27.3910  -42.2678 C.3       1 UNK         0.0853 
      6 C6         15.9115  -27.3722  -43.4031 C.3       10 UNK        -0.0849 
      7 S7         15.1334  -28.9961  -43.6941 S.3       10 UNK        -0.2776 
      8 C8         15.6977  -29.3906  -45.3828 C.3       10 UNK         0.0316 
      9 C9         17.1523  -29.8362  -45.4006 C.ar      10 UNK        -0.0863 
     10 C10        17.4878  -31.1139  -44.9481 C.ar      10 UNK        -0.1009 
     11 C11        18.8198  -31.5403  -44.9237 C.ar      10 UNK        -0.0712 
     12 C12        19.8171  -30.6831  -45.4052 C.ar      10 UNK        -0.0894 
     13 C13        19.4932  -29.4048  -45.8753 C.ar      10 UNK        -0.0745 
     14 C14        18.1589  -28.9848  -45.8654 C.ar      10 UNK        -0.0972 
     15 C15        20.5796  -28.4755  -46.3997 C.3       10 UNK         0.0209 
     16 S16        21.4505  -27.6412  -45.0369 S.3       10 UNK        -0.2568 
     17 C17        21.9121  -26.0465  -45.8021 C.3       10 UNK        -0.0983 
     18 CA         22.1829  -24.9073  -44.7771 C.3       3 UNK         0.0876 
     19 N          21.0896  -24.7306  -43.8260 N.am      3 UNK        -0.4424 
     20 C          19.9423  -24.1005  -44.0789 C.2       2 UNK         0.4918 
     21 O          19.6737  -23.5728  -45.1597 O.2       2 UNK        -0.4875 
     22 CA         18.9029  -24.1282  -42.9527 C.3       2 UNK         0.0481 
     23 CB         17.7992  -23.0656  -43.1571 C.3       2 UNK        -0.1831 
     24 N          18.3430  -25.4777  -42.9167 N.am      2 UNK        -0.4498 
     25 C          17.4825  -25.9615  -42.0119 C.2       1 UNK         0.5027 
     26 O          17.0850  -25.3354  -41.0282 O.2       1 UNK        -0.4969 
     27 C          23.4857  -25.1102  -43.9857 C.2       3 UNK         0.5005 
     28 O          23.4405  -25.3826  -42.7830 O.2       3 UNK        -0.5279 
     29 N          24.6259  -24.9765  -44.6746 N.am      4 UNK        -0.4463 
     30 CA         25.9619  -25.2035  -44.1130 C.3       4 UNK         0.0283 
     31 CB         26.9826  -24.3713  -44.9080 C.3       4 UNK        -0.1875 
     32 C          26.3713  -26.6893  -44.1058 C.2       4 UNK         0.4949 
     33 O          27.3874  -27.0249  -43.4969 O.2       4 UNK        -0.5039 
     34 N          25.6075  -27.5443  -44.8020 N.am      5 UNK        -0.4663 
     35 CA         25.8955  -28.9681  -44.9917 C.3       5 UNK         0.0242 
     36 CB         24.9564  -29.5324  -46.0712 C.3       5 UNK        -0.1982 
     37 C          25.7932  -29.8041  -43.7054 C.2       5 UNK         0.5017 
     38 O          26.5730  -30.7428  -43.5386 O.2       5 UNK        -0.5012 
     39 N          24.8398  -29.4598  -42.8328 N.am      6 UNK        -0.4439 
     40 CA         24.5312  -30.1452  -41.5806 C.3       6 UNK         0.0297 
     41 CB         23.9157  -31.5327  -41.8672 C.3       6 UNK        -0.2006 
     42 C          23.5454  -29.2863  -40.7810 C.2       6 UNK         0.4892 
     43 O          22.9663  -28.3487  -41.3324 O.2       6 UNK        -0.5089 
     44 N          23.3298  -29.6660  -39.5180 N.am      7 UNK        -0.4243 
     45 CA         22.2335  -29.1953  -38.6752 C.3       7 UNK         0.0196 
     46 CB         22.8003  -28.5395  -37.4055 C.3       7 UNK        -0.2007 
     47 C          21.3899  -30.4259  -38.3272 C.2       7 UNK         0.5020 
     48 O          21.9555  -31.4400  -37.9102 O.2       7 UNK        -0.5147 
     49 N          20.0717  -30.3449  -38.5610 N.am      8 UNK        -0.4734 
     50 CA         19.0743  -31.4154  -38.3737 C.3       8 UNK         0.0238 
     51 CB         18.8792  -31.7118  -36.8716 C.3       8 UNK        -0.1912 
     52 C          19.3573  -32.6975  -39.1917 C.2       8 UNK         0.5038 
     53 O          18.8891  -33.7763  -38.8241 O.2       8 UNK        -0.5046 
     54 N          20.1289  -32.5468  -40.2761 N.am      9 UNK        -0.4200 
     55 CA         20.6481  -33.6025  -41.1608 C.3       9 UNK         0.0839 
     56 C          21.6876  -34.5471  -40.4841 C.2       9 UNK         0.5513 
     57 N          22.2848  -34.1750  -39.3564 N.am      9 UNK        -0.7519 
     58 O          21.9851  -35.6194  -41.0039 O.2       9 UNK        -0.4960 
     59 C59        19.5427  -34.3701  -41.9441 C.3       10 UNK        -0.0876 
     60 S60        18.3578  -33.2580  -42.7745 S.3       10 UNK        -0.2414 
     61 C61        19.1861  -32.9150  -44.3665 C.3       10 UNK         0.0169 
     62 H62        19.5593  -30.6559  -42.3741 H         1 UNK         0.0903 
     63 H63        20.5538  -29.3186  -42.9594 H         1 UNK         0.0903 
     64 H64        20.7503  -29.8978  -41.3180 H         1 UNK         0.0903 
     65 H65        18.1030  -28.7087  -43.4713 H         1 UNK         0.3096 
     66 H66        16.4712  -27.7216  -41.3522 H         1 UNK         0.1121 
     67 H67        15.1090  -26.6738  -43.1566 H         1 UNK         0.0849 
     68 H68        16.3479  -27.0041  -44.3332 H         1 UNK         0.0849 
     69 H69        15.0742  -30.1923  -45.7815 H         1 UNK         0.0865 
     70 H70        15.5393  -28.5335  -46.0392 H         1 UNK         0.0865 
     71 H71        16.7071  -31.7694  -44.5864 H         1 UNK         0.1346 
     72 H72        20.8509  -31.0009  -45.4005 H         1 UNK         0.1412 
     73 H73        17.9048  -27.9968  -46.2252 H         1 UNK         0.1426 
     74 H74        20.1402  -27.7387  -47.0734 H         1 UNK         0.0716 
     75 H75        21.3011  -29.0389  -46.9932 H         1 UNK         0.0716 
     76 H76        22.7710  -26.2052  -46.4559 H         1 UNK         0.0695 
     77 H77        21.1004  -25.7325  -46.4596 H         1 UNK         0.0695 
     78 H78        22.3020  -23.9706  -45.3268 H         1 UNK         0.0983 
     79 H79        21.2763  -25.1262  -42.9124 H         1 UNK         0.3095 
     80 H80        19.4146  -23.9304  -42.0087 H         1 UNK         0.0454 
     81 H81        18.2334  -22.0736  -43.2875 H         1 UNK         0.0851 
     82 H82        17.1948  -23.2759  -44.0402 H         1 UNK         0.0851 
     83 H83        17.1289  -23.0060  -42.3002 H         1 UNK         0.0851 
     84 H84        18.6449  -26.0878  -43.6646 H         1 UNK         0.2976 
     85 H85        24.5841  -24.7324  -45.6546 H         1 UNK         0.3116 
     86 H86        25.9785  -24.8568  -43.0773 H         1 UNK         0.0646 
     87 H87        27.9854  -24.4819  -44.4929 H         1 UNK         0.0847 
     88 H88        26.7393  -23.3091  -44.8782 H         1 UNK         0.0847 
     89 H89        27.0291  -24.6775  -45.9539 H         1 UNK         0.0847 
     90 H90        24.7849  -27.1825  -45.2602 H         1 UNK         0.3040 
     91 H91        26.9228  -29.0544  -45.3534 H         1 UNK         0.1015 
     92 H92        25.0762  -29.0061  -47.0183 H         1 UNK         0.0786 
     93 H93        23.9091  -29.4589  -45.7753 H         1 UNK         0.0786 
     94 H94        25.1675  -30.5861  -46.2592 H         1 UNK         0.0786 
     95 H95        24.2577  -28.6485  -43.0117 H         1 UNK         0.3172 
     96 H96        25.4491  -30.2544  -40.9997 H         1 UNK         0.0595 
     97 H97        24.6132  -32.1846  -42.3927 H         1 UNK         0.0839 
     98 H98        23.0153  -31.4501  -42.4770 H         1 UNK         0.0839 
     99 H99        23.6435  -32.0467  -40.9450 H         1 UNK         0.0839 
    100 H100       23.8187  -30.4765  -39.1607 H         1 UNK         0.2998 
    101 H101       21.6146  -28.4665  -39.2041 H         1 UNK         0.0822 
    102 H102       23.4197  -27.6767  -37.6512 H         1 UNK         0.0787 
    103 H103       21.9966  -28.1892  -36.7566 H         1 UNK         0.0787 
    104 H104       23.4097  -29.2348  -36.8264 H         1 UNK         0.0787 
    105 H105       19.7051  -29.4868  -38.9684 H         1 UNK         0.3055 
    106 H106       18.1313  -31.0233  -38.7588 H         1 UNK         0.1106 
    107 H107       19.7654  -32.1703  -36.4316 H         1 UNK         0.0828 
    108 H108       18.6593  -30.8022  -36.3128 H         1 UNK         0.0828 
    109 H109       18.0459  -32.3968  -36.7105 H         1 UNK         0.0828 
    110 H110       20.4697  -31.6187  -40.4652 H         1 UNK         0.2931 
    111 H111       21.2316  -33.0645  -41.9077 H         1 UNK         0.0412 
    112 H112       22.9615  -34.7910  -38.9346 H         1 UNK         0.3472 
    113 H113       22.0575  -33.2957  -38.9071 H         1 UNK         0.3472 
    114 H114       18.9822  -35.0164  -41.2669 H         1 UNK         0.0970 
    115 H115       19.9852  -35.0311  -42.6916 H         1 UNK         0.0970 
    116 H116       18.9100  -33.6843  -45.0883 H         1 UNK         0.0612 
    117 H117       20.2660  -32.9854  -44.2289 H         1 UNK         0.0612 
@<TRIPOS>BOND
     1    1    2 1    
     2    1   62 1    
     3    1   63 1    
     4    1   64 1    
     5    2    3 2    
     6    2    4 am   BACKBONE|DICT|INTERRES
     7    4    5 1    
     8    4   65 1    
     9    5    6 1    
    10    5   25 1    
    11    5   66 1    
    12    6    7 1    
    13    6   67 1    
    14    6   68 1    
    15    7    8 1    
    16    8    9 1    
    17    8   69 1    
    18    8   70 1    
    19    9   10 ar   
    20    9   14 ar   
    21   10   11 ar   
    22   10   71 1    
    23   11   12 ar   
    24   11   61 1    
    25   12   13 ar   
    26   12   72 1    
    27   13   14 ar   
    28   13   15 1    
    29   14   73 1    
    30   15   16 1    
    31   15   74 1    
    32   15   75 1    
    33   16   17 1    
    34   17   18 1    
    35   17   76 1    
    36   17   77 1    
    37   18   19 1    
    38   18   27 1    
    39   18   78 1    
    40   19   20 am   BACKBONE|DICT|INTERRES
    41   19   79 1    
    42   20   21 2    
    43   20   22 1    
    44   22   23 1    
    45   22   24 1    
    46   22   80 1    
    47   23   81 1    
    48   23   82 1    
    49   23   83 1    
    50   24   25 am   BACKBONE|DICT|INTERRES
    51   24   84 1    
    52   25   26 2    
    53   27   28 2    
    54   27   29 am   BACKBONE|DICT|INTERRES
    55   29   30 1    
    56   29   85 1    
    57   30   31 1    
    58   30   32 1    
    59   30   86 1    
    60   31   87 1    
    61   31   88 1    
    62   31   89 1    
    63   32   33 2    
    64   32   34 am   BACKBONE|DICT|INTERRES
    65   34   35 1    
    66   34   90 1    
    67   35   36 1    
    68   35   37 1    
    69   35   91 1    
    70   36   92 1    
    71   36   93 1    
    72   36   94 1    
    73   37   38 2    
    74   37   39 am   BACKBONE|DICT|INTERRES
    75   39   40 1    
    76   39   95 1    
    77   40   41 1    
    78   40   42 1    
    79   40   96 1    
    80   41   97 1    
    81   41   98 1    
    82   41   99 1    
    83   42   43 2    
    84   42   44 am   BACKBONE|DICT|INTERRES
    85   44   45 1    
    86   44  100 1    
    87   45   46 1    
    88   45   47 1    
    89   45  101 1    
    90   46  102 1    
    91   46  103 1    
    92   46  104 1    
    93   47   48 2    
    94   47   49 am   BACKBONE|DICT|INTERRES
    95   49   50 1    
    96   49  105 1    
    97   50   51 1    
    98   50   52 1    
    99   50  106 1    
   100   51  107 1    
   101   51  108 1    
   102   51  109 1    
   103   52   53 2    
   104   52   54 am   BACKBONE|DICT|INTERRES
   105   54   55 1    
   106   54  110 1    
   107   55   56 1    
   108   55   59 1    
   109   55  111 1    
   110   56   57 am   BACKBONE|DICT|INTERRES
   111   56   58 2    
   112   57  112 1    
   113   57  113 1    
   114   59   60 1    
   115   59  114 1    
   116   59  115 1    
   117   60   61 1    
   118   61  116 1    
   119   61  117 1    
@<TRIPOS>SUBSTRUCTURE
     1 UNK         1 GROUP             0       ****    0 ROOT    
