@<TRIPOS>MOLECULE
3R8
117   119    1
SMALL
USER_CHARGES


@<TRIPOS>ATOM
      1 CA         19.3642  -23.7031  -49.8631 C.3       0 UNK        -0.2013 
      2 C          19.9639  -24.4158  -48.6599 C.2       0 UNK         0.4866 
      3 O          21.1642  -24.2944  -48.4117 O.2       0 UNK        -0.5176 
      4 N          19.1414  -25.1661  -47.9169 N.am      1 UNK        -0.4884 
      5 CA         19.5359  -25.8816  -46.6998 C.3       1 UNK         0.0853 
      6 C6         18.4410  -26.8719  -46.2336 C.3       10 UNK        -0.0849 
      7 S7         18.1896  -28.2767  -47.3661 S.3       10 UNK        -0.2776 
      8 C8         18.8724  -29.6625  -46.3816 C.3       10 UNK         0.0316 
      9 C9         18.1247  -30.0328  -45.0928 C.ar      10 UNK        -0.0863 
     10 C10        18.6351  -31.0819  -44.3190 C.ar      10 UNK        -0.1009 
     11 C11        18.0024  -31.4767  -43.1365 C.ar      10 UNK        -0.0712 
     12 C12        16.8549  -30.8042  -42.7137 C.ar      10 UNK        -0.0894 
     13 C13        16.3373  -29.7451  -43.4615 C.ar      10 UNK        -0.0745 
     14 C14        16.9625  -29.3771  -44.6563 C.ar      10 UNK        -0.0972 
     15 C15        15.0985  -29.0064  -42.9752 C.3       10 UNK         0.0209 
     16 S16        15.4052  -28.1228  -41.4107 S.3       10 UNK        -0.2568 
     17 C17        16.5056  -26.7638  -41.9377 C.3       10 UNK        -0.0983 
     18 CA         18.0142  -27.0593  -41.7391 C.3       3 UNK         0.0876 
     19 N          18.8365  -26.0136  -42.3567 N.am      3 UNK        -0.4424 
     20 C          20.1744  -26.0112  -42.4210 C.2       2 UNK         0.4918 
     21 O          20.8858  -26.8997  -41.9474 O.2       2 UNK        -0.4875 
     22 CA         20.8030  -24.8893  -43.2609 C.3       2 UNK         0.0481 
     23 CB         22.2723  -24.6061  -42.8976 C.3       2 UNK        -0.1831 
     24 N          20.7219  -25.3483  -44.6434 N.am      2 UNK        -0.4498 
     25 C          19.8235  -24.9156  -45.5349 C.2       1 UNK         0.5027 
     26 O          19.1535  -23.8879  -45.4019 O.2       1 UNK        -0.4969 
     27 C          18.3975  -27.2675  -40.2575 C.2       3 UNK         0.5005 
     28 O          18.3362  -26.3154  -39.4761 O.2       3 UNK        -0.5279 
     29 N          18.8275  -28.4961  -39.9296 N.am      4 UNK        -0.4463 
     30 CA         19.3336  -28.9508  -38.6269 C.3       4 UNK         0.0283 
     31 CB         18.2401  -28.8494  -37.5421 C.3       4 UNK        -0.1875 
     32 C          20.6636  -28.3013  -38.1850 C.2       4 UNK         0.4949 
     33 O          21.0287  -28.4344  -37.0159 O.2       4 UNK        -0.5039 
     34 N          21.3747  -27.6353  -39.1056 N.am      5 UNK        -0.4663 
     35 CA         22.6573  -26.9704  -38.8520 C.3       5 UNK         0.0242 
     36 CB         22.4515  -25.4477  -38.8917 C.3       5 UNK        -0.1982 
     37 C          23.7571  -27.4061  -39.8341 C.2       5 UNK         0.5017 
     38 O          24.9299  -27.3774  -39.4583 O.2       5 UNK        -0.5012 
     39 N          23.3800  -27.7998  -41.0599 N.am      6 UNK        -0.4439 
     40 CA         24.2697  -28.3313  -42.0954 C.3       6 UNK         0.0297 
     41 CB         23.4547  -28.5821  -43.3768 C.3       6 UNK        -0.2006 
     42 C          24.9507  -29.6381  -41.6621 C.2       6 UNK         0.4892 
     43 O          24.3154  -30.4637  -41.0032 O.2       6 UNK        -0.5089 
     44 N          26.1995  -29.8385  -42.1043 N.am      7 UNK        -0.4243 
     45 CA         27.0013  -31.0399  -41.8344 C.3       7 UNK         0.0196 
     46 CB         28.4269  -30.8299  -42.3699 C.3       7 UNK        -0.2007 
     47 C          26.3982  -32.3380  -42.4042 C.2       7 UNK         0.5020 
     48 O          26.6408  -33.4108  -41.8520 O.2       7 UNK        -0.5147 
     49 N          25.6081  -32.2169  -43.4800 N.am      8 UNK        -0.4734 
     50 CA         24.8312  -33.3102  -44.0693 C.3       8 UNK         0.0238 
     51 CB         24.4045  -32.9116  -45.4919 C.3       8 UNK        -0.1912 
     52 C          23.5981  -33.6999  -43.2318 C.2       8 UNK         0.5038 
     53 O          23.1260  -34.8299  -43.3629 O.2       8 UNK        -0.5046 
     54 N          23.0953  -32.7689  -42.4101 N.am      9 UNK        -0.4200 
     55 CA         21.9674  -32.9726  -41.4945 C.3       9 UNK         0.0839 
     56 C          22.4515  -33.3919  -40.0806 C.2       9 UNK         0.5513 
     57 N          23.4640  -32.7362  -39.5276 N.am      9 UNK        -0.7519 
     58 O          21.9212  -34.3302  -39.4918 O.2       9 UNK        -0.4960 
     59 C59        21.0529  -31.7188  -41.4611 C.3       10 UNK        -0.0876 
     60 S60        19.3894  -32.0927  -40.8161 S.3       10 UNK        -0.2414 
     61 C61        18.5311  -32.6461  -42.3214 C.3       10 UNK         0.0169 
     62 H62        19.4920  -22.6256  -49.7626 H         1 UNK         0.0903 
     63 H63        19.8653  -24.0223  -50.7766 H         1 UNK         0.0903 
     64 H64        18.2995  -23.9096  -49.9708 H         1 UNK         0.0903 
     65 H65        18.1633  -25.2270  -48.1615 H         1 UNK         0.3096 
     66 H66        20.4496  -26.4392  -46.9194 H         1 UNK         0.1121 
     67 H67        17.4855  -26.3565  -46.1147 H         1 UNK         0.0849 
     68 H68        18.6836  -27.2696  -45.2461 H         1 UNK         0.0849 
     69 H69        18.9014  -30.5431  -47.0249 H         1 UNK         0.0865 
     70 H70        19.9101  -29.4321  -46.1351 H         1 UNK         0.0865 
     71 H71        19.5247  -31.6035  -44.6459 H         1 UNK         0.1346 
     72 H72        16.3665  -31.1013  -41.7952 H         1 UNK         0.1412 
     73 H73        16.5334  -28.5727  -45.2345 H         1 UNK         0.1426 
     74 H74        14.2955  -29.7281  -42.8187 H         1 UNK         0.0716 
     75 H75        14.7349  -28.3031  -43.7259 H         1 UNK         0.0716 
     76 H76        16.2203  -25.8649  -41.3879 H         1 UNK         0.0695 
     77 H77        16.3040  -26.5461  -42.9879 H         1 UNK         0.0695 
     78 H78        18.2446  -27.9785  -42.2818 H         1 UNK         0.0983 
     79 H79        18.3353  -25.2411  -42.7703 H         1 UNK         0.3095 
     80 H80        20.2314  -23.9714  -43.1092 H         1 UNK         0.0454 
     81 H81        22.8961  -25.4978  -42.9403 H         1 UNK         0.0851 
     82 H82        22.3517  -24.1990  -41.8905 H         1 UNK         0.0851 
     83 H83        22.7063  -23.8686  -43.5726 H         1 UNK         0.0851 
     84 H84        21.2081  -26.2131  -44.8353 H         1 UNK         0.2976 
     85 H85        18.8421  -29.2007  -40.6552 H         1 UNK         0.3116 
     86 H86        19.5610  -30.0094  -38.7507 H         1 UNK         0.0646 
     87 H87        18.0125  -27.8133  -37.2903 H         1 UNK         0.0847 
     88 H88        18.5535  -29.3434  -36.6218 H         1 UNK         0.0847 
     89 H89        17.3155  -29.3280  -37.8646 H         1 UNK         0.0847 
     90 H90        20.9955  -27.5490  -40.0418 H         1 UNK         0.3040 
     91 H91        23.0270  -27.2314  -37.8578 H         1 UNK         0.1015 
     92 H92        21.9912  -25.1298  -39.8258 H         1 UNK         0.0786 
     93 H93        23.3986  -24.9161  -38.7889 H         1 UNK         0.0786 
     94 H94        21.8051  -25.1196  -38.0775 H         1 UNK         0.0786 
     95 H95        22.4032  -27.7045  -41.3205 H         1 UNK         0.3172 
     96 H96        25.0351  -27.5799  -42.2999 H         1 UNK         0.0595 
     97 H97        24.0845  -28.9777  -44.1747 H         1 UNK         0.0839 
     98 H98        23.0049  -27.6653  -43.7538 H         1 UNK         0.0839 
     99 H99        22.6508  -29.3003  -43.2090 H         1 UNK         0.0839 
    100 H100       26.6423  -29.1147  -42.6527 H         1 UNK         0.2998 
    101 H101       27.0565  -31.1605  -40.7502 H         1 UNK         0.0822 
    102 H102       29.0545  -31.6973  -42.1597 H         1 UNK         0.0787 
    103 H103       28.4346  -30.6765  -43.4499 H         1 UNK         0.0787 
    104 H104       28.9039  -29.9677  -41.9034 H         1 UNK         0.0787 
    105 H105       25.4896  -31.2994  -43.8839 H         1 UNK         0.3055 
    106 H106       25.4711  -34.1933  -44.1362 H         1 UNK         0.1106 
    107 H107       23.8470  -33.7173  -45.9719 H         1 UNK         0.0828 
    108 H108       23.7638  -32.0288  -45.4909 H         1 UNK         0.0828 
    109 H109       25.2690  -32.7001  -46.1216 H         1 UNK         0.0828 
    110 H110       23.6042  -31.9027  -42.2858 H         1 UNK         0.2931 
    111 H111       21.3664  -33.7981  -41.8812 H         1 UNK         0.0412 
    112 H112       23.8729  -31.9340  -40.0015 H         1 UNK         0.3472 
    113 H113       23.7942  -33.0072  -38.6156 H         1 UNK         0.3472 
    114 H114       20.9436  -31.3021  -42.4632 H         1 UNK         0.0970 
    115 H115       21.4991  -30.9236  -40.8602 H         1 UNK         0.0970 
    116 H116       17.6957  -33.2840  -42.0293 H         1 UNK         0.0612 
    117 H117       19.1943  -33.2722  -42.9201 H         1 UNK         0.0612 
@<TRIPOS>BOND
     1    1    2 1    
     2    1   62 1    
     3    1   63 1    
     4    1   64 1    
     5    2    3 2    
     6    2    4 am   BACKBONE|DICT|INTERRES
     7    4    5 1    
     8    4   65 1    
     9    5    6 1    
    10    5   25 1    
    11    5   66 1    
    12    6    7 1    
    13    6   67 1    
    14    6   68 1    
    15    7    8 1    
    16    8    9 1    
    17    8   69 1    
    18    8   70 1    
    19    9   10 ar   
    20    9   14 ar   
    21   10   11 ar   
    22   10   71 1    
    23   11   12 ar   
    24   11   61 1    
    25   12   13 ar   
    26   12   72 1    
    27   13   14 ar   
    28   13   15 1    
    29   14   73 1    
    30   15   16 1    
    31   15   74 1    
    32   15   75 1    
    33   16   17 1    
    34   17   18 1    
    35   17   76 1    
    36   17   77 1    
    37   18   19 1    
    38   18   27 1    
    39   18   78 1    
    40   19   20 am   BACKBONE|DICT|INTERRES
    41   19   79 1    
    42   20   21 2    
    43   20   22 1    
    44   22   23 1    
    45   22   24 1    
    46   22   80 1    
    47   23   81 1    
    48   23   82 1    
    49   23   83 1    
    50   24   25 am   BACKBONE|DICT|INTERRES
    51   24   84 1    
    52   25   26 2    
    53   27   28 2    
    54   27   29 am   BACKBONE|DICT|INTERRES
    55   29   30 1    
    56   29   85 1    
    57   30   31 1    
    58   30   32 1    
    59   30   86 1    
    60   31   87 1    
    61   31   88 1    
    62   31   89 1    
    63   32   33 2    
    64   32   34 am   BACKBONE|DICT|INTERRES
    65   34   35 1    
    66   34   90 1    
    67   35   36 1    
    68   35   37 1    
    69   35   91 1    
    70   36   92 1    
    71   36   93 1    
    72   36   94 1    
    73   37   38 2    
    74   37   39 am   BACKBONE|DICT|INTERRES
    75   39   40 1    
    76   39   95 1    
    77   40   41 1    
    78   40   42 1    
    79   40   96 1    
    80   41   97 1    
    81   41   98 1    
    82   41   99 1    
    83   42   43 2    
    84   42   44 am   BACKBONE|DICT|INTERRES
    85   44   45 1    
    86   44  100 1    
    87   45   46 1    
    88   45   47 1    
    89   45  101 1    
    90   46  102 1    
    91   46  103 1    
    92   46  104 1    
    93   47   48 2    
    94   47   49 am   BACKBONE|DICT|INTERRES
    95   49   50 1    
    96   49  105 1    
    97   50   51 1    
    98   50   52 1    
    99   50  106 1    
   100   51  107 1    
   101   51  108 1    
   102   51  109 1    
   103   52   53 2    
   104   52   54 am   BACKBONE|DICT|INTERRES
   105   54   55 1    
   106   54  110 1    
   107   55   56 1    
   108   55   59 1    
   109   55  111 1    
   110   56   57 am   BACKBONE|DICT|INTERRES
   111   56   58 2    
   112   57  112 1    
   113   57  113 1    
   114   59   60 1    
   115   59  114 1    
   116   59  115 1    
   117   60   61 1    
   118   61  116 1    
   119   61  117 1    
@<TRIPOS>SUBSTRUCTURE
     1 UNK         1 GROUP             0       ****    0 ROOT    
