@<TRIPOS>MOLECULE
3R8
117   119    1
SMALL
USER_CHARGES


@<TRIPOS>ATOM
      1 CA         18.1316  -24.5384  -39.8012 C.3       0 UNK        -0.2013 
      2 C          17.4199  -24.4997  -41.1451 C.2       0 UNK         0.4866 
      3 O          16.7330  -23.5243  -41.4483 O.2       0 UNK        -0.5176 
      4 N          17.5827  -25.5522  -41.9576 N.am      1 UNK        -0.4884 
      5 CA         16.9314  -25.7125  -43.2671 C.3       1 UNK         0.0853 
      6 C6         16.9313  -27.1898  -43.7474 C.3       10 UNK        -0.0849 
      7 S7         16.4176  -28.4072  -42.4915 S.3       10 UNK        -0.2776 
      8 C8         15.9290  -29.8143  -43.5414 C.3       10 UNK         0.0316 
      9 C9         17.0691  -30.3337  -44.4124 C.ar      10 UNK        -0.0863 
     10 C10        18.0126  -31.2230  -43.8886 C.ar      10 UNK        -0.1009 
     11 C11        19.0153  -31.7599  -44.7037 C.ar      10 UNK        -0.0712 
     12 C12        19.0810  -31.3857  -46.0512 C.ar      10 UNK        -0.0894 
     13 C13        18.1385  -30.5024  -46.5903 C.ar      10 UNK        -0.0745 
     14 C14        17.1408  -29.9765  -45.7628 C.ar      10 UNK        -0.0972 
     15 C15        18.1317  -30.1908  -48.0847 C.3       10 UNK         0.0209 
     16 S16        19.4673  -29.0693  -48.6140 S.3       10 UNK        -0.2568 
     17 C17        19.0149  -27.5011  -47.7902 C.3       10 UNK        -0.0983 
     18 CA         20.1955  -26.7214  -47.1472 C.3       3 UNK         0.0876 
     19 N          19.6817  -25.5322  -46.4634 N.am      3 UNK        -0.4424 
     20 C          20.4031  -24.5252  -45.9574 C.2       2 UNK         0.4918 
     21 O          21.6084  -24.3782  -46.1565 O.2       2 UNK        -0.4875 
     22 CA         19.6642  -23.5516  -45.0168 C.3       2 UNK         0.0481 
     23 CB         18.9944  -22.4056  -45.7996 C.3       2 UNK        -0.1831 
     24 N          18.7290  -24.2282  -44.0985 N.am      2 UNK        -0.4498 
     25 C          17.5645  -24.8396  -44.3745 C.2       1 UNK         0.5027 
     26 O          17.0466  -24.8294  -45.4917 O.2       1 UNK        -0.4969 
     27 C          21.0380  -27.6060  -46.1959 C.2       3 UNK         0.5005 
     28 O          22.0096  -28.2214  -46.6401 O.2       3 UNK        -0.5279 
     29 N          20.6398  -27.6608  -44.9158 N.am      4 UNK        -0.4463 
     30 CA         21.2104  -28.5382  -43.8961 C.3       4 UNK         0.0283 
     31 CB         20.3769  -28.4540  -42.6070 C.3       4 UNK        -0.1875 
     32 C          22.6883  -28.2542  -43.5919 C.2       4 UNK         0.4949 
     33 O          23.1042  -27.0938  -43.5583 O.2       4 UNK        -0.5039 
     34 N          23.4356  -29.3330  -43.3367 N.am      5 UNK        -0.4663 
     35 CA         24.8310  -29.3028  -42.9036 C.3       5 UNK         0.0242 
     36 CB         25.4241  -30.7119  -43.0751 C.3       5 UNK        -0.1982 
     37 C          24.9596  -28.8499  -41.4404 C.2       5 UNK         0.5017 
     38 O          24.0207  -29.0201  -40.6575 O.2       5 UNK        -0.5012 
     39 N          26.1544  -28.3611  -41.0776 N.am      6 UNK        -0.4439 
     40 CA         26.5265  -27.9294  -39.7214 C.3       6 UNK         0.0297 
     41 CB         27.9322  -27.3075  -39.7584 C.3       6 UNK        -0.2006 
     42 C          26.4581  -29.0395  -38.6521 C.2       6 UNK         0.4892 
     43 O          26.3809  -28.7282  -37.4635 O.2       6 UNK        -0.5089 
     44 N          26.4549  -30.3054  -39.0924 N.am      7 UNK        -0.4243 
     45 CA         26.2079  -31.4952  -38.2760 C.3       7 UNK         0.0196 
     46 CB         26.6404  -32.7352  -39.0777 C.3       7 UNK        -0.2007 
     47 C          24.7441  -31.6422  -37.8073 C.2       7 UNK         0.5020 
     48 O          24.4857  -32.5051  -36.9682 O.2       7 UNK        -0.5147 
     49 N          23.8248  -30.8246  -38.3497 N.am      8 UNK        -0.4734 
     50 CA         22.3772  -30.8098  -38.1054 C.3       8 UNK         0.0238 
     51 CB         22.0542  -30.4866  -36.6302 C.3       8 UNK        -0.1912 
     52 C          21.7162  -32.1049  -38.6062 C.2       8 UNK         0.5038 
     53 O          21.2059  -32.8956  -37.8102 O.2       8 UNK        -0.5046 
     54 N          21.7727  -32.2995  -39.9298 N.am      9 UNK        -0.4200 
     55 CA         21.2369  -33.4688  -40.6457 C.3       9 UNK         0.0839 
     56 C          19.6912  -33.6609  -40.5816 C.2       9 UNK         0.5513 
     57 N          18.9089  -32.6598  -40.1958 N.am      9 UNK        -0.7519 
     58 O          19.1979  -34.7440  -40.8850 O.2       9 UNK        -0.4960 
     59 C59        21.7687  -33.5278  -42.1035 C.3       10 UNK        -0.0876 
     60 S60        21.2810  -32.0846  -43.1143 S.3       10 UNK        -0.2414 
     61 C61        19.9650  -32.8098  -44.1415 C.3       10 UNK         0.0169 
     62 H62        17.4053  -24.4787  -38.9911 H         1 UNK         0.0903 
     63 H63        18.7096  -25.4533  -39.6711 H         1 UNK         0.0903 
     64 H64        18.8118  -23.6918  -39.7118 H         1 UNK         0.0903 
     65 H65        18.1168  -26.3482  -41.6385 H         1 UNK         0.3096 
     66 H66        15.8922  -25.3903  -43.1667 H         1 UNK         0.1121 
     67 H67        16.2670  -27.2910  -44.6082 H         1 UNK         0.0849 
     68 H68        17.9192  -27.4884  -44.0979 H         1 UNK         0.0849 
     69 H69        15.0785  -29.5222  -44.1594 H         1 UNK         0.0865 
     70 H70        15.5678  -30.6197  -42.9001 H         1 UNK         0.0865 
     71 H71        17.9518  -31.5206  -42.8504 H         1 UNK         0.1346 
     72 H72        19.8406  -31.8115  -46.6925 H         1 UNK         0.1412 
     73 H73        16.3959  -29.3125  -46.1798 H         1 UNK         0.1426 
     74 H74        17.1739  -29.7633  -48.3855 H         1 UNK         0.0716 
     75 H75        18.2275  -31.1254  -48.6391 H         1 UNK         0.0716 
     76 H76        18.2555  -27.7044  -47.0344 H         1 UNK         0.0695 
     77 H77        18.5255  -26.8707  -48.5343 H         1 UNK         0.0695 
     78 H78        20.8606  -26.3851  -47.9456 H         1 UNK         0.0983 
     79 H79        18.6813  -25.5022  -46.2936 H         1 UNK         0.3095 
     80 H80        20.4235  -23.1024  -44.3746 H         1 UNK         0.0454 
     81 H81        18.4905  -21.7094  -45.1294 H         1 UNK         0.0851 
     82 H82        18.2612  -22.7685  -46.5201 H         1 UNK         0.0851 
     83 H83        19.7372  -21.8362  -46.3594 H         1 UNK         0.0851 
     84 H84        19.0608  -24.3193  -43.1480 H         1 UNK         0.2976 
     85 H85        19.8734  -27.0742  -44.6327 H         1 UNK         0.3116 
     86 H86        21.1309  -29.5498  -44.2942 H         1 UNK         0.0646 
     87 H87        20.8199  -29.0603  -41.8154 H         1 UNK         0.0847 
     88 H88        19.3690  -28.8344  -42.7633 H         1 UNK         0.0847 
     89 H89        20.3095  -27.4321  -42.2333 H         1 UNK         0.0847 
     90 H90        22.9876  -30.2393  -43.3505 H         1 UNK         0.3040 
     91 H91        25.3763  -28.6017  -43.5398 H         1 UNK         0.1015 
     92 H92        25.3490  -31.0494  -44.1092 H         1 UNK         0.0786 
     93 H93        24.9146  -31.4449  -42.4476 H         1 UNK         0.0786 
     94 H94        26.4817  -30.7322  -42.8088 H         1 UNK         0.0786 
     95 H95        26.8724  -28.2751  -41.7836 H         1 UNK         0.3172 
     96 H96        25.8185  -27.1542  -39.4212 H         1 UNK         0.0595 
     97 H97        28.6856  -28.0291  -40.0771 H         1 UNK         0.0839 
     98 H98        28.2257  -26.9462  -38.7716 H         1 UNK         0.0839 
     99 H99        27.9733  -26.4547  -40.4363 H         1 UNK         0.0839 
    100 H100       26.5412  -30.4537  -40.0866 H         1 UNK         0.2998 
    101 H101       26.8292  -31.4285  -37.3803 H         1 UNK         0.0822 
    102 H102       26.0505  -32.8535  -39.9877 H         1 UNK         0.0787 
    103 H103       27.6915  -32.6787  -39.3619 H         1 UNK         0.0787 
    104 H104       26.5159  -33.6452  -38.4889 H         1 UNK         0.0787 
    105 H105       24.1358  -30.1674  -39.0600 H         1 UNK         0.3055 
    106 H106       21.9706  -29.9961  -38.7092 H         1 UNK         0.1106 
    107 H107       22.3934  -31.2695  -35.9516 H         1 UNK         0.0828 
    108 H108       22.5181  -29.5505  -36.3196 H         1 UNK         0.0828 
    109 H109       20.9786  -30.3799  -36.4847 H         1 UNK         0.0828 
    110 H110       22.2058  -31.5942  -40.5072 H         1 UNK         0.2931 
    111 H111       21.6501  -34.3397  -40.1332 H         1 UNK         0.0412 
    112 H112       19.3052  -31.7688  -39.9468 H         1 UNK         0.3472 
    113 H113       17.9127  -32.8022  -40.1482 H         1 UNK         0.3472 
    114 H114       22.8588  -33.5717  -42.0905 H         1 UNK         0.0970 
    115 H115       21.4527  -34.4513  -42.5926 H         1 UNK         0.0970 
    116 H116       20.4228  -33.3868  -44.9464 H         1 UNK         0.0612 
    117 H117       19.3857  -33.5199  -43.5502 H         1 UNK         0.0612 
@<TRIPOS>BOND
     1    1    2 1    
     2    1   62 1    
     3    1   63 1    
     4    1   64 1    
     5    2    3 2    
     6    2    4 am   BACKBONE|DICT|INTERRES
     7    4    5 1    
     8    4   65 1    
     9    5    6 1    
    10    5   25 1    
    11    5   66 1    
    12    6    7 1    
    13    6   67 1    
    14    6   68 1    
    15    7    8 1    
    16    8    9 1    
    17    8   69 1    
    18    8   70 1    
    19    9   10 ar   
    20    9   14 ar   
    21   10   11 ar   
    22   10   71 1    
    23   11   12 ar   
    24   11   61 1    
    25   12   13 ar   
    26   12   72 1    
    27   13   14 ar   
    28   13   15 1    
    29   14   73 1    
    30   15   16 1    
    31   15   74 1    
    32   15   75 1    
    33   16   17 1    
    34   17   18 1    
    35   17   76 1    
    36   17   77 1    
    37   18   19 1    
    38   18   27 1    
    39   18   78 1    
    40   19   20 am   BACKBONE|DICT|INTERRES
    41   19   79 1    
    42   20   21 2    
    43   20   22 1    
    44   22   23 1    
    45   22   24 1    
    46   22   80 1    
    47   23   81 1    
    48   23   82 1    
    49   23   83 1    
    50   24   25 am   BACKBONE|DICT|INTERRES
    51   24   84 1    
    52   25   26 2    
    53   27   28 2    
    54   27   29 am   BACKBONE|DICT|INTERRES
    55   29   30 1    
    56   29   85 1    
    57   30   31 1    
    58   30   32 1    
    59   30   86 1    
    60   31   87 1    
    61   31   88 1    
    62   31   89 1    
    63   32   33 2    
    64   32   34 am   BACKBONE|DICT|INTERRES
    65   34   35 1    
    66   34   90 1    
    67   35   36 1    
    68   35   37 1    
    69   35   91 1    
    70   36   92 1    
    71   36   93 1    
    72   36   94 1    
    73   37   38 2    
    74   37   39 am   BACKBONE|DICT|INTERRES
    75   39   40 1    
    76   39   95 1    
    77   40   41 1    
    78   40   42 1    
    79   40   96 1    
    80   41   97 1    
    81   41   98 1    
    82   41   99 1    
    83   42   43 2    
    84   42   44 am   BACKBONE|DICT|INTERRES
    85   44   45 1    
    86   44  100 1    
    87   45   46 1    
    88   45   47 1    
    89   45  101 1    
    90   46  102 1    
    91   46  103 1    
    92   46  104 1    
    93   47   48 2    
    94   47   49 am   BACKBONE|DICT|INTERRES
    95   49   50 1    
    96   49  105 1    
    97   50   51 1    
    98   50   52 1    
    99   50  106 1    
   100   51  107 1    
   101   51  108 1    
   102   51  109 1    
   103   52   53 2    
   104   52   54 am   BACKBONE|DICT|INTERRES
   105   54   55 1    
   106   54  110 1    
   107   55   56 1    
   108   55   59 1    
   109   55  111 1    
   110   56   57 am   BACKBONE|DICT|INTERRES
   111   56   58 2    
   112   57  112 1    
   113   57  113 1    
   114   59   60 1    
   115   59  114 1    
   116   59  115 1    
   117   60   61 1    
   118   61  116 1    
   119   61  117 1    
@<TRIPOS>SUBSTRUCTURE
     1 UNK         1 GROUP             0       ****    0 ROOT    
