@<TRIPOS>MOLECULE
3R8
117   119    1
SMALL
USER_CHARGES


@<TRIPOS>ATOM
      1 CA         19.5891  -24.1904  -39.3466 C.3       0 UNK        -0.2013 
      2 C          18.9003  -24.2581  -40.7015 C.2       0 UNK         0.4866 
      3 O          18.2099  -23.3144  -41.0884 O.2       0 UNK        -0.5176 
      4 N          19.0810  -25.3698  -41.4220 N.am      1 UNK        -0.4884 
      5 CA         18.5716  -25.5891  -42.7785 C.3       1 UNK         0.0853 
      6 C6         18.6069  -27.0911  -43.1571 C.3       10 UNK        -0.0849 
      7 S7         17.5884  -28.1260  -42.0505 S.3       10 UNK        -0.2776 
      8 C8         16.6326  -29.1290  -43.2363 C.3       10 UNK         0.0316 
      9 C9         17.5317  -30.0417  -44.0599 C.ar      10 UNK        -0.0863 
     10 C10        18.1280  -31.1592  -43.4675 C.ar      10 UNK        -0.1009 
     11 C11        18.9810  -31.9915  -44.2052 C.ar      10 UNK        -0.0712 
     12 C12        19.2181  -31.6923  -45.5509 C.ar      10 UNK        -0.0894 
     13 C13        18.6180  -30.5872  -46.1614 C.ar      10 UNK        -0.0745 
     14 C14        17.7673  -29.7703  -45.4108 C.ar      10 UNK        -0.0972 
     15 C15        18.8841  -30.2943  -47.6352 C.3       10 UNK         0.0209 
     16 S16        19.4500  -28.5886  -47.9472 S.3       10 UNK        -0.2568 
     17 C17        20.9592  -28.5064  -46.9240 C.3       10 UNK        -0.0983 
     18 CA         21.5805  -27.0842  -46.8764 C.3       3 UNK         0.0876 
     19 N          20.5852  -26.0863  -46.4709 N.am      3 UNK        -0.4424 
     20 C          20.6168  -24.7687  -46.7070 C.2       2 UNK         0.4918 
     21 O          21.5333  -24.2064  -47.3070 O.2       2 UNK        -0.4875 
     22 CA         19.4480  -23.9327  -46.1475 C.3       2 UNK         0.0481 
     23 CB         18.4080  -23.6695  -47.2476 C.3       2 UNK        -0.1831 
     24 N          18.7864  -24.5500  -44.9899 N.am      2 UNK        -0.4498 
     25 C          19.3821  -24.7760  -43.8096 C.2       1 UNK         0.5027 
     26 O          20.5422  -24.4347  -43.5624 O.2       1 UNK        -0.4969 
     27 C          22.8418  -27.0325  -45.9785 C.2       3 UNK         0.5005 
     28 O          23.2581  -28.0637  -45.4475 O.2       3 UNK        -0.5279 
     29 N          23.4173  -25.8305  -45.8131 N.am      4 UNK        -0.4463 
     30 CA         24.5883  -25.4999  -44.9899 C.3       4 UNK         0.0283 
     31 CB         25.8707  -26.0990  -45.6056 C.3       4 UNK        -0.1875 
     32 C          24.3966  -25.8876  -43.5104 C.2       4 UNK         0.4949 
     33 O          25.1993  -26.6408  -42.9563 O.2       4 UNK        -0.5039 
     34 N          23.3002  -25.3994  -42.9121 N.am      5 UNK        -0.4663 
     35 CA         22.8098  -25.6415  -41.5466 C.3       5 UNK         0.0242 
     36 CB         23.8492  -25.2705  -40.4708 C.3       5 UNK        -0.1982 
     37 C          22.2544  -27.0576  -41.3251 C.2       5 UNK         0.5017 
     38 O          21.1960  -27.1875  -40.7086 O.2       5 UNK        -0.5012 
     39 N          22.9621  -28.0792  -41.8245 N.am      6 UNK        -0.4439 
     40 CA         22.6790  -29.5222  -41.8020 C.3       6 UNK         0.0297 
     41 CB         21.3753  -29.8473  -42.5507 C.3       6 UNK        -0.2006 
     42 C          22.6881  -30.1715  -40.4044 C.2       6 UNK         0.4892 
     43 O          23.2513  -31.2575  -40.2559 O.2       6 UNK        -0.5089 
     44 N          22.0903  -29.4984  -39.4116 N.am      7 UNK        -0.4243 
     45 CA         21.9869  -29.8721  -37.9993 C.3       7 UNK         0.0196 
     46 CB         23.3631  -29.7344  -37.3079 C.3       7 UNK        -0.2007 
     47 C          21.3241  -31.2509  -37.8228 C.2       7 UNK         0.5020 
     48 O          20.1261  -31.3793  -38.0757 O.2       7 UNK        -0.5147 
     49 N          22.1055  -32.2515  -37.3988 N.am      8 UNK        -0.4734 
     50 CA         21.6678  -33.6365  -37.2120 C.3       8 UNK         0.0238 
     51 CB         22.6319  -34.3294  -36.2334 C.3       8 UNK        -0.1912 
     52 C          21.5575  -34.4404  -38.5223 C.2       8 UNK         0.5038 
     53 O          21.0363  -35.5558  -38.4793 O.2       8 UNK        -0.5046 
     54 N          22.0598  -33.8946  -39.6413 N.am      9 UNK        -0.4200 
     55 CA         22.1100  -34.5306  -40.9717 C.3       9 UNK         0.0839 
     56 C          23.0800  -35.7491  -41.0649 C.2       9 UNK         0.5513 
     57 N          24.0215  -35.9168  -40.1436 N.am      9 UNK        -0.7519 
     58 O          23.0049  -36.5399  -42.0022 O.2       9 UNK        -0.4960 
     59 C59        20.7005  -34.8332  -41.5626 C.3       10 UNK        -0.0876 
     60 S60        19.6989  -33.3243  -41.7893 S.3       10 UNK        -0.2414 
     61 C61        19.6573  -33.2300  -43.6131 C.3       10 UNK         0.0169 
     62 H62        18.8561  -24.0108  -38.5606 H         1 UNK         0.0903 
     63 H63        20.1170  -25.1149  -39.1119 H         1 UNK         0.0903 
     64 H64        20.3115  -23.3747  -39.3337 H         1 UNK         0.0903 
     65 H65        19.6843  -26.1069  -41.0647 H         1 UNK         0.3096 
     66 H66        17.5366  -25.2411  -42.8128 H         1 UNK         0.1121 
     67 H67        18.2580  -27.2297  -44.1810 H         1 UNK         0.0849 
     68 H68        19.6295  -27.4718  -43.1343 H         1 UNK         0.0849 
     69 H69        15.9122  -29.7357  -42.6857 H         1 UNK         0.0865 
     70 H70        16.0463  -28.4709  -43.8795 H         1 UNK         0.0865 
     71 H71        17.9272  -31.3626  -42.4255 H         1 UNK         0.1346 
     72 H72        19.8723  -32.3310  -46.1289 H         1 UNK         0.1412 
     73 H73        17.2997  -28.9156  -45.8802 H         1 UNK         0.1426 
     74 H74        17.9661  -30.4675  -48.1981 H         1 UNK         0.0716 
     75 H75        19.6272  -30.9833  -48.0400 H         1 UNK         0.0716 
     76 H76        21.6776  -29.2264  -47.3206 H         1 UNK         0.0695 
     77 H77        20.7117  -28.8404  -45.9147 H         1 UNK         0.0695 
     78 H78        21.9115  -26.8366  -47.8875 H         1 UNK         0.0983 
     79 H79        19.7861  -26.4541  -45.9798 H         1 UNK         0.3095 
     80 H80        19.8561  -22.9721  -45.8264 H         1 UNK         0.0454 
     81 H81        18.8671  -23.1832  -48.1096 H         1 UNK         0.0851 
     82 H82        17.6128  -23.0125  -46.8950 H         1 UNK         0.0851 
     83 H83        17.9500  -24.5938  -47.6022 H         1 UNK         0.0851 
     84 H84        17.8298  -24.8469  -45.1239 H         1 UNK         0.2976 
     85 H85        22.9757  -25.0500  -46.2920 H         1 UNK         0.3116 
     86 H86        24.6885  -24.4138  -45.0135 H         1 UNK         0.0646 
     87 H87        25.8531  -27.1894  -45.6002 H         1 UNK         0.0847 
     88 H88        26.0071  -25.7713  -46.6360 H         1 UNK         0.0847 
     89 H89        26.7539  -25.7867  -45.0471 H         1 UNK         0.0847 
     90 H90        22.6577  -24.8557  -43.4791 H         1 UNK         0.3040 
     91 H91        21.9698  -24.9582  -41.4177 H         1 UNK         0.1015 
     92 H92        23.4111  -25.3341  -39.4738 H         1 UNK         0.0786 
     93 H93        24.2080  -24.2496  -40.6020 H         1 UNK         0.0786 
     94 H94        24.7133  -25.9350  -40.4833 H         1 UNK         0.0786 
     95 H95        23.8328  -27.8192  -42.2826 H         1 UNK         0.3172 
     96 H96        23.4953  -29.9793  -42.3634 H         1 UNK         0.0595 
     97 H97        20.4943  -29.4872  -42.0186 H         1 UNK         0.0839 
     98 H98        21.2629  -30.9245  -42.6662 H         1 UNK         0.0839 
     99 H99        21.3683  -29.4142  -43.5507 H         1 UNK         0.0839 
    100 H100       21.6222  -28.6350  -39.6789 H         1 UNK         0.2998 
    101 H101       21.3124  -29.1495  -37.5373 H         1 UNK         0.0822 
    102 H102       23.2987  -29.9795  -36.2467 H         1 UNK         0.0787 
    103 H103       23.7282  -28.7094  -37.3745 H         1 UNK         0.0787 
    104 H104       24.1209  -30.3783  -37.7556 H         1 UNK         0.0787 
    105 H105       23.0832  -32.0552  -37.2371 H         1 UNK         0.3055 
    106 H106       20.6724  -33.6285  -36.7617 H         1 UNK         0.1106 
    107 H107       22.6627  -33.8131  -35.2738 H         1 UNK         0.0828 
    108 H108       22.3185  -35.3554  -36.0346 H         1 UNK         0.0828 
    109 H109       23.6483  -34.3705  -36.6266 H         1 UNK         0.0828 
    110 H110       22.4703  -32.9671  -39.5949 H         1 UNK         0.2931 
    111 H111       22.5676  -33.7822  -41.6199 H         1 UNK         0.0412 
    112 H112       24.1101  -35.2662  -39.3799 H         1 UNK         0.3472 
    113 H113       24.6514  -36.7005  -40.2172 H         1 UNK         0.3472 
    114 H114       20.7878  -35.3383  -42.5259 H         1 UNK         0.0970 
    115 H115       20.1499  -35.5249  -40.9244 H         1 UNK         0.0970 
    116 H116       19.1488  -34.1158  -43.9961 H         1 UNK         0.0612 
    117 H117       20.6861  -33.2765  -43.9744 H         1 UNK         0.0612 
@<TRIPOS>BOND
     1    1    2 1    
     2    1   62 1    
     3    1   63 1    
     4    1   64 1    
     5    2    3 2    
     6    2    4 am   BACKBONE|DICT|INTERRES
     7    4    5 1    
     8    4   65 1    
     9    5    6 1    
    10    5   25 1    
    11    5   66 1    
    12    6    7 1    
    13    6   67 1    
    14    6   68 1    
    15    7    8 1    
    16    8    9 1    
    17    8   69 1    
    18    8   70 1    
    19    9   10 ar   
    20    9   14 ar   
    21   10   11 ar   
    22   10   71 1    
    23   11   12 ar   
    24   11   61 1    
    25   12   13 ar   
    26   12   72 1    
    27   13   14 ar   
    28   13   15 1    
    29   14   73 1    
    30   15   16 1    
    31   15   74 1    
    32   15   75 1    
    33   16   17 1    
    34   17   18 1    
    35   17   76 1    
    36   17   77 1    
    37   18   19 1    
    38   18   27 1    
    39   18   78 1    
    40   19   20 am   BACKBONE|DICT|INTERRES
    41   19   79 1    
    42   20   21 2    
    43   20   22 1    
    44   22   23 1    
    45   22   24 1    
    46   22   80 1    
    47   23   81 1    
    48   23   82 1    
    49   23   83 1    
    50   24   25 am   BACKBONE|DICT|INTERRES
    51   24   84 1    
    52   25   26 2    
    53   27   28 2    
    54   27   29 am   BACKBONE|DICT|INTERRES
    55   29   30 1    
    56   29   85 1    
    57   30   31 1    
    58   30   32 1    
    59   30   86 1    
    60   31   87 1    
    61   31   88 1    
    62   31   89 1    
    63   32   33 2    
    64   32   34 am   BACKBONE|DICT|INTERRES
    65   34   35 1    
    66   34   90 1    
    67   35   36 1    
    68   35   37 1    
    69   35   91 1    
    70   36   92 1    
    71   36   93 1    
    72   36   94 1    
    73   37   38 2    
    74   37   39 am   BACKBONE|DICT|INTERRES
    75   39   40 1    
    76   39   95 1    
    77   40   41 1    
    78   40   42 1    
    79   40   96 1    
    80   41   97 1    
    81   41   98 1    
    82   41   99 1    
    83   42   43 2    
    84   42   44 am   BACKBONE|DICT|INTERRES
    85   44   45 1    
    86   44  100 1    
    87   45   46 1    
    88   45   47 1    
    89   45  101 1    
    90   46  102 1    
    91   46  103 1    
    92   46  104 1    
    93   47   48 2    
    94   47   49 am   BACKBONE|DICT|INTERRES
    95   49   50 1    
    96   49  105 1    
    97   50   51 1    
    98   50   52 1    
    99   50  106 1    
   100   51  107 1    
   101   51  108 1    
   102   51  109 1    
   103   52   53 2    
   104   52   54 am   BACKBONE|DICT|INTERRES
   105   54   55 1    
   106   54  110 1    
   107   55   56 1    
   108   55   59 1    
   109   55  111 1    
   110   56   57 am   BACKBONE|DICT|INTERRES
   111   56   58 2    
   112   57  112 1    
   113   57  113 1    
   114   59   60 1    
   115   59  114 1    
   116   59  115 1    
   117   60   61 1    
   118   61  116 1    
   119   61  117 1    
@<TRIPOS>SUBSTRUCTURE
     1 UNK         1 GROUP             0       ****    0 ROOT    
