@<TRIPOS>MOLECULE
3R8
117   119    1
SMALL
USER_CHARGES


@<TRIPOS>ATOM
      1 CA         18.5017  -22.6039  -49.2837 C.3       0 UNK        -0.2013 
      2 C          19.4067  -23.2050  -48.2186 C.2       0 UNK         0.4866 
      3 O          20.3660  -22.5595  -47.7946 O.2       0 UNK        -0.5176 
      4 N          19.1153  -24.4389  -47.7878 N.am      1 UNK        -0.4884 
      5 CA         19.8355  -25.1399  -46.7211 C.3       1 UNK         0.0853 
      6 C6         19.5168  -26.6573  -46.7413 C.3       10 UNK        -0.0849 
      7 S7         20.7418  -27.6599  -45.8309 S.3       10 UNK        -0.2776 
      8 C8         20.1157  -29.3458  -46.1349 C.3       10 UNK         0.0316 
      9 C9         19.3453  -29.9014  -44.9434 C.ar      10 UNK        -0.0863 
     10 C10        19.9356  -30.8591  -44.1104 C.ar      10 UNK        -0.1009 
     11 C11        19.2246  -31.4063  -43.0376 C.ar      10 UNK        -0.0712 
     12 C12        17.9219  -30.9719  -42.7871 C.ar      10 UNK        -0.0894 
     13 C13        17.3323  -29.9905  -43.5887 C.ar      10 UNK        -0.0745 
     14 C14        18.0382  -29.4772  -44.6818 C.ar      10 UNK        -0.0972 
     15 C15        15.9435  -29.4721  -43.2468 C.3       10 UNK         0.0209 
     16 S16        15.9226  -28.6587  -41.6145 S.3       10 UNK        -0.2568 
     17 C17        16.7316  -27.0576  -41.9595 C.3       10 UNK        -0.0983 
     18 CA         18.2833  -27.0668  -41.9459 C.3       3 UNK         0.0876 
     19 N          18.8020  -25.7495  -42.3242 N.am      3 UNK        -0.4424 
     20 C          20.0859  -25.3716  -42.3738 C.2       2 UNK         0.4918 
     21 O          21.0351  -26.0536  -41.9889 O.2       2 UNK        -0.4875 
     22 CA         20.3564  -24.0360  -43.0813 C.3       2 UNK         0.0481 
     23 CB         21.6184  -23.3342  -42.5488 C.3       2 UNK        -0.1831 
     24 N          20.5148  -24.3178  -44.5075 N.am      2 UNK        -0.4498 
     25 C          19.4938  -24.5222  -45.3505 C.2       1 UNK         0.5027 
     26 O          18.3141  -24.2967  -45.0642 O.2       1 UNK        -0.4969 
     27 C          18.8882  -27.5971  -40.6284 C.2       3 UNK         0.5005 
     28 O          18.7811  -26.9324  -39.5953 O.2       3 UNK        -0.5279 
     29 N          19.5592  -28.7552  -40.7206 N.am      4 UNK        -0.4463 
     30 CA         20.3008  -29.4892  -39.6858 C.3       4 UNK         0.0283 
     31 CB         19.3892  -29.8808  -38.5076 C.3       4 UNK        -0.1875 
     32 C          21.5954  -28.8132  -39.1934 C.2       4 UNK         0.4949 
     33 O          22.5178  -29.5286  -38.8020 O.2       4 UNK        -0.5039 
     34 N          21.6620  -27.4759  -39.2205 N.am      5 UNK        -0.4663 
     35 CA         22.8442  -26.6835  -38.8715 C.3       5 UNK         0.0242 
     36 CB         22.4452  -25.2062  -38.7257 C.3       5 UNK        -0.1982 
     37 C          23.9816  -26.8458  -39.8939 C.2       5 UNK         0.5017 
     38 O          25.1401  -26.9727  -39.4953 O.2       5 UNK        -0.5012 
     39 N          23.6230  -26.8623  -41.1818 N.am      6 UNK        -0.4439 
     40 CA         24.4891  -27.2081  -42.3036 C.3       6 UNK         0.0297 
     41 CB         24.3641  -26.1264  -43.3884 C.3       6 UNK        -0.2006 
     42 C          24.0429  -28.5651  -42.8599 C.2       6 UNK         0.4892 
     43 O          22.8534  -28.8853  -42.7976 O.2       6 UNK        -0.5089 
     44 N          25.0094  -29.3183  -43.4093 N.am      7 UNK        -0.4243 
     45 CA         24.8492  -30.6390  -44.0369 C.3       7 UNK         0.0196 
     46 CB         24.1477  -30.4911  -45.4044 C.3       7 UNK        -0.2007 
     47 C          24.1475  -31.6526  -43.1100 C.2       7 UNK         0.5020 
     48 O          23.1670  -32.2757  -43.5168 O.2       7 UNK        -0.5147 
     49 N          24.6472  -31.7441  -41.8666 N.am      8 UNK        -0.4734 
     50 CA         24.0608  -32.4662  -40.7308 C.3       8 UNK         0.0238 
     51 CB         25.0518  -32.4535  -39.5553 C.3       8 UNK        -0.1912 
     52 C          23.6208  -33.9051  -41.0577 C.2       8 UNK         0.5038 
     53 O          24.4329  -34.7036  -41.5311 O.2       8 UNK        -0.5046 
     54 N          22.3396  -34.1852  -40.8007 N.am      9 UNK        -0.4200 
     55 CA         21.6508  -35.4347  -41.1519 C.3       9 UNK         0.0839 
     56 C          21.8708  -36.5928  -40.1351 C.2       9 UNK         0.5513 
     57 N          22.5349  -36.3764  -39.0058 N.am      9 UNK        -0.7519 
     58 O          21.4363  -37.7150  -40.3812 O.2       9 UNK        -0.4960 
     59 C59        20.1393  -35.1767  -41.4028 C.3       10 UNK        -0.0876 
     60 S60        19.8100  -34.1104  -42.8528 S.3       10 UNK        -0.2414 
     61 C61        19.8665  -32.4417  -42.1268 C.3       10 UNK         0.0169 
     62 H62        18.0444  -21.6869  -48.9130 H         1 UNK         0.0903 
     63 H63        19.0806  -22.3602  -50.1742 H         1 UNK         0.0903 
     64 H64        17.7038  -23.2869  -49.5748 H         1 UNK         0.0903 
     65 H65        18.2947  -24.9069  -48.1460 H         1 UNK         0.3096 
     66 H66        20.9038  -25.0091  -46.9106 H         1 UNK         0.1121 
     67 H67        19.5167  -27.0152  -47.7724 H         1 UNK         0.0849 
     68 H68        18.5159  -26.8557  -46.3541 H         1 UNK         0.0849 
     69 H69        19.4823  -29.3633  -47.0229 H         1 UNK         0.0865 
     70 H70        20.9634  -29.9919  -46.3664 H         1 UNK         0.0865 
     71 H71        20.9485  -31.1878  -44.2993 H         1 UNK         0.1346 
     72 H72        17.3721  -31.3760  -41.9476 H         1 UNK         0.1412 
     73 H73        17.5791  -28.7315  -45.3153 H         1 UNK         0.1426 
     74 H74        15.2471  -30.3117  -43.2312 H         1 UNK         0.0716 
     75 H75        15.5768  -28.7813  -44.0076 H         1 UNK         0.0716 
     76 H76        16.3632  -26.3422  -41.2218 H         1 UNK         0.0695 
     77 H77        16.3713  -26.6982  -42.9249 H         1 UNK         0.0695 
     78 H78        18.6199  -27.7259  -42.7446 H         1 UNK         0.0983 
     79 H79        18.1207  -25.1104  -42.7088 H         1 UNK         0.3095 
     80 H80        19.5076  -23.3668  -42.9241 H         1 UNK         0.0454 
     81 H81        22.5124  -23.9454  -42.6682 H         1 UNK         0.0851 
     82 H82        21.5175  -23.1118  -41.4861 H         1 UNK         0.0851 
     83 H83        21.7906  -22.3881  -43.0618 H         1 UNK         0.0851 
     84 H84        21.4465  -24.5631  -44.8100 H         1 UNK         0.2976 
     85 H85        19.6224  -29.1715  -41.6410 H         1 UNK         0.3116 
     86 H86        20.6185  -30.4134  -40.1686 H         1 UNK         0.0646 
     87 H87        19.0482  -29.0091  -37.9485 H         1 UNK         0.0847 
     88 H88        19.9182  -30.5265  -37.8055 H         1 UNK         0.0847 
     89 H89        18.5096  -30.4256  -38.8504 H         1 UNK         0.0847 
     90 H90        20.8406  -26.9725  -39.5371 H         1 UNK         0.3040 
     91 H91        23.2146  -27.0363  -37.9064 H         1 UNK         0.1015 
     92 H92        22.0405  -24.8038  -39.6548 H         1 UNK         0.0786 
     93 H93        23.3061  -24.5947  -38.4520 H         1 UNK         0.0786 
     94 H94        21.6929  -25.0740  -37.9480 H         1 UNK         0.0786 
     95 H95        22.6333  -26.7761  -41.4120 H         1 UNK         0.3172 
     96 H96        25.5309  -27.2733  -41.9830 H         1 UNK         0.0595 
     97 H97        25.0068  -26.3501  -44.2407 H         1 UNK         0.0839 
     98 H98        24.6586  -25.1484  -43.0081 H         1 UNK         0.0839 
     99 H99        23.3420  -26.0514  -43.7629 H         1 UNK         0.0839 
    100 H100       25.9530  -28.9558  -43.3991 H         1 UNK         0.2998 
    101 H101       25.8516  -31.0296  -44.2188 H         1 UNK         0.0822 
    102 H102       24.0772  -31.4514  -45.9168 H         1 UNK         0.0787 
    103 H103       23.1345  -30.1039  -45.2938 H         1 UNK         0.0787 
    104 H104       24.6940  -29.8128  -46.0596 H         1 UNK         0.0787 
    105 H105       25.4622  -31.1870  -41.6561 H         1 UNK         0.3055 
    106 H106       23.1812  -31.8929  -40.4296 H         1 UNK         0.1106 
    107 H107       24.6372  -32.9689  -38.6878 H         1 UNK         0.0828 
    108 H108       25.9886  -32.9497  -39.8125 H         1 UNK         0.0828 
    109 H109       25.2829  -31.4352  -39.2414 H         1 UNK         0.0828 
    110 H110       21.7628  -33.4793  -40.3711 H         1 UNK         0.2931 
    111 H111       22.0766  -35.7921  -42.0919 H         1 UNK         0.0412 
    112 H112       22.9055  -35.4637  -38.7962 H         1 UNK         0.3472 
    113 H113       22.6729  -37.1383  -38.3600 H         1 UNK         0.3472 
    114 H114       19.6626  -34.7563  -40.5156 H         1 UNK         0.0970 
    115 H115       19.6232  -36.1198  -41.5931 H         1 UNK         0.0970 
    116 H116       19.3678  -32.4470  -41.1564 H         1 UNK         0.0612 
    117 H117       20.9035  -32.1601  -41.9448 H         1 UNK         0.0612 
@<TRIPOS>BOND
     1    1    2 1    
     2    1   62 1    
     3    1   63 1    
     4    1   64 1    
     5    2    3 2    
     6    2    4 am   BACKBONE|DICT|INTERRES
     7    4    5 1    
     8    4   65 1    
     9    5    6 1    
    10    5   25 1    
    11    5   66 1    
    12    6    7 1    
    13    6   67 1    
    14    6   68 1    
    15    7    8 1    
    16    8    9 1    
    17    8   69 1    
    18    8   70 1    
    19    9   10 ar   
    20    9   14 ar   
    21   10   11 ar   
    22   10   71 1    
    23   11   12 ar   
    24   11   61 1    
    25   12   13 ar   
    26   12   72 1    
    27   13   14 ar   
    28   13   15 1    
    29   14   73 1    
    30   15   16 1    
    31   15   74 1    
    32   15   75 1    
    33   16   17 1    
    34   17   18 1    
    35   17   76 1    
    36   17   77 1    
    37   18   19 1    
    38   18   27 1    
    39   18   78 1    
    40   19   20 am   BACKBONE|DICT|INTERRES
    41   19   79 1    
    42   20   21 2    
    43   20   22 1    
    44   22   23 1    
    45   22   24 1    
    46   22   80 1    
    47   23   81 1    
    48   23   82 1    
    49   23   83 1    
    50   24   25 am   BACKBONE|DICT|INTERRES
    51   24   84 1    
    52   25   26 2    
    53   27   28 2    
    54   27   29 am   BACKBONE|DICT|INTERRES
    55   29   30 1    
    56   29   85 1    
    57   30   31 1    
    58   30   32 1    
    59   30   86 1    
    60   31   87 1    
    61   31   88 1    
    62   31   89 1    
    63   32   33 2    
    64   32   34 am   BACKBONE|DICT|INTERRES
    65   34   35 1    
    66   34   90 1    
    67   35   36 1    
    68   35   37 1    
    69   35   91 1    
    70   36   92 1    
    71   36   93 1    
    72   36   94 1    
    73   37   38 2    
    74   37   39 am   BACKBONE|DICT|INTERRES
    75   39   40 1    
    76   39   95 1    
    77   40   41 1    
    78   40   42 1    
    79   40   96 1    
    80   41   97 1    
    81   41   98 1    
    82   41   99 1    
    83   42   43 2    
    84   42   44 am   BACKBONE|DICT|INTERRES
    85   44   45 1    
    86   44  100 1    
    87   45   46 1    
    88   45   47 1    
    89   45  101 1    
    90   46  102 1    
    91   46  103 1    
    92   46  104 1    
    93   47   48 2    
    94   47   49 am   BACKBONE|DICT|INTERRES
    95   49   50 1    
    96   49  105 1    
    97   50   51 1    
    98   50   52 1    
    99   50  106 1    
   100   51  107 1    
   101   51  108 1    
   102   51  109 1    
   103   52   53 2    
   104   52   54 am   BACKBONE|DICT|INTERRES
   105   54   55 1    
   106   54  110 1    
   107   55   56 1    
   108   55   59 1    
   109   55  111 1    
   110   56   57 am   BACKBONE|DICT|INTERRES
   111   56   58 2    
   112   57  112 1    
   113   57  113 1    
   114   59   60 1    
   115   59  114 1    
   116   59  115 1    
   117   60   61 1    
   118   61  116 1    
   119   61  117 1    
@<TRIPOS>SUBSTRUCTURE
     1 UNK         1 GROUP             0       ****    0 ROOT    
