@<TRIPOS>MOLECULE
3R8
117   119    1
SMALL
USER_CHARGES


@<TRIPOS>ATOM
      1 CA         13.6358  -23.3438  -42.7271 C.3       0 UNK        -0.2013 
      2 C          14.2284  -24.5464  -43.4454 C.2       0 UNK         0.4866 
      3 O          14.0959  -25.6715  -42.9631 O.2       0 UNK        -0.5176 
      4 N          14.8922  -24.3166  -44.5873 N.am      1 UNK        -0.4884 
      5 CA         15.5469  -25.2971  -45.4699 C.3       1 UNK         0.0853 
      6 C6         14.5897  -26.4135  -45.9712 C.3       10 UNK        -0.0849 
      7 S7         15.1071  -27.1203  -47.5724 S.3       10 UNK        -0.2776 
      8 C8         15.3335  -28.8886  -47.1745 C.3       10 UNK         0.0316 
      9 C9         16.6938  -29.2214  -46.5650 C.ar      10 UNK        -0.0863 
     10 C10        16.7740  -29.9599  -45.3784 C.ar      10 UNK        -0.1009 
     11 C11        18.0138  -30.3599  -44.8639 C.ar      10 UNK        -0.0712 
     12 C12        19.1781  -30.0213  -45.5606 C.ar      10 UNK        -0.0894 
     13 C13        19.1198  -29.2448  -46.7194 C.ar      10 UNK        -0.0745 
     14 C14        17.8742  -28.8580  -47.2228 C.ar      10 UNK        -0.0972 
     15 C15        20.4006  -28.8430  -47.4382 C.3       10 UNK         0.0209 
     16 S16        21.1177  -27.3071  -46.7628 S.3       10 UNK        -0.2568 
     17 C17        21.9718  -27.8933  -45.2573 C.3       10 UNK        -0.0983 
     18 CA         21.4442  -27.2441  -43.9481 C.3       3 UNK         0.0876 
     19 N          20.0021  -27.4348  -43.7755 N.am      3 UNK        -0.4424 
     20 C          19.1917  -26.6921  -43.0134 C.2       2 UNK         0.4918 
     21 O          19.5578  -25.6971  -42.3833 O.2       2 UNK        -0.4875 
     22 CA         17.7391  -27.1810  -42.9013 C.3       2 UNK         0.0481 
     23 CB         17.3055  -27.2756  -41.4292 C.3       2 UNK        -0.1831 
     24 N          16.7563  -26.3883  -43.6402 N.am      2 UNK        -0.4498 
     25 C          16.8441  -25.8874  -44.8808 C.2       1 UNK         0.5027 
     26 O          17.8659  -25.8755  -45.5659 O.2       1 UNK        -0.4969 
     27 C          22.2035  -27.7582  -42.7028 C.2       3 UNK         0.5005 
     28 O          23.0453  -28.6515  -42.8130 O.2       3 UNK        -0.5279 
     29 N          21.8846  -27.2006  -41.5249 N.am      4 UNK        -0.4463 
     30 CA         22.4002  -27.6072  -40.2113 C.3       4 UNK         0.0283 
     31 CB         21.7151  -26.7777  -39.1152 C.3       4 UNK        -0.1875 
     32 C          23.9308  -27.5277  -40.0743 C.2       4 UNK         0.4949 
     33 O          24.5064  -28.2844  -39.2915 O.2       4 UNK        -0.5039 
     34 N          24.5594  -26.6571  -40.8772 N.am      5 UNK        -0.4663 
     35 CA         26.0095  -26.5220  -41.0304 C.3       5 UNK         0.0242 
     36 CB         26.3068  -25.3394  -41.9660 C.3       5 UNK        -0.1982 
     37 C          26.7104  -27.7967  -41.5377 C.2       5 UNK         0.5017 
     38 O          27.8982  -27.9667  -41.2630 O.2       5 UNK        -0.5012 
     39 N          25.9770  -28.6970  -42.2119 N.am      6 UNK        -0.4439 
     40 CA         26.4474  -30.0174  -42.6456 C.3       6 UNK         0.0297 
     41 CB         25.6331  -30.4613  -43.8759 C.3       6 UNK        -0.2006 
     42 C          26.4060  -31.0590  -41.5042 C.2       6 UNK         0.4892 
     43 O          26.0084  -32.2016  -41.7365 O.2       6 UNK        -0.5089 
     44 N          26.8160  -30.6412  -40.2960 N.am      7 UNK        -0.4243 
     45 CA         26.8694  -31.4013  -39.0412 C.3       7 UNK         0.0196 
     46 CB         27.9920  -32.4595  -39.1054 C.3       7 UNK        -0.2007 
     47 C          25.5051  -31.9913  -38.6282 C.2       7 UNK         0.5020 
     48 O          25.4454  -33.1549  -38.2284 O.2       7 UNK        -0.5147 
     49 N          24.4507  -31.1646  -38.7283 N.am      8 UNK        -0.4734 
     50 CA         23.0271  -31.4747  -38.5344 C.3       8 UNK         0.0238 
     51 CB         22.7366  -31.9849  -37.1075 C.3       8 UNK        -0.1912 
     52 C          22.5021  -32.4387  -39.6154 C.2       8 UNK         0.5038 
     53 O          22.7587  -33.6421  -39.5489 O.2       8 UNK        -0.5046 
     54 N          21.7745  -31.8887  -40.5963 N.am      9 UNK        -0.4200 
     55 CA         21.2282  -32.6204  -41.7517 C.3       9 UNK         0.0839 
     56 C          20.1333  -33.6857  -41.4398 C.2       9 UNK         0.5513 
     57 N          19.5449  -33.7103  -40.2499 N.am      9 UNK        -0.7519 
     58 O          19.8181  -34.5069  -42.2972 O.2       9 UNK        -0.4960 
     59 C59        20.7883  -31.6455  -42.8747 C.3       10 UNK        -0.0876 
     60 S60        19.3711  -30.5833  -42.4097 S.3       10 UNK        -0.2414 
     61 C61        18.0754  -31.1617  -43.5638 C.3       10 UNK         0.0169 
     62 H62        14.0636  -23.2553  -41.7288 H         1 UNK         0.0903 
     63 H63        13.8257  -22.4132  -43.2615 H         1 UNK         0.0903 
     64 H64        12.5573  -23.4624  -42.6261 H         1 UNK         0.0903 
     65 H65        14.9826  -23.3583  -44.8982 H         1 UNK         0.3096 
     66 H66        15.8510  -24.7118  -46.3401 H         1 UNK         0.1121 
     67 H67        13.5912  -26.0006  -46.1227 H         1 UNK         0.0849 
     68 H68        14.4695  -27.2010  -45.2247 H         1 UNK         0.0849 
     69 H69        14.5192  -29.2227  -46.5297 H         1 UNK         0.0865 
     70 H70        15.2328  -29.4594  -48.0986 H         1 UNK         0.0865 
     71 H71        15.8664  -30.2417  -44.8620 H         1 UNK         0.1346 
     72 H72        20.1385  -30.3471  -45.1929 H         1 UNK         0.1412 
     73 H73        17.8213  -28.2788  -48.1347 H         1 UNK         0.1426 
     74 H74        20.1937  -28.6892  -48.4983 H         1 UNK         0.0716 
     75 H75        21.1348  -29.6488  -47.3912 H         1 UNK         0.0716 
     76 H76        23.0317  -27.6629  -45.3815 H         1 UNK         0.0695 
     77 H77        21.9166  -28.9806  -45.2025 H         1 UNK         0.0695 
     78 H78        21.6371  -26.1712  -44.0156 H         1 UNK         0.0983 
     79 H79        19.6008  -28.2133  -44.2798 H         1 UNK         0.3095 
     80 H80        17.6876  -28.1862  -43.3130 H         1 UNK         0.0454 
     81 H81        16.3277  -27.7478  -41.3323 H         1 UNK         0.0851 
     82 H82        17.2512  -26.2920  -40.9611 H         1 UNK         0.0851 
     83 H83        18.0112  -27.8749  -40.8520 H         1 UNK         0.0851 
     84 H84        15.8466  -26.2859  -43.1970 H         1 UNK         0.2976 
     85 H85        21.1625  -26.4856  -41.5348 H         1 UNK         0.3116 
     86 H86        22.1197  -28.6518  -40.0717 H         1 UNK         0.0646 
     87 H87        21.9282  -25.7133  -39.2223 H         1 UNK         0.0847 
     88 H88        22.0570  -27.0805  -38.1243 H         1 UNK         0.0847 
     89 H89        20.6328  -26.9074  -39.1359 H         1 UNK         0.0847 
     90 H90        23.9875  -26.0828  -41.4790 H         1 UNK         0.3040 
     91 H91        26.4249  -26.2977  -40.0454 H         1 UNK         0.1015 
     92 H92        25.8933  -25.4990  -42.9627 H         1 UNK         0.0786 
     93 H93        27.3820  -25.1917  -42.0793 H         1 UNK         0.0786 
     94 H94        25.8947  -24.4089  -41.5747 H         1 UNK         0.0786 
     95 H95        24.9876  -28.5123  -42.3573 H         1 UNK         0.3172 
     96 H96        27.4901  -29.9310  -42.9581 H         1 UNK         0.0595 
     97 H97        24.5902  -30.6533  -43.6207 H         1 UNK         0.0839 
     98 H98        26.0372  -31.3807  -44.3013 H         1 UNK         0.0839 
     99 H99        25.6523  -29.7062  -44.6617 H         1 UNK         0.0839 
    100 H100       27.1356  -29.6815  -40.2382 H         1 UNK         0.2998 
    101 H101       27.1363  -30.6861  -38.2615 H         1 UNK         0.0822 
    102 H102       28.9491  -32.0076  -39.3655 H         1 UNK         0.0787 
    103 H103       28.1202  -32.9540  -38.1416 H         1 UNK         0.0787 
    104 H104       27.7750  -33.2336  -39.8424 H         1 UNK         0.0787 
    105 H105       24.6355  -30.2137  -39.0404 H         1 UNK         0.3055 
    106 H106       22.4980  -30.5270  -38.6391 H         1 UNK         0.1106 
    107 H107       21.6637  -32.1005  -36.9499 H         1 UNK         0.0828 
    108 H108       23.1937  -32.9556  -36.9139 H         1 UNK         0.0828 
    109 H109       23.1019  -31.2866  -36.3545 H         1 UNK         0.0828 
    110 H110       21.5765  -30.9000  -40.5803 H         1 UNK         0.2931 
    111 H111       22.0664  -33.1907  -42.1575 H         1 UNK         0.0412 
    112 H112       18.8412  -34.4064  -40.0603 H         1 UNK         0.3472 
    113 H113       19.7960  -33.0392  -39.5427 H         1 UNK         0.3472 
    114 H114       20.5573  -32.2067  -43.7817 H         1 UNK         0.0970 
    115 H115       21.6237  -30.9973  -43.1442 H         1 UNK         0.0970 
    116 H116       17.1213  -31.0878  -43.0399 H         1 UNK         0.0612 
    117 H117       18.2137  -32.2192  -43.7915 H         1 UNK         0.0612 
@<TRIPOS>BOND
     1    1    2 1    
     2    1   62 1    
     3    1   63 1    
     4    1   64 1    
     5    2    3 2    
     6    2    4 am   BACKBONE|DICT|INTERRES
     7    4    5 1    
     8    4   65 1    
     9    5    6 1    
    10    5   25 1    
    11    5   66 1    
    12    6    7 1    
    13    6   67 1    
    14    6   68 1    
    15    7    8 1    
    16    8    9 1    
    17    8   69 1    
    18    8   70 1    
    19    9   10 ar   
    20    9   14 ar   
    21   10   11 ar   
    22   10   71 1    
    23   11   12 ar   
    24   11   61 1    
    25   12   13 ar   
    26   12   72 1    
    27   13   14 ar   
    28   13   15 1    
    29   14   73 1    
    30   15   16 1    
    31   15   74 1    
    32   15   75 1    
    33   16   17 1    
    34   17   18 1    
    35   17   76 1    
    36   17   77 1    
    37   18   19 1    
    38   18   27 1    
    39   18   78 1    
    40   19   20 am   BACKBONE|DICT|INTERRES
    41   19   79 1    
    42   20   21 2    
    43   20   22 1    
    44   22   23 1    
    45   22   24 1    
    46   22   80 1    
    47   23   81 1    
    48   23   82 1    
    49   23   83 1    
    50   24   25 am   BACKBONE|DICT|INTERRES
    51   24   84 1    
    52   25   26 2    
    53   27   28 2    
    54   27   29 am   BACKBONE|DICT|INTERRES
    55   29   30 1    
    56   29   85 1    
    57   30   31 1    
    58   30   32 1    
    59   30   86 1    
    60   31   87 1    
    61   31   88 1    
    62   31   89 1    
    63   32   33 2    
    64   32   34 am   BACKBONE|DICT|INTERRES
    65   34   35 1    
    66   34   90 1    
    67   35   36 1    
    68   35   37 1    
    69   35   91 1    
    70   36   92 1    
    71   36   93 1    
    72   36   94 1    
    73   37   38 2    
    74   37   39 am   BACKBONE|DICT|INTERRES
    75   39   40 1    
    76   39   95 1    
    77   40   41 1    
    78   40   42 1    
    79   40   96 1    
    80   41   97 1    
    81   41   98 1    
    82   41   99 1    
    83   42   43 2    
    84   42   44 am   BACKBONE|DICT|INTERRES
    85   44   45 1    
    86   44  100 1    
    87   45   46 1    
    88   45   47 1    
    89   45  101 1    
    90   46  102 1    
    91   46  103 1    
    92   46  104 1    
    93   47   48 2    
    94   47   49 am   BACKBONE|DICT|INTERRES
    95   49   50 1    
    96   49  105 1    
    97   50   51 1    
    98   50   52 1    
    99   50  106 1    
   100   51  107 1    
   101   51  108 1    
   102   51  109 1    
   103   52   53 2    
   104   52   54 am   BACKBONE|DICT|INTERRES
   105   54   55 1    
   106   54  110 1    
   107   55   56 1    
   108   55   59 1    
   109   55  111 1    
   110   56   57 am   BACKBONE|DICT|INTERRES
   111   56   58 2    
   112   57  112 1    
   113   57  113 1    
   114   59   60 1    
   115   59  114 1    
   116   59  115 1    
   117   60   61 1    
   118   61  116 1    
   119   61  117 1    
@<TRIPOS>SUBSTRUCTURE
     1 UNK         1 GROUP             0       ****    0 ROOT    
