@<TRIPOS>MOLECULE
3R8
117   119    1
SMALL
USER_CHARGES


@<TRIPOS>ATOM
      1 CA         13.4050  -29.7947  -42.4457 C.3       0 UNK        -0.2013 
      2 C          13.4490  -28.6048  -41.4899 C.2       0 UNK         0.4866 
      3 O          12.7446  -28.6322  -40.4821 O.2       0 UNK        -0.5176 
      4 N          14.2141  -27.5299  -41.7381 N.am      1 UNK        -0.4884 
      5 CA         15.1924  -27.2665  -42.8049 C.3       1 UNK         0.0853 
      6 C6         14.6632  -27.5265  -44.2396 C.3       10 UNK        -0.0849 
      7 S7         15.4945  -26.4976  -45.4958 S.3       10 UNK        -0.2776 
      8 C8         15.9582  -27.7417  -46.7422 C.3       10 UNK         0.0316 
      9 C9         17.3241  -28.3594  -46.4725 C.ar      10 UNK        -0.0863 
     10 C10        17.4521  -29.5092  -45.6859 C.ar      10 UNK        -0.1009 
     11 C11        18.6991  -30.1190  -45.5035 C.ar      10 UNK        -0.0712 
     12 C12        19.8251  -29.5632  -46.1287 C.ar      10 UNK        -0.0894 
     13 C13        19.7102  -28.4138  -46.9159 C.ar      10 UNK        -0.0745 
     14 C14        18.4598  -27.8119  -47.0740 C.ar      10 UNK        -0.0972 
     15 C15        20.9150  -27.8558  -47.6601 C.3       10 UNK         0.0209 
     16 S16        21.5583  -26.3335  -46.8986 S.3       10 UNK        -0.2568 
     17 C17        22.7053  -26.9810  -45.6397 C.3       10 UNK        -0.0983 
     18 CA         22.3044  -26.5460  -44.2105 C.3       3 UNK         0.0876 
     19 N          21.1549  -27.2874  -43.7061 N.am      3 UNK        -0.4424 
     20 C          19.9549  -26.7730  -43.4312 C.2       2 UNK         0.4918 
     21 O          19.6020  -25.6234  -43.7075 O.2       2 UNK        -0.4875 
     22 CA         19.0134  -27.6907  -42.6482 C.3       2 UNK         0.0481 
     23 CB         19.3971  -27.7057  -41.1546 C.3       2 UNK        -0.1831 
     24 N          17.6389  -27.2353  -42.8154 N.am      2 UNK        -0.4498 
     25 C          16.5469  -27.9510  -42.5277 C.2       1 UNK         0.5027 
     26 O          16.5844  -29.0941  -42.0683 O.2       1 UNK        -0.4969 
     27 C          23.4444  -26.8299  -43.2231 C.2       3 UNK         0.5005 
     28 O          23.5934  -27.9775  -42.7934 O.2       3 UNK        -0.5279 
     29 N          24.2414  -25.7998  -42.9018 N.am      4 UNK        -0.4463 
     30 CA         25.3122  -25.8320  -41.8947 C.3       4 UNK         0.0283 
     31 CB         25.9498  -24.4383  -41.7810 C.3       4 UNK        -0.1875 
     32 C          26.3965  -26.8969  -42.1351 C.2       4 UNK         0.4949 
     33 O          26.9621  -27.4068  -41.1687 O.2       4 UNK        -0.5039 
     34 N          26.6259  -27.2583  -43.4054 N.am      5 UNK        -0.4663 
     35 CA         27.5128  -28.3492  -43.8243 C.3       5 UNK         0.0242 
     36 CB         27.6398  -28.3289  -45.3562 C.3       5 UNK        -0.1982 
     37 C          27.0625  -29.7431  -43.3414 C.2       5 UNK         0.5017 
     38 O          27.9034  -30.6357  -43.2315 O.2       5 UNK        -0.5012 
     39 N          25.7636  -29.8999  -43.0514 N.am      6 UNK        -0.4439 
     40 CA         25.1547  -31.1064  -42.4901 C.3       6 UNK         0.0297 
     41 CB         23.9370  -31.4780  -43.3519 C.3       6 UNK        -0.2006 
     42 C          24.7496  -30.9107  -41.0158 C.2       6 UNK         0.4892 
     43 O          24.0631  -31.7757  -40.4676 O.2       6 UNK        -0.5089 
     44 N          25.1634  -29.7904  -40.3996 N.am      7 UNK        -0.4243 
     45 CA         24.8366  -29.3470  -39.0415 C.3       7 UNK         0.0196 
     46 CB         25.5325  -30.2435  -37.9913 C.3       7 UNK        -0.2007 
     47 C          23.3145  -29.2104  -38.8506 C.2       7 UNK         0.5020 
     48 O          22.7189  -28.2895  -39.4091 O.2       7 UNK        -0.5147 
     49 N          22.7113  -30.1255  -38.0815 N.am      8 UNK        -0.4734 
     50 CA         21.2652  -30.2041  -37.8609 C.3       8 UNK         0.0238 
     51 CB         20.9985  -31.0210  -36.5857 C.3       8 UNK        -0.1912 
     52 C          20.4918  -30.7999  -39.0524 C.2       8 UNK         0.5038 
     53 O          19.2771  -30.6124  -39.1166 O.2       8 UNK        -0.5046 
     54 N          21.1869  -31.5083  -39.9556 N.am      9 UNK        -0.4200 
     55 CA         20.6307  -32.1733  -41.1458 C.3       9 UNK         0.0839 
     56 C          19.6076  -33.3123  -40.8392 C.2       9 UNK         0.5513 
     57 N          19.6775  -33.9498  -39.6761 N.am      9 UNK        -0.7519 
     58 O          18.7558  -33.6434  -41.6596 O.2       9 UNK        -0.4960 
     59 C59        20.1478  -31.1460  -42.2104 C.3       10 UNK        -0.0876 
     60 S60        20.3894  -31.7506  -43.9156 S.3       10 UNK        -0.2414 
     61 C61        18.7748  -31.4220  -44.7040 C.3       10 UNK         0.0169 
     62 H62        12.8062  -29.5561  -43.3238 H         1 UNK         0.0903 
     63 H63        14.3953  -30.1084  -42.7668 H         1 UNK         0.0903 
     64 H64        12.9428  -30.6520  -41.9568 H         1 UNK         0.0903 
     65 H65        14.1796  -26.7937  -41.0461 H         1 UNK         0.3096 
     66 H66        15.3664  -26.1921  -42.7175 H         1 UNK         0.1121 
     67 H67        13.6007  -27.2839  -44.2934 H         1 UNK         0.0849 
     68 H68        14.7442  -28.5795  -44.5077 H         1 UNK         0.0849 
     69 H69        15.1941  -28.5178  -46.8086 H         1 UNK         0.0865 
     70 H70        15.9644  -27.2577  -47.7202 H         1 UNK         0.0865 
     71 H71        16.5737  -29.9484  -45.2339 H         1 UNK         0.1346 
     72 H72        20.7911  -30.0380  -46.0320 H         1 UNK         0.1412 
     73 H73        18.3682  -26.9301  -47.6939 H         1 UNK         0.1426 
     74 H74        21.7085  -28.6003  -47.7400 H         1 UNK         0.0716 
     75 H75        20.6199  -27.6273  -48.6853 H         1 UNK         0.0716 
     76 H76        23.6961  -26.5999  -45.8954 H         1 UNK         0.0695 
     77 H77        22.7733  -28.0685  -45.7080 H         1 UNK         0.0695 
     78 H78        22.0998  -25.4728  -44.1997 H         1 UNK         0.0983 
     79 H79        21.3851  -28.2149  -43.3775 H         1 UNK         0.3095 
     80 H80        19.0953  -28.6935  -43.0665 H         1 UNK         0.0454 
     81 H81        19.2947  -26.7177  -40.7048 H         1 UNK         0.0851 
     82 H82        18.7730  -28.3955  -40.5873 H         1 UNK         0.0851 
     83 H83        20.4314  -28.0208  -41.0111 H         1 UNK         0.0851 
     84 H84        17.5556  -26.3223  -43.2471 H         1 UNK         0.2976 
     85 H85        24.0587  -24.9001  -43.3242 H         1 UNK         0.3116 
     86 H86        24.8417  -26.0696  -40.9379 H         1 UNK         0.0646 
     87 H87        25.2154  -23.6856  -41.4938 H         1 UNK         0.0847 
     88 H88        26.7326  -24.4279  -41.0209 H         1 UNK         0.0847 
     89 H89        26.4057  -24.1239  -42.7208 H         1 UNK         0.0847 
     90 H90        26.1138  -26.7822  -44.1336 H         1 UNK         0.3040 
     91 H91        28.4987  -28.1621  -43.3927 H         1 UNK         0.1015 
     92 H92        26.6775  -28.4918  -45.8435 H         1 UNK         0.0786 
     93 H93        28.3166  -29.1116  -45.7023 H         1 UNK         0.0786 
     94 H94        28.0404  -27.3786  -45.7097 H         1 UNK         0.0786 
     95 H95        25.1383  -29.1011  -43.1351 H         1 UNK         0.3172 
     96 H96        25.8590  -31.9398  -42.5193 H         1 UNK         0.0595 
     97 H97        23.1710  -30.7030  -43.3138 H         1 UNK         0.0839 
     98 H98        23.4809  -32.4080  -43.0112 H         1 UNK         0.0839 
     99 H99        24.2162  -31.6212  -44.3956 H         1 UNK         0.0839 
    100 H100       25.7196  -29.1356  -40.9361 H         1 UNK         0.2998 
    101 H101       25.2468  -28.3410  -38.9392 H         1 UNK         0.0822 
    102 H102       25.3142  -29.9046  -36.9776 H         1 UNK         0.0787 
    103 H103       25.2314  -31.2888  -38.0660 H         1 UNK         0.0787 
    104 H104       26.6155  -30.2085  -38.1109 H         1 UNK         0.0787 
    105 H105       23.2786  -30.8569  -37.6771 H         1 UNK         0.3055 
    106 H106       20.8828  -29.1924  -37.7056 H         1 UNK         0.1106 
    107 H107       21.4740  -30.5665  -35.7163 H         1 UNK         0.0828 
    108 H108       19.9296  -31.0772  -36.3742 H         1 UNK         0.0828 
    109 H109       21.3666  -32.0438  -36.6747 H         1 UNK         0.0828 
    110 H110       22.1919  -31.6007  -39.8417 H         1 UNK         0.2931 
    111 H111       21.4913  -32.6947  -41.5657 H         1 UNK         0.0412 
    112 H112       19.0216  -34.6893  -39.4784 H         1 UNK         0.3472 
    113 H113       20.3773  -33.6990  -38.9965 H         1 UNK         0.3472 
    114 H114       19.1100  -30.8591  -42.0305 H         1 UNK         0.0970 
    115 H115       20.7328  -30.2299  -42.1281 H         1 UNK         0.0970 
    116 H116       18.5673  -32.2435  -45.3904 H         1 UNK         0.0612 
    117 H117       17.9876  -31.4537  -43.9490 H         1 UNK         0.0612 
@<TRIPOS>BOND
     1    1    2 1    
     2    1   62 1    
     3    1   63 1    
     4    1   64 1    
     5    2    3 2    
     6    2    4 am   BACKBONE|DICT|INTERRES
     7    4    5 1    
     8    4   65 1    
     9    5    6 1    
    10    5   25 1    
    11    5   66 1    
    12    6    7 1    
    13    6   67 1    
    14    6   68 1    
    15    7    8 1    
    16    8    9 1    
    17    8   69 1    
    18    8   70 1    
    19    9   10 ar   
    20    9   14 ar   
    21   10   11 ar   
    22   10   71 1    
    23   11   12 ar   
    24   11   61 1    
    25   12   13 ar   
    26   12   72 1    
    27   13   14 ar   
    28   13   15 1    
    29   14   73 1    
    30   15   16 1    
    31   15   74 1    
    32   15   75 1    
    33   16   17 1    
    34   17   18 1    
    35   17   76 1    
    36   17   77 1    
    37   18   19 1    
    38   18   27 1    
    39   18   78 1    
    40   19   20 am   BACKBONE|DICT|INTERRES
    41   19   79 1    
    42   20   21 2    
    43   20   22 1    
    44   22   23 1    
    45   22   24 1    
    46   22   80 1    
    47   23   81 1    
    48   23   82 1    
    49   23   83 1    
    50   24   25 am   BACKBONE|DICT|INTERRES
    51   24   84 1    
    52   25   26 2    
    53   27   28 2    
    54   27   29 am   BACKBONE|DICT|INTERRES
    55   29   30 1    
    56   29   85 1    
    57   30   31 1    
    58   30   32 1    
    59   30   86 1    
    60   31   87 1    
    61   31   88 1    
    62   31   89 1    
    63   32   33 2    
    64   32   34 am   BACKBONE|DICT|INTERRES
    65   34   35 1    
    66   34   90 1    
    67   35   36 1    
    68   35   37 1    
    69   35   91 1    
    70   36   92 1    
    71   36   93 1    
    72   36   94 1    
    73   37   38 2    
    74   37   39 am   BACKBONE|DICT|INTERRES
    75   39   40 1    
    76   39   95 1    
    77   40   41 1    
    78   40   42 1    
    79   40   96 1    
    80   41   97 1    
    81   41   98 1    
    82   41   99 1    
    83   42   43 2    
    84   42   44 am   BACKBONE|DICT|INTERRES
    85   44   45 1    
    86   44  100 1    
    87   45   46 1    
    88   45   47 1    
    89   45  101 1    
    90   46  102 1    
    91   46  103 1    
    92   46  104 1    
    93   47   48 2    
    94   47   49 am   BACKBONE|DICT|INTERRES
    95   49   50 1    
    96   49  105 1    
    97   50   51 1    
    98   50   52 1    
    99   50  106 1    
   100   51  107 1    
   101   51  108 1    
   102   51  109 1    
   103   52   53 2    
   104   52   54 am   BACKBONE|DICT|INTERRES
   105   54   55 1    
   106   54  110 1    
   107   55   56 1    
   108   55   59 1    
   109   55  111 1    
   110   56   57 am   BACKBONE|DICT|INTERRES
   111   56   58 2    
   112   57  112 1    
   113   57  113 1    
   114   59   60 1    
   115   59  114 1    
   116   59  115 1    
   117   60   61 1    
   118   61  116 1    
   119   61  117 1    
@<TRIPOS>SUBSTRUCTURE
     1 UNK         1 GROUP             0       ****    0 ROOT    
