@<TRIPOS>MOLECULE
3R8
117   119    1
SMALL
USER_CHARGES


@<TRIPOS>ATOM
      1 CA         16.5677  -25.6795  -50.1467 C.3       0 UNK        -0.2013 
      2 C          17.1363  -26.3585  -48.9096 C.2       0 UNK         0.4866 
      3 O          18.0606  -27.1644  -49.0234 O.2       0 UNK        -0.5176 
      4 N          16.5850  -26.0479  -47.7303 N.am      1 UNK        -0.4884 
      5 CA         17.0363  -26.5681  -46.4356 C.3       1 UNK         0.0853 
      6 C6         15.9860  -26.3333  -45.3213 C.3       10 UNK        -0.0849 
      7 S7         14.3722  -27.1252  -45.6365 S.3       10 UNK        -0.2776 
      8 C8         14.7606  -28.9096  -45.5534 C.3       10 UNK         0.0316 
      9 C9         15.5728  -29.3178  -44.3272 C.ar      10 UNK        -0.0863 
     10 C10        16.7174  -30.1056  -44.4840 C.ar      10 UNK        -0.1009 
     11 C11        17.4642  -30.5046  -43.3722 C.ar      10 UNK        -0.0712 
     12 C12        17.0599  -30.1121  -42.0939 C.ar      10 UNK        -0.0894 
     13 C13        15.9279  -29.3094  -41.9208 C.ar      10 UNK        -0.0745 
     14 C14        15.1800  -28.9310  -43.0408 C.ar      10 UNK        -0.0972 
     15 C15        15.4984  -28.8508  -40.5299 C.3       10 UNK         0.0209 
     16 S16        16.8567  -28.1368  -39.5370 S.3       10 UNK        -0.2568 
     17 C17        17.5153  -26.8395  -40.6393 C.3       10 UNK        -0.0983 
     18 CA         18.9662  -27.1597  -41.0877 C.3       3 UNK         0.0876 
     19 N          19.2609  -26.6052  -42.4081 N.am      3 UNK        -0.4424 
     20 C          20.3816  -26.8141  -43.1135 C.2       2 UNK         0.4918 
     21 O          21.3492  -27.4600  -42.7019 O.2       2 UNK        -0.4875 
     22 CA         20.3674  -26.2483  -44.5419 C.3       2 UNK         0.0481 
     23 CB         21.5827  -26.6647  -45.3886 C.3       2 UNK        -0.1831 
     24 N          19.1361  -26.6872  -45.1972 N.am      2 UNK        -0.4498 
     25 C          18.3807  -25.9428  -46.0114 C.2       1 UNK         0.5027 
     26 O          18.6728  -24.7979  -46.3679 O.2       1 UNK        -0.4969 
     27 C          20.0024  -26.7068  -40.0408 C.2       3 UNK         0.5005 
     28 O          20.1657  -25.5025  -39.8308 O.2       3 UNK        -0.5279 
     29 N          20.6873  -27.6843  -39.4295 N.am      4 UNK        -0.4463 
     30 CA         21.7293  -27.5400  -38.4053 C.3       4 UNK         0.0283 
     31 CB         21.1530  -26.9118  -37.1181 C.3       4 UNK        -0.1875 
     32 C          23.0144  -26.8266  -38.8771 C.2       4 UNK         0.4949 
     33 O          23.8369  -26.4667  -38.0336 O.2       4 UNK        -0.5039 
     34 N          23.2027  -26.6602  -40.1963 N.am      5 UNK        -0.4663 
     35 CA         24.4312  -26.1045  -40.7797 C.3       5 UNK         0.0242 
     36 CB         24.1587  -25.6515  -42.2221 C.3       5 UNK        -0.1982 
     37 C          25.6074  -27.0977  -40.7283 C.2       5 UNK         0.5017 
     38 O          26.7619  -26.6715  -40.6849 O.2       5 UNK        -0.5012 
     39 N          25.2865  -28.3949  -40.7045 N.am      6 UNK        -0.4439 
     40 CA         26.1834  -29.5220  -40.4903 C.3       6 UNK         0.0297 
     41 CB         26.9248  -29.8745  -41.7927 C.3       6 UNK        -0.2006 
     42 C          25.3262  -30.6947  -40.0014 C.2       6 UNK         0.4892 
     43 O          24.1105  -30.6922  -40.2189 O.2       6 UNK        -0.5089 
     44 N          25.9693  -31.6910  -39.3785 N.am      7 UNK        -0.4243 
     45 CA         25.3215  -32.9000  -38.8498 C.3       7 UNK         0.0196 
     46 CB         26.3467  -33.7146  -38.0446 C.3       7 UNK        -0.2007 
     47 C          24.6648  -33.7808  -39.9298 C.2       7 UNK         0.5020 
     48 O          23.6858  -34.4675  -39.6394 O.2       7 UNK        -0.5147 
     49 N          25.1980  -33.7233  -41.1565 N.am      8 UNK        -0.4734 
     50 CA         24.6701  -34.3984  -42.3454 C.3       8 UNK         0.0238 
     51 CB         25.8573  -34.9314  -43.1692 C.3       8 UNK        -0.1912 
     52 C          23.7644  -33.4805  -43.1936 C.2       8 UNK         0.5038 
     53 O          23.4989  -33.8171  -44.3486 O.2       8 UNK        -0.5046 
     54 N          23.3185  -32.3503  -42.6223 N.am      9 UNK        -0.4200 
     55 CA         22.6289  -31.2253  -43.2732 C.3       9 UNK         0.0839 
     56 C          23.6279  -30.3125  -44.0333 C.2       9 UNK         0.5513 
     57 N          23.4865  -29.0021  -43.9130 N.am      9 UNK        -0.7519 
     58 O          24.5206  -30.7731  -44.7413 O.2       9 UNK        -0.4960 
     59 C59        21.4241  -31.6516  -44.1609 C.3       10 UNK        -0.0876 
     60 S60        20.0985  -30.3984  -44.1896 S.3       10 UNK        -0.2414 
     61 C61        18.7006  -31.3693  -43.5519 C.3       10 UNK         0.0169 
     62 H62        16.1951  -26.4265  -50.8471 H         1 UNK         0.0903 
     63 H63        15.7468  -25.0058  -49.9015 H         1 UNK         0.0903 
     64 H64        17.3438  -25.1004  -50.6464 H         1 UNK         0.0903 
     65 H65        15.8341  -25.3734  -47.6911 H         1 UNK         0.3096 
     66 H66        17.1954  -27.6428  -46.5467 H         1 UNK         0.1121 
     67 H67        16.3547  -26.6833  -44.3556 H         1 UNK         0.0849 
     68 H68        15.8067  -25.2638  -45.1931 H         1 UNK         0.0849 
     69 H69        13.8247  -29.4699  -45.5532 H         1 UNK         0.0865 
     70 H70        15.2787  -29.1918  -46.4712 H         1 UNK         0.0865 
     71 H71        17.0310  -30.4166  -45.4714 H         1 UNK         0.1346 
     72 H72        17.6332  -30.4214  -41.2308 H         1 UNK         0.1412 
     73 H73        14.2943  -28.3226  -42.9162 H         1 UNK         0.1426 
     74 H74        15.0810  -29.7032  -39.9925 H         1 UNK         0.0716 
     75 H75        14.7005  -28.1097  -40.5990 H         1 UNK         0.0716 
     76 H76        17.4488  -25.8729  -40.1358 H         1 UNK         0.0695 
     77 H77        16.8572  -26.7565  -41.5054 H         1 UNK         0.0695 
     78 H78        19.0560  -28.2408  -41.2131 H         1 UNK         0.0983 
     79 H79        18.5422  -26.0283  -42.8171 H         1 UNK         0.3095 
     80 H80        20.3736  -25.1609  -44.4429 H         1 UNK         0.0454 
     81 H81        21.5550  -26.1977  -46.3730 H         1 UNK         0.0851 
     82 H82        21.6173  -27.7446  -45.5346 H         1 UNK         0.0851 
     83 H83        22.5158  -26.3607  -44.9144 H         1 UNK         0.0851 
     84 H84        18.8207  -27.6136  -44.9388 H         1 UNK         0.2976 
     85 H85        20.4895  -28.6380  -39.7009 H         1 UNK         0.3116 
     86 H86        22.0380  -28.5570  -38.1584 H         1 UNK         0.0646 
     87 H87        20.8901  -25.8633  -37.2610 H         1 UNK         0.0847 
     88 H88        21.8755  -26.9546  -36.3021 H         1 UNK         0.0847 
     89 H89        20.2598  -27.4392  -36.7834 H         1 UNK         0.0847 
     90 H90        22.4816  -26.9629  -40.8408 H         1 UNK         0.3040 
     91 H91        24.7203  -25.2254  -40.1991 H         1 UNK         0.1015 
     92 H92        25.0366  -25.1652  -42.6494 H         1 UNK         0.0786 
     93 H93        23.3364  -24.9372  -42.2671 H         1 UNK         0.0786 
     94 H94        23.9085  -26.4923  -42.8666 H         1 UNK         0.0786 
     95 H95        24.3080  -28.6574  -40.7159 H         1 UNK         0.3172 
     96 H96        26.9021  -29.2636  -39.7099 H         1 UNK         0.0595 
     97 H97        27.6082  -30.7111  -41.6444 H         1 UNK         0.0839 
     98 H98        27.5198  -29.0346  -42.1514 H         1 UNK         0.0839 
     99 H99        26.2333  -30.1539  -42.5875 H         1 UNK         0.0839 
    100 H100       26.9678  -31.6161  -39.2419 H         1 UNK         0.2998 
    101 H101       24.5291  -32.5794  -38.1698 H         1 UNK         0.0822 
    102 H102       25.8869  -34.6069  -37.6169 H         1 UNK         0.0787 
    103 H103       27.1799  -34.0442  -38.6667 H         1 UNK         0.0787 
    104 H104       26.7535  -33.1344  -37.2161 H         1 UNK         0.0787 
    105 H105       26.0003  -33.1260  -41.2969 H         1 UNK         0.3055 
    106 H106       24.0585  -35.2523  -42.0447 H         1 UNK         0.1106 
    107 H107       25.5137  -35.5149  -44.0244 H         1 UNK         0.0828 
    108 H108       26.4763  -34.1207  -43.5556 H         1 UNK         0.0828 
    109 H109       26.4932  -35.5853  -42.5721 H         1 UNK         0.0828 
    110 H110       23.6101  -32.1562  -41.6718 H         1 UNK         0.2931 
    111 H111       22.2379  -30.6487  -42.4327 H         1 UNK         0.0412 
    112 H112       22.7134  -28.5987  -43.3921 H         1 UNK         0.3472 
    113 H113       24.1260  -28.4032  -44.4079 H         1 UNK         0.3472 
    114 H114       21.7386  -31.8626  -45.1848 H         1 UNK         0.0970 
    115 H115       21.0038  -32.5874  -43.7903 H         1 UNK         0.0970 
    116 H116       18.9846  -31.8301  -42.6043 H         1 UNK         0.0612 
    117 H117       18.4807  -32.1847  -44.2428 H         1 UNK         0.0612 
@<TRIPOS>BOND
     1    1    2 1    
     2    1   62 1    
     3    1   63 1    
     4    1   64 1    
     5    2    3 2    
     6    2    4 am   BACKBONE|DICT|INTERRES
     7    4    5 1    
     8    4   65 1    
     9    5    6 1    
    10    5   25 1    
    11    5   66 1    
    12    6    7 1    
    13    6   67 1    
    14    6   68 1    
    15    7    8 1    
    16    8    9 1    
    17    8   69 1    
    18    8   70 1    
    19    9   10 ar   
    20    9   14 ar   
    21   10   11 ar   
    22   10   71 1    
    23   11   12 ar   
    24   11   61 1    
    25   12   13 ar   
    26   12   72 1    
    27   13   14 ar   
    28   13   15 1    
    29   14   73 1    
    30   15   16 1    
    31   15   74 1    
    32   15   75 1    
    33   16   17 1    
    34   17   18 1    
    35   17   76 1    
    36   17   77 1    
    37   18   19 1    
    38   18   27 1    
    39   18   78 1    
    40   19   20 am   BACKBONE|DICT|INTERRES
    41   19   79 1    
    42   20   21 2    
    43   20   22 1    
    44   22   23 1    
    45   22   24 1    
    46   22   80 1    
    47   23   81 1    
    48   23   82 1    
    49   23   83 1    
    50   24   25 am   BACKBONE|DICT|INTERRES
    51   24   84 1    
    52   25   26 2    
    53   27   28 2    
    54   27   29 am   BACKBONE|DICT|INTERRES
    55   29   30 1    
    56   29   85 1    
    57   30   31 1    
    58   30   32 1    
    59   30   86 1    
    60   31   87 1    
    61   31   88 1    
    62   31   89 1    
    63   32   33 2    
    64   32   34 am   BACKBONE|DICT|INTERRES
    65   34   35 1    
    66   34   90 1    
    67   35   36 1    
    68   35   37 1    
    69   35   91 1    
    70   36   92 1    
    71   36   93 1    
    72   36   94 1    
    73   37   38 2    
    74   37   39 am   BACKBONE|DICT|INTERRES
    75   39   40 1    
    76   39   95 1    
    77   40   41 1    
    78   40   42 1    
    79   40   96 1    
    80   41   97 1    
    81   41   98 1    
    82   41   99 1    
    83   42   43 2    
    84   42   44 am   BACKBONE|DICT|INTERRES
    85   44   45 1    
    86   44  100 1    
    87   45   46 1    
    88   45   47 1    
    89   45  101 1    
    90   46  102 1    
    91   46  103 1    
    92   46  104 1    
    93   47   48 2    
    94   47   49 am   BACKBONE|DICT|INTERRES
    95   49   50 1    
    96   49  105 1    
    97   50   51 1    
    98   50   52 1    
    99   50  106 1    
   100   51  107 1    
   101   51  108 1    
   102   51  109 1    
   103   52   53 2    
   104   52   54 am   BACKBONE|DICT|INTERRES
   105   54   55 1    
   106   54  110 1    
   107   55   56 1    
   108   55   59 1    
   109   55  111 1    
   110   56   57 am   BACKBONE|DICT|INTERRES
   111   56   58 2    
   112   57  112 1    
   113   57  113 1    
   114   59   60 1    
   115   59  114 1    
   116   59  115 1    
   117   60   61 1    
   118   61  116 1    
   119   61  117 1    
@<TRIPOS>SUBSTRUCTURE
     1 UNK         1 GROUP             0       ****    0 ROOT    
