@<TRIPOS>MOLECULE
3R8
117   119    1
SMALL
USER_CHARGES


@<TRIPOS>ATOM
      1 CA         16.6579  -24.6494  -42.1407 C.3       0 UNK        -0.2013 
      2 C          17.4114  -25.6607  -42.9904 C.2       0 UNK         0.4866 
      3 O          18.0389  -26.5656  -42.4427 O.2       0 UNK        -0.5176 
      4 N          17.3523  -25.5131  -44.3216 N.am      1 UNK        -0.4884 
      5 CA         18.0242  -26.3580  -45.3225 C.3       1 UNK         0.0853 
      6 C6         17.4925  -27.8210  -45.3596 C.3       10 UNK        -0.0849 
      7 S7         15.6782  -27.9761  -45.4995 S.3       10 UNK        -0.2776 
      8 C8         15.2198  -28.6580  -43.8653 C.3       10 UNK         0.0316 
      9 C9         16.0316  -29.8904  -43.4742 C.ar      10 UNK        -0.0863 
     10 C10        16.0802  -31.0081  -44.3145 C.ar      10 UNK        -0.1009 
     11 C11        16.8567  -32.1202  -43.9747 C.ar      10 UNK        -0.0712 
     12 C12        17.5600  -32.1226  -42.7683 C.ar      10 UNK        -0.0894 
     13 C13        17.5320  -31.0091  -41.9261 C.ar      10 UNK        -0.0745 
     14 C14        16.7637  -29.8965  -42.2811 C.ar      10 UNK        -0.0972 
     15 C15        18.3480  -31.0175  -40.6440 C.3       10 UNK         0.0209 
     16 S16        20.0655  -30.5046  -40.9575 S.3       10 UNK        -0.2568 
     17 C17        19.9820  -28.7272  -40.5692 C.3       10 UNK        -0.0983 
     18 CA         21.1221  -27.9254  -41.2426 C.3       3 UNK         0.0876 
     19 N          21.0272  -27.9426  -42.7092 N.am      3 UNK        -0.4424 
     20 C          21.9826  -27.5288  -43.5565 C.2       2 UNK         0.4918 
     21 O          23.0539  -27.0526  -43.1892 O.2       2 UNK        -0.4875 
     22 CA         21.6777  -27.5983  -45.0627 C.3       2 UNK         0.0481 
     23 CB         22.1579  -28.9377  -45.6380 C.3       2 UNK        -0.1831 
     24 N          20.2561  -27.4214  -45.3625 N.am      2 UNK        -0.4498 
     25 C          19.5632  -26.2912  -45.1529 C.2       1 UNK         0.5027 
     26 O          20.0938  -25.2332  -44.8053 O.2       1 UNK        -0.4969 
     27 C          21.2413  -26.5057  -40.6393 C.2       3 UNK         0.5005 
     28 O          21.5838  -26.3826  -39.4630 O.2       3 UNK        -0.5279 
     29 N          21.0137  -25.4563  -41.4430 N.am      4 UNK        -0.4463 
     30 CA         21.3087  -24.0648  -41.0982 C.3       4 UNK         0.0283 
     31 CB         20.6680  -23.1403  -42.1453 C.3       4 UNK        -0.1875 
     32 C          22.8179  -23.7653  -40.9750 C.2       4 UNK         0.4949 
     33 O          23.1717  -22.7984  -40.2996 O.2       4 UNK        -0.5039 
     34 N          23.6772  -24.5692  -41.6213 N.am      5 UNK        -0.4663 
     35 CA         25.1334  -24.3838  -41.6470 C.3       5 UNK         0.0242 
     36 CB         25.5122  -23.5469  -42.8847 C.3       5 UNK        -0.1982 
     37 C          25.9022  -25.7184  -41.5908 C.2       5 UNK         0.5017 
     38 O          27.0808  -25.7525  -41.9487 O.2       5 UNK        -0.5012 
     39 N          25.2372  -26.7910  -41.1497 N.am      6 UNK        -0.4439 
     40 CA         25.7399  -28.1617  -41.0662 C.3       6 UNK         0.0297 
     41 CB         25.9106  -28.7791  -42.4751 C.3       6 UNK        -0.2006 
     42 C          24.7860  -28.9566  -40.1596 C.2       6 UNK         0.4892 
     43 O          24.2077  -28.3732  -39.2408 O.2       6 UNK        -0.5089 
     44 N          24.6174  -30.2553  -40.4265 N.am      7 UNK        -0.4243 
     45 CA         23.7096  -31.1567  -39.7233 C.3       7 UNK         0.0196 
     46 CB         24.3546  -31.6280  -38.4050 C.3       7 UNK        -0.2007 
     47 C          23.3848  -32.3469  -40.6345 C.2       7 UNK         0.5020 
     48 O          24.0533  -32.5377  -41.6544 O.2       7 UNK        -0.5147 
     49 N          22.3740  -33.1318  -40.2343 N.am      8 UNK        -0.4734 
     50 CA         21.9571  -34.4166  -40.8184 C.3       8 UNK         0.0238 
     51 CB         23.0041  -35.5036  -40.4923 C.3       8 UNK        -0.1912 
     52 C          21.6172  -34.3609  -42.3228 C.2       8 UNK         0.5038 
     53 O          21.8897  -35.3210  -43.0461 O.2       8 UNK        -0.5046 
     54 N          21.0285  -33.2410  -42.7651 N.am      9 UNK        -0.4200 
     55 CA         20.7006  -32.9423  -44.1702 C.3       9 UNK         0.0839 
     56 C          21.9439  -32.6587  -45.0712 C.2       9 UNK         0.5513 
     57 N          23.1351  -32.4491  -44.5208 N.am      9 UNK        -0.7519 
     58 O          21.8277  -32.5933  -46.2917 O.2       9 UNK        -0.4960 
     59 C59        19.7138  -33.9840  -44.7865 C.3       10 UNK        -0.0876 
     60 S60        18.4760  -33.2524  -45.9160 S.3       10 UNK        -0.2414 
     61 C61        16.9505  -33.3095  -44.9182 C.3       10 UNK         0.0169 
     62 H62        17.3285  -24.2036  -41.4067 H         1 UNK         0.0903 
     63 H63        16.2310  -23.8473  -42.7423 H         1 UNK         0.0903 
     64 H64        15.8476  -25.1430  -41.6051 H         1 UNK         0.0903 
     65 H65        16.8352  -24.7338  -44.7037 H         1 UNK         0.3096 
     66 H66        17.8144  -25.9044  -46.2925 H         1 UNK         0.1121 
     67 H67        17.8409  -28.3617  -44.4800 H         1 UNK         0.0849 
     68 H68        17.9035  -28.3517  -46.2201 H         1 UNK         0.0849 
     69 H69        15.3307  -27.8711  -43.1180 H         1 UNK         0.0865 
     70 H70        14.1612  -28.9204  -43.8762 H         1 UNK         0.0865 
     71 H71        15.5330  -30.9988  -45.2475 H         1 UNK         0.1346 
     72 H72        18.1544  -32.9824  -42.4951 H         1 UNK         0.1412 
     73 H73        16.7502  -29.0283  -41.6358 H         1 UNK         0.1426 
     74 H74        18.3550  -32.0232  -40.2210 H         1 UNK         0.0716 
     75 H75        17.8917  -30.3758  -39.8885 H         1 UNK         0.0716 
     76 H76        20.0325  -28.6367  -39.4823 H         1 UNK         0.0695 
     77 H77        19.0091  -28.3337  -40.8628 H         1 UNK         0.0695 
     78 H78        22.0584  -28.4239  -40.9901 H         1 UNK         0.0983 
     79 H79        20.1511  -28.2763  -43.0831 H         1 UNK         0.3095 
     80 H80        22.2322  -26.7954  -45.5530 H         1 UNK         0.0454 
     81 H81        22.0370  -28.9747  -46.7206 H         1 UNK         0.0851 
     82 H82        21.6083  -29.7753  -45.2096 H         1 UNK         0.0851 
     83 H83        23.2158  -29.0998  -45.4254 H         1 UNK         0.0851 
     84 H84        19.7584  -28.2431  -45.6725 H         1 UNK         0.2976 
     85 H85        20.6969  -25.6358  -42.3871 H         1 UNK         0.3116 
     86 H86        20.8498  -23.8535  -40.1301 H         1 UNK         0.0646 
     87 H87        21.1014  -23.2913  -43.1348 H         1 UNK         0.0847 
     88 H88        20.8160  -22.0920  -41.8827 H         1 UNK         0.0847 
     89 H89        19.5937  -23.3058  -42.2222 H         1 UNK         0.0847 
     90 H90        23.3199  -25.3465  -42.1710 H         1 UNK         0.3040 
     91 H91        25.4458  -23.8343  -40.7562 H         1 UNK         0.1015 
     92 H92        25.2546  -24.0645  -43.8095 H         1 UNK         0.0786 
     93 H93        26.5826  -23.3392  -42.9112 H         1 UNK         0.0786 
     94 H94        25.0001  -22.5845  -42.8850 H         1 UNK         0.0786 
     95 H95        24.3002  -26.6683  -40.7880 H         1 UNK         0.3172 
     96 H96        26.7118  -28.1399  -40.5697 H         1 UNK         0.0595 
     97 H97        24.9517  -28.9193  -42.9751 H         1 UNK         0.0839 
     98 H98        26.4050  -29.7498  -42.4272 H         1 UNK         0.0839 
     99 H99        26.5262  -28.1512  -43.1187 H         1 UNK         0.0839 
    100 H100       25.0730  -30.6745  -41.2284 H         1 UNK         0.2998 
    101 H101       22.7782  -30.6285  -39.5081 H         1 UNK         0.0822 
    102 H102       23.6942  -32.3014  -37.8575 H         1 UNK         0.0787 
    103 H103       25.2890  -32.1612  -38.5848 H         1 UNK         0.0787 
    104 H104       24.5716  -30.7880  -37.7449 H         1 UNK         0.0787 
    105 H105       21.8690  -32.8558  -39.4027 H         1 UNK         0.3055 
    106 H106       21.0280  -34.6958  -40.3185 H         1 UNK         0.1106 
    107 H107       22.6572  -36.4911  -40.7994 H         1 UNK         0.0828 
    108 H108       23.9496  -35.3170  -41.0030 H         1 UNK         0.0828 
    109 H109       23.2055  -35.5535  -39.4223 H         1 UNK         0.0828 
    110 H110       20.8688  -32.4892  -42.1074 H         1 UNK         0.2931 
    111 H111       20.1812  -31.9849  -44.1144 H         1 UNK         0.0412 
    112 H112       23.2748  -32.5165  -43.5186 H         1 UNK         0.3472 
    113 H113       23.9223  -32.2625  -45.1206 H         1 UNK         0.3472 
    114 H114       19.1805  -34.5180  -43.9999 H         1 UNK         0.0970 
    115 H115       20.2593  -34.7615  -45.3247 H         1 UNK         0.0970 
    116 H116       16.8942  -34.2450  -44.3600 H         1 UNK         0.0612 
    117 H117       16.0962  -33.3133  -45.5968 H         1 UNK         0.0612 
@<TRIPOS>BOND
     1    1    2 1    
     2    1   62 1    
     3    1   63 1    
     4    1   64 1    
     5    2    3 2    
     6    2    4 am   BACKBONE|DICT|INTERRES
     7    4    5 1    
     8    4   65 1    
     9    5    6 1    
    10    5   25 1    
    11    5   66 1    
    12    6    7 1    
    13    6   67 1    
    14    6   68 1    
    15    7    8 1    
    16    8    9 1    
    17    8   69 1    
    18    8   70 1    
    19    9   10 ar   
    20    9   14 ar   
    21   10   11 ar   
    22   10   71 1    
    23   11   12 ar   
    24   11   61 1    
    25   12   13 ar   
    26   12   72 1    
    27   13   14 ar   
    28   13   15 1    
    29   14   73 1    
    30   15   16 1    
    31   15   74 1    
    32   15   75 1    
    33   16   17 1    
    34   17   18 1    
    35   17   76 1    
    36   17   77 1    
    37   18   19 1    
    38   18   27 1    
    39   18   78 1    
    40   19   20 am   BACKBONE|DICT|INTERRES
    41   19   79 1    
    42   20   21 2    
    43   20   22 1    
    44   22   23 1    
    45   22   24 1    
    46   22   80 1    
    47   23   81 1    
    48   23   82 1    
    49   23   83 1    
    50   24   25 am   BACKBONE|DICT|INTERRES
    51   24   84 1    
    52   25   26 2    
    53   27   28 2    
    54   27   29 am   BACKBONE|DICT|INTERRES
    55   29   30 1    
    56   29   85 1    
    57   30   31 1    
    58   30   32 1    
    59   30   86 1    
    60   31   87 1    
    61   31   88 1    
    62   31   89 1    
    63   32   33 2    
    64   32   34 am   BACKBONE|DICT|INTERRES
    65   34   35 1    
    66   34   90 1    
    67   35   36 1    
    68   35   37 1    
    69   35   91 1    
    70   36   92 1    
    71   36   93 1    
    72   36   94 1    
    73   37   38 2    
    74   37   39 am   BACKBONE|DICT|INTERRES
    75   39   40 1    
    76   39   95 1    
    77   40   41 1    
    78   40   42 1    
    79   40   96 1    
    80   41   97 1    
    81   41   98 1    
    82   41   99 1    
    83   42   43 2    
    84   42   44 am   BACKBONE|DICT|INTERRES
    85   44   45 1    
    86   44  100 1    
    87   45   46 1    
    88   45   47 1    
    89   45  101 1    
    90   46  102 1    
    91   46  103 1    
    92   46  104 1    
    93   47   48 2    
    94   47   49 am   BACKBONE|DICT|INTERRES
    95   49   50 1    
    96   49  105 1    
    97   50   51 1    
    98   50   52 1    
    99   50  106 1    
   100   51  107 1    
   101   51  108 1    
   102   51  109 1    
   103   52   53 2    
   104   52   54 am   BACKBONE|DICT|INTERRES
   105   54   55 1    
   106   54  110 1    
   107   55   56 1    
   108   55   59 1    
   109   55  111 1    
   110   56   57 am   BACKBONE|DICT|INTERRES
   111   56   58 2    
   112   57  112 1    
   113   57  113 1    
   114   59   60 1    
   115   59  114 1    
   116   59  115 1    
   117   60   61 1    
   118   61  116 1    
   119   61  117 1    
@<TRIPOS>SUBSTRUCTURE
     1 UNK         1 GROUP             0       ****    0 ROOT    
