@<TRIPOS>MOLECULE
3R8
117   119    1
SMALL
USER_CHARGES


@<TRIPOS>ATOM
      1 CA         15.9600  -25.4157  -40.7325 C.3       0 UNK        -0.2013 
      2 C          16.7850  -25.4206  -42.0097 C.2       0 UNK         0.4866 
      3 O          17.9220  -25.8911  -42.0004 O.2       0 UNK        -0.5176 
      4 N          16.2303  -24.8843  -43.1060 N.am      1 UNK        -0.4884 
      5 CA         16.7768  -24.8177  -44.4755 C.3       1 UNK         0.0853 
      6 C6         17.1362  -26.2027  -45.0784 C.3       10 UNK        -0.0849 
      7 S7         15.7617  -27.4026  -45.1161 S.3       10 UNK        -0.2776 
      8 C8         16.3809  -28.7264  -44.0115 C.3       10 UNK         0.0316 
      9 C9         17.4758  -29.6386  -44.5812 C.ar      10 UNK        -0.0863 
     10 C10        17.6782  -30.8862  -43.9800 C.ar      10 UNK        -0.1009 
     11 C11        18.6736  -31.7546  -44.4390 C.ar      10 UNK        -0.0712 
     12 C12        19.5055  -31.3515  -45.4895 C.ar      10 UNK        -0.0894 
     13 C13        19.3188  -30.1106  -46.1078 C.ar      10 UNK        -0.0745 
     14 C14        18.2889  -29.2764  -45.6645 C.ar      10 UNK        -0.0972 
     15 C15        20.1830  -29.6964  -47.2960 C.3       10 UNK         0.0209 
     16 S16        21.6947  -28.7912  -46.8134 S.3       10 UNK        -0.2568 
     17 C17        21.0747  -27.1001  -46.4604 C.3       10 UNK        -0.0983 
     18 CA         21.6810  -26.3796  -45.2152 C.3       3 UNK         0.0876 
     19 N          20.8452  -25.2585  -44.7909 N.am      3 UNK        -0.4424 
     20 C          21.2747  -24.1234  -44.2199 C.2       2 UNK         0.4918 
     21 O          22.4636  -23.8050  -44.1364 O.2       2 UNK        -0.4875 
     22 CA         20.2033  -23.2052  -43.5907 C.3       2 UNK         0.0481 
     23 CB         20.2590  -21.7710  -44.1560 C.3       2 UNK        -0.1831 
     24 N          18.8473  -23.7790  -43.6232 N.am      2 UNK        -0.4498 
     25 C          17.9918  -23.8769  -44.6513 C.2       1 UNK         0.5027 
     26 O          18.1604  -23.3259  -45.7385 O.2       1 UNK        -0.4969 
     27 C          21.8783  -27.2814  -43.9839 C.2       3 UNK         0.5005 
     28 O          22.9484  -27.2638  -43.3708 O.2       3 UNK        -0.5279 
     29 N          20.8405  -28.0740  -43.6696 N.am      4 UNK        -0.4463 
     30 CA         20.7807  -29.0823  -42.6065 C.3       4 UNK         0.0283 
     31 CB         20.6774  -28.4003  -41.2271 C.3       4 UNK        -0.1875 
     32 C          21.9166  -30.1231  -42.6737 C.2       4 UNK         0.4949 
     33 O          22.3116  -30.6486  -41.6344 O.2       4 UNK        -0.5039 
     34 N          22.4551  -30.3628  -43.8802 N.am      5 UNK        -0.4663 
     35 CA         23.6494  -31.1639  -44.1780 C.3       5 UNK         0.0242 
     36 CB         23.3317  -32.6672  -44.0586 C.3       5 UNK        -0.1982 
     37 C          24.8829  -30.7328  -43.3542 C.2       5 UNK         0.5017 
     38 O          25.6196  -31.5867  -42.8596 O.2       5 UNK        -0.5012 
     39 N          25.0574  -29.4087  -43.2067 N.am      6 UNK        -0.4439 
     40 CA         26.0507  -28.7290  -42.3666 C.3       6 UNK         0.0297 
     41 CB         27.4949  -29.0542  -42.8070 C.3       6 UNK        -0.2006 
     42 C          25.7930  -28.9713  -40.8665 C.2       6 UNK         0.4892 
     43 O          26.7123  -29.3281  -40.1275 O.2       6 UNK        -0.5089 
     44 N          24.5321  -28.7578  -40.4596 N.am      7 UNK        -0.4243 
     45 CA         23.9928  -28.8902  -39.0986 C.3       7 UNK         0.0196 
     46 CB         24.6264  -27.8484  -38.1515 C.3       7 UNK        -0.2007 
     47 C          24.0475  -30.3266  -38.5376 C.2       7 UNK         0.5020 
     48 O          24.1944  -30.5075  -37.3279 O.2       7 UNK        -0.5147 
     49 N          23.8975  -31.3225  -39.4178 N.am      8 UNK        -0.4734 
     50 CA         23.7980  -32.7411  -39.0699 C.3       8 UNK         0.0238 
     51 CB         24.5698  -33.5716  -40.1064 C.3       8 UNK        -0.1912 
     52 C          22.3344  -33.2062  -38.9848 C.2       8 UNK         0.5038 
     53 O          22.0415  -34.1055  -38.1958 O.2       8 UNK        -0.5046 
     54 N          21.4441  -32.5913  -39.7769 N.am      9 UNK        -0.4200 
     55 CA         19.9965  -32.8695  -39.7976 C.3       9 UNK         0.0839 
     56 C          19.2119  -32.2690  -38.5943 C.2       9 UNK         0.5513 
     57 N          19.8121  -31.4374  -37.7508 N.am      9 UNK        -0.7519 
     58 O          18.0338  -32.5696  -38.4205 O.2       9 UNK        -0.4960 
     59 C59        19.3398  -32.4556  -41.1435 C.3       10 UNK        -0.0876 
     60 S60        20.1087  -33.2722  -42.5824 S.3       10 UNK        -0.2414 
     61 C61        18.8051  -33.1521  -43.8446 C.3       10 UNK         0.0169 
     62 H62        16.4763  -24.8534  -39.9549 H         1 UNK         0.0903 
     63 H63        14.9778  -24.9675  -40.8817 H         1 UNK         0.0903 
     64 H64        15.8170  -26.4358  -40.3772 H         1 UNK         0.0903 
     65 H65        15.3033  -24.4897  -43.0185 H         1 UNK         0.3096 
     66 H66        15.9795  -24.3906  -45.0869 H         1 UNK         0.1121 
     67 H67        17.9751  -26.6411  -44.5368 H         1 UNK         0.0849 
     68 H68        17.4716  -26.0821  -46.1110 H         1 UNK         0.0849 
     69 H69        16.7442  -28.2797  -43.0852 H         1 UNK         0.0865 
     70 H70        15.5223  -29.3397  -43.7334 H         1 UNK         0.0865 
     71 H71        17.0448  -31.1930  -43.1586 H         1 UNK         0.1346 
     72 H72        20.2796  -32.0184  -45.8442 H         1 UNK         0.1412 
     73 H73        18.1221  -28.3498  -46.1874 H         1 UNK         0.1426 
     74 H74        19.6046  -29.0902  -47.9951 H         1 UNK         0.0716 
     75 H75        20.4806  -30.5864  -47.8525 H         1 UNK         0.0716 
     76 H76        19.9908  -27.1409  -46.3737 H         1 UNK         0.0695 
     77 H77        21.2604  -26.4909  -47.3463 H         1 UNK         0.0695 
     78 H78        22.6690  -26.0088  -45.4985 H         1 UNK         0.0983 
     79 H79        19.8482  -25.4171  -44.7876 H         1 UNK         0.3095 
     80 H80        20.4561  -23.1412  -42.5314 H         1 UNK         0.0454 
     81 H81        21.2195  -21.3054  -43.9322 H         1 UNK         0.0851 
     82 H82        19.4846  -21.1400  -43.7204 H         1 UNK         0.0851 
     83 H83        20.1425  -21.7513  -45.2396 H         1 UNK         0.0851 
     84 H84        18.6052  -24.3428  -42.8103 H         1 UNK         0.2976 
     85 H85        20.0300  -28.0519  -44.2712 H         1 UNK         0.3116 
     86 H86        19.8584  -29.6368  -42.7678 H         1 UNK         0.0646 
     87 H87        19.8126  -27.7386  -41.1817 H         1 UNK         0.0847 
     88 H88        20.5609  -29.1322  -40.4269 H         1 UNK         0.0847 
     89 H89        21.5617  -27.8040  -41.0044 H         1 UNK         0.0847 
     90 H90        22.0487  -29.8798  -44.6715 H         1 UNK         0.3040 
     91 H91        23.9038  -30.9654  -45.2204 H         1 UNK         0.1015 
     92 H92        24.1902  -33.2779  -44.3405 H         1 UNK         0.0786 
     93 H93        22.5062  -32.9485  -44.7120 H         1 UNK         0.0786 
     94 H94        23.0552  -32.9383  -43.0410 H         1 UNK         0.0786 
     95 H95        24.3488  -28.7965  -43.5995 H         1 UNK         0.3172 
     96 H96        25.8976  -27.6611  -42.5299 H         1 UNK         0.0595 
     97 H97        27.7594  -30.0936  -42.6116 H         1 UNK         0.0839 
     98 H98        28.2122  -28.4346  -42.2676 H         1 UNK         0.0839 
     99 H99        27.6385  -28.8646  -43.8705 H         1 UNK         0.0839 
    100 H100       23.8596  -28.4974  -41.1686 H         1 UNK         0.2998 
    101 H101       22.9315  -28.6519  -39.1735 H         1 UNK         0.0822 
    102 H102       25.6805  -28.0573  -37.9667 H         1 UNK         0.0787 
    103 H103       24.1231  -27.8409  -37.1838 H         1 UNK         0.0787 
    104 H104       24.5502  -26.8413  -38.5613 H         1 UNK         0.0787 
    105 H105       23.6997  -31.0753  -40.3838 H         1 UNK         0.3055 
    106 H106       24.2547  -32.9163  -38.0931 H         1 UNK         0.1106 
    107 H107       25.6195  -33.2795  -40.1445 H         1 UNK         0.0828 
    108 H108       24.5353  -34.6340  -39.8616 H         1 UNK         0.0828 
    109 H109       24.1576  -33.4529  -41.1074 H         1 UNK         0.0828 
    110 H110       21.7688  -31.8752  -40.4223 H         1 UNK         0.2931 
    111 H111       19.8789  -33.9514  -39.7095 H         1 UNK         0.0412 
    112 H112       19.2919  -31.0608  -36.9738 H         1 UNK         0.3472 
    113 H113       20.7824  -31.1984  -37.8741 H         1 UNK         0.3472 
    114 H114       18.2782  -32.7096  -41.1374 H         1 UNK         0.0970 
    115 H115       19.3923  -31.3757  -41.2778 H         1 UNK         0.0970 
    116 H116       19.0371  -33.8586  -44.6428 H         1 UNK         0.0612 
    117 H117       17.8552  -33.4824  -43.4216 H         1 UNK         0.0612 
@<TRIPOS>BOND
     1    1    2 1    
     2    1   62 1    
     3    1   63 1    
     4    1   64 1    
     5    2    3 2    
     6    2    4 am   BACKBONE|DICT|INTERRES
     7    4    5 1    
     8    4   65 1    
     9    5    6 1    
    10    5   25 1    
    11    5   66 1    
    12    6    7 1    
    13    6   67 1    
    14    6   68 1    
    15    7    8 1    
    16    8    9 1    
    17    8   69 1    
    18    8   70 1    
    19    9   10 ar   
    20    9   14 ar   
    21   10   11 ar   
    22   10   71 1    
    23   11   12 ar   
    24   11   61 1    
    25   12   13 ar   
    26   12   72 1    
    27   13   14 ar   
    28   13   15 1    
    29   14   73 1    
    30   15   16 1    
    31   15   74 1    
    32   15   75 1    
    33   16   17 1    
    34   17   18 1    
    35   17   76 1    
    36   17   77 1    
    37   18   19 1    
    38   18   27 1    
    39   18   78 1    
    40   19   20 am   BACKBONE|DICT|INTERRES
    41   19   79 1    
    42   20   21 2    
    43   20   22 1    
    44   22   23 1    
    45   22   24 1    
    46   22   80 1    
    47   23   81 1    
    48   23   82 1    
    49   23   83 1    
    50   24   25 am   BACKBONE|DICT|INTERRES
    51   24   84 1    
    52   25   26 2    
    53   27   28 2    
    54   27   29 am   BACKBONE|DICT|INTERRES
    55   29   30 1    
    56   29   85 1    
    57   30   31 1    
    58   30   32 1    
    59   30   86 1    
    60   31   87 1    
    61   31   88 1    
    62   31   89 1    
    63   32   33 2    
    64   32   34 am   BACKBONE|DICT|INTERRES
    65   34   35 1    
    66   34   90 1    
    67   35   36 1    
    68   35   37 1    
    69   35   91 1    
    70   36   92 1    
    71   36   93 1    
    72   36   94 1    
    73   37   38 2    
    74   37   39 am   BACKBONE|DICT|INTERRES
    75   39   40 1    
    76   39   95 1    
    77   40   41 1    
    78   40   42 1    
    79   40   96 1    
    80   41   97 1    
    81   41   98 1    
    82   41   99 1    
    83   42   43 2    
    84   42   44 am   BACKBONE|DICT|INTERRES
    85   44   45 1    
    86   44  100 1    
    87   45   46 1    
    88   45   47 1    
    89   45  101 1    
    90   46  102 1    
    91   46  103 1    
    92   46  104 1    
    93   47   48 2    
    94   47   49 am   BACKBONE|DICT|INTERRES
    95   49   50 1    
    96   49  105 1    
    97   50   51 1    
    98   50   52 1    
    99   50  106 1    
   100   51  107 1    
   101   51  108 1    
   102   51  109 1    
   103   52   53 2    
   104   52   54 am   BACKBONE|DICT|INTERRES
   105   54   55 1    
   106   54  110 1    
   107   55   56 1    
   108   55   59 1    
   109   55  111 1    
   110   56   57 am   BACKBONE|DICT|INTERRES
   111   56   58 2    
   112   57  112 1    
   113   57  113 1    
   114   59   60 1    
   115   59  114 1    
   116   59  115 1    
   117   60   61 1    
   118   61  116 1    
   119   61  117 1    
@<TRIPOS>SUBSTRUCTURE
     1 UNK         1 GROUP             0       ****    0 ROOT    
