@<TRIPOS>MOLECULE
3R8
117   119    1
SMALL
USER_CHARGES


@<TRIPOS>ATOM
      1 CA         18.0012  -23.3428  -49.1134 C.3       0 UNK        -0.2013 
      2 C          18.4635  -24.7152  -48.6467 C.2       0 UNK         0.4866 
      3 O          19.1561  -25.4131  -49.3884 O.2       0 UNK        -0.5176 
      4 N          18.0783  -25.1121  -47.4278 N.am      1 UNK        -0.4884 
      5 CA         18.4696  -26.3775  -46.8002 C.3       1 UNK         0.0853 
      6 C6         17.6482  -26.6616  -45.5203 C.3       10 UNK        -0.0849 
      7 S7         15.9021  -27.0708  -45.8445 S.3       10 UNK        -0.2776 
      8 C8         15.8186  -28.8103  -45.2690 C.3       10 UNK         0.0316 
      9 C9         16.2276  -29.0652  -43.8118 C.ar      10 UNK        -0.0863 
     10 C10        16.5151  -30.3763  -43.4166 C.ar      10 UNK        -0.1009 
     11 C11        16.8977  -30.6661  -42.1022 C.ar      10 UNK        -0.0712 
     12 C12        16.9993  -29.6273  -41.1719 C.ar      10 UNK        -0.0894 
     13 C13        16.7383  -28.3080  -41.5548 C.ar      10 UNK        -0.0745 
     14 C14        16.3280  -28.0396  -42.8626 C.ar      10 UNK        -0.0972 
     15 C15        16.9057  -27.1616  -40.5673 C.3       10 UNK         0.0209 
     16 S16        18.6425  -26.9153  -40.0704 S.3       10 UNK        -0.2568 
     17 C17        19.5244  -26.6792  -41.6616 C.3       10 UNK        -0.0983 
     18 CA         20.2102  -27.9472  -42.2516 C.3       3 UNK         0.0876 
     19 N          20.8305  -27.6335  -43.5487 N.am      3 UNK        -0.4424 
     20 C          21.4757  -28.4782  -44.3707 C.2       2 UNK         0.4918 
     21 O          21.7346  -29.6489  -44.0991 O.2       2 UNK        -0.4875 
     22 CA         21.8029  -27.9371  -45.7772 C.3       2 UNK         0.0481 
     23 CB         22.5431  -28.9646  -46.6569 C.3       2 UNK        -0.1831 
     24 N          20.5453  -27.5937  -46.4388 N.am      2 UNK        -0.4498 
     25 C          19.9616  -26.3905  -46.4180 C.2       1 UNK         0.5027 
     26 O          20.5054  -25.3674  -45.9948 O.2       1 UNK        -0.4969 
     27 C          21.1867  -28.6101  -41.2533 C.2       3 UNK         0.5005 
     28 O          22.3929  -28.3661  -41.3175 O.2       3 UNK        -0.5279 
     29 N          20.6280  -29.3950  -40.3196 N.am      4 UNK        -0.4463 
     30 CA         21.2938  -30.1503  -39.2529 C.3       4 UNK         0.0283 
     31 CB         20.2387  -30.6686  -38.2617 C.3       4 UNK        -0.1875 
     32 C          22.3939  -29.3931  -38.4932 C.2       4 UNK         0.4949 
     33 O          23.4581  -29.9596  -38.2459 O.2       4 UNK        -0.5039 
     34 N          22.1240  -28.1240  -38.1649 N.am      5 UNK        -0.4663 
     35 CA         23.0473  -27.2342  -37.4581 C.3       5 UNK         0.0242 
     36 CB         22.2499  -26.0441  -36.8988 C.3       5 UNK        -0.1982 
     37 C          24.2228  -26.7328  -38.3187 C.2       5 UNK         0.5017 
     38 O          25.2065  -26.2560  -37.7508 O.2       5 UNK        -0.5012 
     39 N          24.0996  -26.8169  -39.6500 N.am      6 UNK        -0.4439 
     40 CA         25.0742  -26.3100  -40.6146 C.3       6 UNK         0.0297 
     41 CB         24.3489  -25.4307  -41.6487 C.3       6 UNK        -0.2006 
     42 C          25.8305  -27.4438  -41.3199 C.2       6 UNK         0.4892 
     43 O          27.0519  -27.3520  -41.4511 O.2       6 UNK        -0.5089 
     44 N          25.1056  -28.4686  -41.7887 N.am      7 UNK        -0.4243 
     45 CA         25.6290  -29.5025  -42.6838 C.3       7 UNK         0.0196 
     46 CB         25.6491  -28.9638  -44.1283 C.3       7 UNK        -0.2007 
     47 C          24.8922  -30.8466  -42.5460 C.2       7 UNK         0.5020 
     48 O          24.8126  -31.5976  -43.5181 O.2       7 UNK        -0.5147 
     49 N          24.3955  -31.1521  -41.3385 N.am      8 UNK        -0.4734 
     50 CA         23.8654  -32.4484  -40.8744 C.3       8 UNK         0.0238 
     51 CB         24.9548  -33.5385  -40.9551 C.3       8 UNK        -0.1912 
     52 C          22.5490  -32.9524  -41.5094 C.2       8 UNK         0.5038 
     53 O          21.9369  -33.8413  -40.9174 O.2       8 UNK        -0.5046 
     54 N          22.1399  -32.4045  -42.6622 N.am      9 UNK        -0.4200 
     55 CA         20.9610  -32.7625  -43.4783 C.3       9 UNK         0.0839 
     56 C          20.7763  -34.2707  -43.8317 C.2       9 UNK         0.5513 
     57 N          21.8350  -35.0717  -43.8483 N.am      9 UNK        -0.7519 
     58 O          19.6745  -34.7168  -44.1428 O.2       9 UNK        -0.4960 
     59 C59        19.6519  -32.0213  -43.0717 C.3       10 UNK        -0.0876 
     60 S60        18.9675  -32.4099  -41.4276 S.3       10 UNK        -0.2414 
     61 C61        17.1902  -32.1037  -41.6876 C.3       10 UNK         0.0169 
     62 H62        17.3851  -22.8436  -48.3658 H         1 UNK         0.0903 
     63 H63        18.8621  -22.7083  -49.3219 H         1 UNK         0.0903 
     64 H64        17.4159  -23.4348  -50.0280 H         1 UNK         0.0903 
     65 H65        17.5146  -24.4973  -46.8581 H         1 UNK         0.3096 
     66 H66        18.2928  -27.1788  -47.5218 H         1 UNK         0.1121 
     67 H67        18.0925  -27.4870  -44.9611 H         1 UNK         0.0849 
     68 H68        17.6794  -25.8033  -44.8460 H         1 UNK         0.0849 
     69 H69        14.7969  -29.1668  -45.4061 H         1 UNK         0.0865 
     70 H70        16.4439  -29.4138  -45.9290 H         1 UNK         0.0865 
     71 H71        16.4369  -31.1792  -44.1374 H         1 UNK         0.1346 
     72 H72        17.2958  -29.8441  -40.1547 H         1 UNK         0.1412 
     73 H73        16.1043  -27.0190  -43.1373 H         1 UNK         0.1426 
     74 H74        16.3095  -27.3664  -39.6770 H         1 UNK         0.0716 
     75 H75        16.5235  -26.2276  -40.9824 H         1 UNK         0.0716 
     76 H76        18.8185  -26.2686  -42.3853 H         1 UNK         0.0695 
     77 H77        20.2714  -25.8988  -41.5042 H         1 UNK         0.0695 
     78 H78        19.4316  -28.6794  -42.4695 H         1 UNK         0.0983 
     79 H79        20.7101  -26.6838  -43.8701 H         1 UNK         0.3095 
     80 H80        22.4383  -27.0562  -45.6654 H         1 UNK         0.0454 
     81 H81        21.9479  -29.8645  -46.8166 H         1 UNK         0.0851 
     82 H82        22.7827  -28.5461  -47.6344 H         1 UNK         0.0851 
     83 H83        23.4816  -29.2809  -46.2047 H         1 UNK         0.0851 
     84 H84        20.0085  -28.3800  -46.7777 H         1 UNK         0.2976 
     85 H85        19.6235  -29.4911  -40.3477 H         1 UNK         0.3116 
     86 H86        21.7538  -31.0122  -39.7247 H         1 UNK         0.0646 
     87 H87        20.7048  -31.2422  -37.4591 H         1 UNK         0.0847 
     88 H88        19.5204  -31.3287  -38.7461 H         1 UNK         0.0847 
     89 H89        19.6829  -29.8526  -37.7981 H         1 UNK         0.0847 
     90 H90        21.2265  -27.7405  -38.4269 H         1 UNK         0.3040 
     91 H91        23.4770  -27.7845  -36.6178 H         1 UNK         0.1015 
     92 H92        21.4632  -26.3762  -36.2210 H         1 UNK         0.0786 
     93 H93        21.7847  -25.4606  -37.6945 H         1 UNK         0.0786 
     94 H94        22.8962  -25.3697  -36.3351 H         1 UNK         0.0786 
     95 H95        23.2896  -27.2927  -40.0385 H         1 UNK         0.3172 
     96 H96        25.8144  -25.6834  -40.1126 H         1 UNK         0.0595 
     97 H97        23.8676  -24.5767  -41.1721 H         1 UNK         0.0839 
     98 H98        23.5821  -25.9855  -42.1912 H         1 UNK         0.0839 
     99 H99        25.0496  -25.0370  -42.3864 H         1 UNK         0.0839 
    100 H100       24.0939  -28.4676  -41.6447 H         1 UNK         0.2998 
    101 H101       26.6595  -29.7241  -42.3980 H         1 UNK         0.0822 
    102 H102       26.3401  -28.1266  -44.2278 H         1 UNK         0.0787 
    103 H103       25.9657  -29.7233  -44.8442 H         1 UNK         0.0787 
    104 H104       24.6621  -28.6125  -44.4234 H         1 UNK         0.0787 
    105 H105       24.4771  -30.4473  -40.6169 H         1 UNK         0.3055 
    106 H106       23.6472  -32.3087  -39.8147 H         1 UNK         0.1106 
    107 H107       25.2274  -33.7685  -41.9854 H         1 UNK         0.0828 
    108 H108       25.8594  -33.2361  -40.4276 H         1 UNK         0.0828 
    109 H109       24.6126  -34.4681  -40.4983 H         1 UNK         0.0828 
    110 H110       22.7470  -31.7083  -43.0788 H         1 UNK         0.2931 
    111 H111       21.2163  -32.3392  -44.4504 H         1 UNK         0.0412 
    112 H112       21.7172  -36.0429  -44.0905 H         1 UNK         0.3472 
    113 H113       22.7463  -34.7163  -43.6069 H         1 UNK         0.3472 
    114 H114       18.8835  -32.2020  -43.8248 H         1 UNK         0.0970 
    115 H115       19.8198  -30.9473  -43.0968 H         1 UNK         0.0970 
    116 H116       16.8140  -32.8069  -42.4324 H         1 UNK         0.0612 
    117 H117       16.6575  -32.3264  -40.7621 H         1 UNK         0.0612 
@<TRIPOS>BOND
     1    1    2 1    
     2    1   62 1    
     3    1   63 1    
     4    1   64 1    
     5    2    3 2    
     6    2    4 am   BACKBONE|DICT|INTERRES
     7    4    5 1    
     8    4   65 1    
     9    5    6 1    
    10    5   25 1    
    11    5   66 1    
    12    6    7 1    
    13    6   67 1    
    14    6   68 1    
    15    7    8 1    
    16    8    9 1    
    17    8   69 1    
    18    8   70 1    
    19    9   10 ar   
    20    9   14 ar   
    21   10   11 ar   
    22   10   71 1    
    23   11   12 ar   
    24   11   61 1    
    25   12   13 ar   
    26   12   72 1    
    27   13   14 ar   
    28   13   15 1    
    29   14   73 1    
    30   15   16 1    
    31   15   74 1    
    32   15   75 1    
    33   16   17 1    
    34   17   18 1    
    35   17   76 1    
    36   17   77 1    
    37   18   19 1    
    38   18   27 1    
    39   18   78 1    
    40   19   20 am   BACKBONE|DICT|INTERRES
    41   19   79 1    
    42   20   21 2    
    43   20   22 1    
    44   22   23 1    
    45   22   24 1    
    46   22   80 1    
    47   23   81 1    
    48   23   82 1    
    49   23   83 1    
    50   24   25 am   BACKBONE|DICT|INTERRES
    51   24   84 1    
    52   25   26 2    
    53   27   28 2    
    54   27   29 am   BACKBONE|DICT|INTERRES
    55   29   30 1    
    56   29   85 1    
    57   30   31 1    
    58   30   32 1    
    59   30   86 1    
    60   31   87 1    
    61   31   88 1    
    62   31   89 1    
    63   32   33 2    
    64   32   34 am   BACKBONE|DICT|INTERRES
    65   34   35 1    
    66   34   90 1    
    67   35   36 1    
    68   35   37 1    
    69   35   91 1    
    70   36   92 1    
    71   36   93 1    
    72   36   94 1    
    73   37   38 2    
    74   37   39 am   BACKBONE|DICT|INTERRES
    75   39   40 1    
    76   39   95 1    
    77   40   41 1    
    78   40   42 1    
    79   40   96 1    
    80   41   97 1    
    81   41   98 1    
    82   41   99 1    
    83   42   43 2    
    84   42   44 am   BACKBONE|DICT|INTERRES
    85   44   45 1    
    86   44  100 1    
    87   45   46 1    
    88   45   47 1    
    89   45  101 1    
    90   46  102 1    
    91   46  103 1    
    92   46  104 1    
    93   47   48 2    
    94   47   49 am   BACKBONE|DICT|INTERRES
    95   49   50 1    
    96   49  105 1    
    97   50   51 1    
    98   50   52 1    
    99   50  106 1    
   100   51  107 1    
   101   51  108 1    
   102   51  109 1    
   103   52   53 2    
   104   52   54 am   BACKBONE|DICT|INTERRES
   105   54   55 1    
   106   54  110 1    
   107   55   56 1    
   108   55   59 1    
   109   55  111 1    
   110   56   57 am   BACKBONE|DICT|INTERRES
   111   56   58 2    
   112   57  112 1    
   113   57  113 1    
   114   59   60 1    
   115   59  114 1    
   116   59  115 1    
   117   60   61 1    
   118   61  116 1    
   119   61  117 1    
@<TRIPOS>SUBSTRUCTURE
     1 UNK         1 GROUP             0       ****    0 ROOT    
