@<TRIPOS>MOLECULE
3R8
117   119    1
SMALL
USER_CHARGES


@<TRIPOS>ATOM
      1 CA         13.9438  -23.2467  -43.0977 C.3       0 UNK        -0.2013 
      2 C          14.8409  -23.7722  -44.2085 C.2       0 UNK         0.4866 
      3 O          14.4654  -23.7125  -45.3797 O.2       0 UNK        -0.5176 
      4 N          16.0226  -24.2827  -43.8512 N.am      1 UNK        -0.4884 
      5 CA         17.0103  -24.8480  -44.7687 C.3       1 UNK         0.0853 
      6 C6         16.7249  -26.3267  -45.1542 C.3       10 UNK        -0.0849 
      7 S7         16.2290  -27.4135  -43.7658 S.3       10 UNK        -0.2776 
      8 C8         15.9818  -29.0076  -44.6121 C.3       10 UNK         0.0316 
      9 C9         17.2709  -29.8136  -44.6542 C.ar      10 UNK        -0.0863 
     10 C10        17.5179  -30.8019  -43.6981 C.ar      10 UNK        -0.1009 
     11 C11        18.7118  -31.5286  -43.7194 C.ar      10 UNK        -0.0712 
     12 C12        19.6749  -31.2422  -44.6940 C.ar      10 UNK        -0.0894 
     13 C13        19.4401  -30.2558  -45.6598 C.ar      10 UNK        -0.0745 
     14 C14        18.2209  -29.5691  -45.6468 C.ar      10 UNK        -0.0972 
     15 C15        20.4862  -29.9715  -46.7360 C.3       10 UNK         0.0209 
     16 S16        20.6102  -28.1997  -47.1804 S.3       10 UNK        -0.2568 
     17 C17        22.3039  -27.7589  -46.6631 C.3       10 UNK        -0.0983 
     18 CA         22.3932  -27.0019  -45.3151 C.3       3 UNK         0.0876 
     19 N          21.5223  -25.8207  -45.2586 N.am      3 UNK        -0.4424 
     20 C          21.6315  -24.8399  -44.3507 C.2       2 UNK         0.4918 
     21 O          22.4496  -24.8497  -43.4305 O.2       2 UNK        -0.4875 
     22 CA         20.6614  -23.6563  -44.4814 C.3       2 UNK         0.0481 
     23 CB         21.2389  -22.5972  -45.4336 C.3       2 UNK        -0.1831 
     24 N          19.3232  -24.0474  -44.9359 N.am      2 UNK        -0.4498 
     25 C          18.4043  -24.6346  -44.1554 C.2       1 UNK         0.5027 
     26 O          18.6132  -24.9695  -42.9875 O.2       1 UNK        -0.4969 
     27 C          22.2393  -27.9461  -44.1072 C.2       3 UNK         0.5005 
     28 O          23.1749  -28.6917  -43.8176 O.2       3 UNK        -0.5279 
     29 N          21.1137  -27.8595  -43.3828 N.am      4 UNK        -0.4463 
     30 CA         20.8522  -28.5926  -42.1416 C.3       4 UNK         0.0283 
     31 CB         19.4408  -28.2559  -41.6401 C.3       4 UNK        -0.1875 
     32 C          21.8882  -28.3268  -41.0350 C.2       4 UNK         0.4949 
     33 O          22.1936  -29.2342  -40.2630 O.2       4 UNK        -0.5039 
     34 N          22.4447  -27.1068  -40.9998 N.am      5 UNK        -0.4663 
     35 CA         23.5091  -26.7151  -40.0723 C.3       5 UNK         0.0242 
     36 CB         23.6561  -25.1854  -40.0883 C.3       5 UNK        -0.1982 
     37 C          24.8591  -27.3902  -40.3759 C.2       5 UNK         0.5017 
     38 O          25.6519  -27.5811  -39.4533 O.2       5 UNK        -0.5012 
     39 N          25.0956  -27.7367  -41.6487 N.am      6 UNK        -0.4439 
     40 CA         26.2873  -28.4511  -42.1063 C.3       6 UNK         0.0297 
     41 CB         26.6355  -28.0076  -43.5371 C.3       6 UNK        -0.2006 
     42 C          26.0820  -29.9716  -42.0436 C.2       6 UNK         0.4892 
     43 O          26.9878  -30.6866  -41.6144 O.2       6 UNK        -0.5089 
     44 N          24.9011  -30.4355  -42.4758 N.am      7 UNK        -0.4243 
     45 CA         24.5196  -31.8471  -42.5252 C.3       7 UNK         0.0196 
     46 CB         23.2552  -31.9930  -43.3882 C.3       7 UNK        -0.2007 
     47 C          24.2827  -32.4745  -41.1433 C.2       7 UNK         0.5020 
     48 O          24.4312  -33.6889  -41.0106 O.2       7 UNK        -0.5147 
     49 N          23.8577  -31.6646  -40.1619 N.am      8 UNK        -0.4734 
     50 CA         23.4587  -32.0070  -38.7854 C.3       8 UNK         0.0238 
     51 CB         24.5986  -32.6999  -38.0134 C.3       8 UNK        -0.1912 
     52 C          22.1414  -32.8015  -38.6790 C.2       8 UNK         0.5038 
     53 O          21.4445  -32.6657  -37.6726 O.2       8 UNK        -0.5046 
     54 N          21.8127  -33.5815  -39.7158 N.am      9 UNK        -0.4200 
     55 CA         20.5532  -34.3129  -39.9248 C.3       9 UNK         0.0839 
     56 C          20.3407  -35.5317  -38.9774 C.2       9 UNK         0.5513 
     57 N          21.3653  -36.0204  -38.2888 N.am      9 UNK        -0.7519 
     58 O          19.2383  -36.0661  -38.8866 O.2       9 UNK        -0.4960 
     59 C59        19.3055  -33.3837  -39.9949 C.3       10 UNK        -0.0876 
     60 S60        19.5089  -31.9507  -41.1110 S.3       10 UNK        -0.2414 
     61 C61        18.9394  -32.6312  -42.6953 C.3       10 UNK         0.0169 
     62 H62        12.9888  -23.7682  -43.1087 H         1 UNK         0.0903 
     63 H63        14.3903  -23.3827  -42.1147 H         1 UNK         0.0903 
     64 H64        13.7534  -22.1852  -43.2393 H         1 UNK         0.0903 
     65 H65        16.3033  -24.3063  -42.8790 H         1 UNK         0.3096 
     66 H66        16.9792  -24.2612  -45.6900 H         1 UNK         0.1121 
     67 H67        15.9151  -26.3464  -45.8852 H         1 UNK         0.0849 
     68 H68        17.5895  -26.7549  -45.6616 H         1 UNK         0.0849 
     69 H69        15.5988  -28.8462  -45.6209 H         1 UNK         0.0865 
     70 H70        15.2092  -29.5675  -44.0829 H         1 UNK         0.0865 
     71 H71        16.7827  -31.0058  -42.9315 H         1 UNK         0.1346 
     72 H72        20.6020  -31.7979  -44.7077 H         1 UNK         0.1412 
     73 H73        18.0135  -28.8302  -46.4068 H         1 UNK         0.1426 
     74 H74        20.2180  -30.5332  -47.6314 H         1 UNK         0.0716 
     75 H75        21.4603  -30.3471  -46.4204 H         1 UNK         0.0716 
     76 H76        22.7133  -27.1209  -47.4477 H         1 UNK         0.0695 
     77 H77        22.9438  -28.6433  -46.6604 H         1 UNK         0.0695 
     78 H78        23.4168  -26.6262  -45.2442 H         1 UNK         0.0983 
     79 H79        20.8175  -25.7525  -45.9782 H         1 UNK         0.3095 
     80 H80        20.5673  -23.1985  -43.4940 H         1 UNK         0.0454 
     81 H81        20.6067  -21.7099  -45.4713 H         1 UNK         0.0851 
     82 H82        21.3459  -22.9776  -46.4502 H         1 UNK         0.0851 
     83 H83        22.2267  -22.2730  -45.1026 H         1 UNK         0.0851 
     84 H84        19.0748  -23.7904  -45.8809 H         1 UNK         0.2976 
     85 H85        20.3970  -27.2179  -43.6895 H         1 UNK         0.3116 
     86 H86        20.8897  -29.6559  -42.3805 H         1 UNK         0.0646 
     87 H87        19.2070  -28.8115  -40.7310 H         1 UNK         0.0847 
     88 H88        18.6869  -28.5205  -42.3800 H         1 UNK         0.0847 
     89 H89        19.3311  -27.1946  -41.4142 H         1 UNK         0.0847 
     90 H90        22.1576  -26.4187  -41.6848 H         1 UNK         0.3040 
     91 H91        23.2116  -27.0204  -39.0664 H         1 UNK         0.1015 
     92 H92        22.7229  -24.6933  -39.8134 H         1 UNK         0.0786 
     93 H93        23.9519  -24.8184  -41.0721 H         1 UNK         0.0786 
     94 H94        24.4158  -24.8590  -39.3765 H         1 UNK         0.0786 
     95 H95        24.3595  -27.5966  -42.3289 H         1 UNK         0.3172 
     96 H96        27.1337  -28.1975  -41.4643 H         1 UNK         0.0595 
     97 H97        25.8364  -28.2359  -44.2431 H         1 UNK         0.0839 
     98 H98        27.5355  -28.5118  -43.8915 H         1 UNK         0.0839 
     99 H99        26.8264  -26.9354  -43.5834 H         1 UNK         0.0839 
    100 H100       24.2328  -29.7749  -42.8708 H         1 UNK         0.2998 
    101 H101       25.3305  -32.3997  -43.0044 H         1 UNK         0.0822 
    102 H102       22.4084  -31.4645  -42.9486 H         1 UNK         0.0787 
    103 H103       23.4107  -31.5978  -44.3923 H         1 UNK         0.0787 
    104 H104       22.9683  -33.0404  -43.4912 H         1 UNK         0.0787 
    105 H105       23.6602  -30.7012  -40.4139 H         1 UNK         0.3055 
    106 H106       23.2680  -31.0493  -38.2974 H         1 UNK         0.1106 
    107 H107       24.8214  -33.6906  -38.4099 H         1 UNK         0.0828 
    108 H108       25.5148  -32.1104  -38.0470 H         1 UNK         0.0828 
    109 H109       24.3330  -32.8266  -36.9631 H         1 UNK         0.0828 
    110 H110       22.5071  -33.6807  -40.4465 H         1 UNK         0.2931 
    111 H111       20.6615  -34.7591  -40.9138 H         1 UNK         0.0412 
    112 H112       22.2764  -35.5970  -38.3634 H         1 UNK         0.3472 
    113 H113       21.2234  -36.8159  -37.6860 H         1 UNK         0.3472 
    114 H114       18.4242  -33.9480  -40.3040 H         1 UNK         0.0970 
    115 H115       19.0728  -32.9973  -39.0014 H         1 UNK         0.0970 
    116 H116       18.0097  -33.1821  -42.5458 H         1 UNK         0.0612 
    117 H117       19.6732  -33.3512  -43.0605 H         1 UNK         0.0612 
@<TRIPOS>BOND
     1    1    2 1    
     2    1   62 1    
     3    1   63 1    
     4    1   64 1    
     5    2    3 2    
     6    2    4 am   BACKBONE|DICT|INTERRES
     7    4    5 1    
     8    4   65 1    
     9    5    6 1    
    10    5   25 1    
    11    5   66 1    
    12    6    7 1    
    13    6   67 1    
    14    6   68 1    
    15    7    8 1    
    16    8    9 1    
    17    8   69 1    
    18    8   70 1    
    19    9   10 ar   
    20    9   14 ar   
    21   10   11 ar   
    22   10   71 1    
    23   11   12 ar   
    24   11   61 1    
    25   12   13 ar   
    26   12   72 1    
    27   13   14 ar   
    28   13   15 1    
    29   14   73 1    
    30   15   16 1    
    31   15   74 1    
    32   15   75 1    
    33   16   17 1    
    34   17   18 1    
    35   17   76 1    
    36   17   77 1    
    37   18   19 1    
    38   18   27 1    
    39   18   78 1    
    40   19   20 am   BACKBONE|DICT|INTERRES
    41   19   79 1    
    42   20   21 2    
    43   20   22 1    
    44   22   23 1    
    45   22   24 1    
    46   22   80 1    
    47   23   81 1    
    48   23   82 1    
    49   23   83 1    
    50   24   25 am   BACKBONE|DICT|INTERRES
    51   24   84 1    
    52   25   26 2    
    53   27   28 2    
    54   27   29 am   BACKBONE|DICT|INTERRES
    55   29   30 1    
    56   29   85 1    
    57   30   31 1    
    58   30   32 1    
    59   30   86 1    
    60   31   87 1    
    61   31   88 1    
    62   31   89 1    
    63   32   33 2    
    64   32   34 am   BACKBONE|DICT|INTERRES
    65   34   35 1    
    66   34   90 1    
    67   35   36 1    
    68   35   37 1    
    69   35   91 1    
    70   36   92 1    
    71   36   93 1    
    72   36   94 1    
    73   37   38 2    
    74   37   39 am   BACKBONE|DICT|INTERRES
    75   39   40 1    
    76   39   95 1    
    77   40   41 1    
    78   40   42 1    
    79   40   96 1    
    80   41   97 1    
    81   41   98 1    
    82   41   99 1    
    83   42   43 2    
    84   42   44 am   BACKBONE|DICT|INTERRES
    85   44   45 1    
    86   44  100 1    
    87   45   46 1    
    88   45   47 1    
    89   45  101 1    
    90   46  102 1    
    91   46  103 1    
    92   46  104 1    
    93   47   48 2    
    94   47   49 am   BACKBONE|DICT|INTERRES
    95   49   50 1    
    96   49  105 1    
    97   50   51 1    
    98   50   52 1    
    99   50  106 1    
   100   51  107 1    
   101   51  108 1    
   102   51  109 1    
   103   52   53 2    
   104   52   54 am   BACKBONE|DICT|INTERRES
   105   54   55 1    
   106   54  110 1    
   107   55   56 1    
   108   55   59 1    
   109   55  111 1    
   110   56   57 am   BACKBONE|DICT|INTERRES
   111   56   58 2    
   112   57  112 1    
   113   57  113 1    
   114   59   60 1    
   115   59  114 1    
   116   59  115 1    
   117   60   61 1    
   118   61  116 1    
   119   61  117 1    
@<TRIPOS>SUBSTRUCTURE
     1 UNK         1 GROUP             0       ****    0 ROOT    
