@<TRIPOS>MOLECULE
3R8
117   119    1
SMALL
USER_CHARGES


@<TRIPOS>ATOM
      1 CA         14.4114  -26.0340  -39.9640 C.3       0 UNK        -0.2013 
      2 C          14.9193  -25.9579  -41.3963 C.2       0 UNK         0.4866 
      3 O          14.3120  -25.2801  -42.2263 O.2       0 UNK        -0.5176 
      4 N          16.0221  -26.6552  -41.6949 N.am      1 UNK        -0.4884 
      5 CA         16.6785  -26.6659  -43.0072 C.3       1 UNK         0.0853 
      6 C6         17.7118  -27.8146  -43.1293 C.3       10 UNK        -0.0849 
      7 S7         16.9751  -29.4620  -42.8530 S.3       10 UNK        -0.2776 
      8 C8         16.9431  -30.1770  -44.5304 C.3       10 UNK         0.0316 
      9 C9         18.3399  -30.4044  -45.0950 C.ar      10 UNK        -0.0863 
     10 C10        19.1908  -31.3507  -44.5141 C.ar      10 UNK        -0.1009 
     11 C11        20.4811  -31.5527  -45.0154 C.ar      10 UNK        -0.0712 
     12 C12        20.9077  -30.8077  -46.1195 C.ar      10 UNK        -0.0894 
     13 C13        20.0646  -29.8668  -46.7186 C.ar      10 UNK        -0.0745 
     14 C14        18.7782  -29.6753  -46.2052 C.ar      10 UNK        -0.0972 
     15 C15        20.5514  -29.0626  -47.9205 C.3       10 UNK         0.0209 
     16 S16        20.4680  -27.2574  -47.6647 S.3       10 UNK        -0.2568 
     17 C17        21.4402  -27.0574  -46.1338 C.3       10 UNK        -0.0983 
     18 CA         21.3582  -25.6329  -45.5259 C.3       3 UNK         0.0876 
     19 N          19.9728  -25.1824  -45.3875 N.am      3 UNK        -0.4424 
     20 C          19.5780  -23.9228  -45.1669 C.2       2 UNK         0.4918 
     21 O          20.3478  -22.9646  -45.0889 O.2       2 UNK        -0.4875 
     22 CA         18.0612  -23.6900  -45.0275 C.3       2 UNK         0.0481 
     23 CB         17.4654  -23.2391  -46.3709 C.3       2 UNK        -0.1831 
     24 N          17.3446  -24.8805  -44.5550 N.am      2 UNK        -0.4498 
     25 C          17.3656  -25.3134  -43.2863 C.2       1 UNK         0.5027 
     26 O          17.9296  -24.7131  -42.3674 O.2       1 UNK        -0.4969 
     27 C          22.0706  -25.6351  -44.1595 C.2       3 UNK         0.5005 
     28 O          21.4258  -25.8773  -43.1355 O.2       3 UNK        -0.5279 
     29 N          23.3979  -25.4513  -44.1772 N.am      4 UNK        -0.4463 
     30 CA         24.2692  -25.7706  -43.0439 C.3       4 UNK         0.0283 
     31 CB         25.5974  -25.0005  -43.1556 C.3       4 UNK        -0.1875 
     32 C          24.4823  -27.2919  -42.9824 C.2       4 UNK         0.4949 
     33 O          24.0220  -27.9336  -42.0387 O.2       4 UNK        -0.5039 
     34 N          25.1212  -27.8367  -44.0307 N.am      5 UNK        -0.4663 
     35 CA         25.3583  -29.2633  -44.2831 C.3       5 UNK         0.0242 
     36 CB         24.0513  -29.9255  -44.7736 C.3       5 UNK        -0.1982 
     37 C          26.0239  -29.9753  -43.0864 C.2       5 UNK         0.5017 
     38 O          27.0702  -29.5166  -42.6244 O.2       5 UNK        -0.5012 
     39 N          25.4111  -31.0636  -42.6028 N.am      6 UNK        -0.4439 
     40 CA         25.8493  -31.8222  -41.4289 C.3       6 UNK         0.0297 
     41 CB         25.4253  -33.2915  -41.6027 C.3       6 UNK        -0.2006 
     42 C          25.3058  -31.2573  -40.1018 C.2       6 UNK         0.4892 
     43 O          25.6310  -31.8132  -39.0516 O.2       6 UNK        -0.5089 
     44 N          24.4694  -30.2071  -40.1581 N.am      7 UNK        -0.4243 
     45 CA         23.7506  -29.5289  -39.0682 C.3       7 UNK         0.0196 
     46 CB         24.7196  -28.9150  -38.0391 C.3       7 UNK        -0.2007 
     47 C          22.6781  -30.3943  -38.3844 C.2       7 UNK         0.5020 
     48 O          21.5331  -29.9583  -38.2642 O.2       7 UNK        -0.5147 
     49 N          23.0505  -31.6125  -37.9743 N.am      8 UNK        -0.4734 
     50 CA         22.1932  -32.5990  -37.3093 C.3       8 UNK         0.0238 
     51 CB         23.0620  -33.7747  -36.8339 C.3       8 UNK        -0.1912 
     52 C          21.0283  -33.1078  -38.1774 C.2       8 UNK         0.5038 
     53 O          20.0323  -33.5767  -37.6248 O.2       8 UNK        -0.5046 
     54 N          21.1668  -33.0026  -39.5054 N.am      9 UNK        -0.4200 
     55 CA         20.1112  -33.2964  -40.4829 C.3       9 UNK         0.0839 
     56 C          18.9708  -32.2395  -40.5539 C.2       9 UNK         0.5513 
     57 N          19.1034  -31.0651  -39.9469 N.am      9 UNK        -0.7519 
     58 O          17.9341  -32.5083  -41.1544 O.2       9 UNK        -0.4960 
     59 C59        20.6962  -33.6332  -41.8788 C.3       10 UNK        -0.0876 
     60 S60        21.7176  -32.3078  -42.6198 S.3       10 UNK        -0.2414 
     61 C61        21.4109  -32.5912  -44.3963 C.3       10 UNK         0.0169 
     62 H62        13.3948  -26.4259  -39.9466 H         1 UNK         0.0903 
     63 H63        15.0339  -26.6791  -39.3441 H         1 UNK         0.0903 
     64 H64        14.4017  -25.0405  -39.5164 H         1 UNK         0.0903 
     65 H65        16.4852  -27.1913  -40.9751 H         1 UNK         0.3096 
     66 H66        15.9036  -26.8192  -43.7621 H         1 UNK         0.1121 
     67 H67        18.5168  -27.6841  -42.4026 H         1 UNK         0.0849 
     68 H68        18.1942  -27.7947  -44.1074 H         1 UNK         0.0849 
     69 H69        16.3550  -29.5309  -45.1840 H         1 UNK         0.0865 
     70 H70        16.4173  -31.1321  -44.4936 H         1 UNK         0.0865 
     71 H71        18.8497  -31.9197  -43.6606 H         1 UNK         0.1346 
     72 H72        21.8994  -30.9656  -46.5198 H         1 UNK         0.1412 
     73 H73        18.1250  -28.9476  -46.6672 H         1 UNK         0.1426 
     74 H74        19.9449  -29.3232  -48.7889 H         1 UNK         0.0716 
     75 H75        21.5792  -29.3277  -48.1735 H         1 UNK         0.0716 
     76 H76        22.4765  -27.3183  -46.3559 H         1 UNK         0.0695 
     77 H77        21.0902  -27.7918  -45.4055 H         1 UNK         0.0695 
     78 H78        21.8727  -24.9353  -46.1906 H         1 UNK         0.0983 
     79 H79        19.2726  -25.9046  -45.4360 H         1 UNK         0.3095 
     80 H80        17.9134  -22.8842  -44.3052 H         1 UNK         0.0454 
     81 H81        17.5786  -24.0021  -47.1421 H         1 UNK         0.0851 
     82 H82        17.9599  -22.3363  -46.7324 H         1 UNK         0.0851 
     83 H83        16.4041  -23.0085  -46.2778 H         1 UNK         0.0851 
     84 H84        16.8404  -25.4115  -45.2513 H         1 UNK         0.2976 
     85 H85        23.8507  -25.2544  -45.0585 H         1 UNK         0.3116 
     86 H86        23.7838  -25.4606  -42.1155 H         1 UNK         0.0646 
     87 H87        26.1214  -25.2027  -44.0899 H         1 UNK         0.0847 
     88 H88        26.2704  -25.2681  -42.3396 H         1 UNK         0.0847 
     89 H89        25.4323  -23.9246  -43.0955 H         1 UNK         0.0847 
     90 H90        25.4900  -27.2114  -44.7325 H         1 UNK         0.3040 
     91 H91        26.0815  -29.3192  -45.0984 H         1 UNK         0.1015 
     92 H92        23.6692  -29.4149  -45.6572 H         1 UNK         0.0786 
     93 H93        23.2647  -29.8980  -44.0179 H         1 UNK         0.0786 
     94 H94        24.2144  -30.9650  -45.0600 H         1 UNK         0.0786 
     95 H95        24.5446  -31.3561  -43.0326 H         1 UNK         0.3172 
     96 H96        26.9393  -31.7926  -41.3696 H         1 UNK         0.0595 
     97 H97        25.8226  -33.7138  -42.5259 H         1 UNK         0.0839 
     98 H98        24.3411  -33.4034  -41.6211 H         1 UNK         0.0839 
     99 H99        25.7994  -33.9064  -40.7830 H         1 UNK         0.0839 
    100 H100       24.2962  -29.7985  -41.0705 H         1 UNK         0.2998 
    101 H101       23.2200  -28.7019  -39.5430 H         1 UNK         0.0822 
    102 H102       25.4296  -28.2419  -38.5198 H         1 UNK         0.0787 
    103 H103       24.1755  -28.3337  -37.2936 H         1 UNK         0.0787 
    104 H104       25.2883  -29.6752  -37.5031 H         1 UNK         0.0787 
    105 H105       24.0184  -31.8768  -38.1491 H         1 UNK         0.3055 
    106 H106       21.7521  -32.1176  -36.4338 H         1 UNK         0.1106 
    107 H107       22.4608  -34.5206  -36.3120 H         1 UNK         0.0828 
    108 H108       23.8352  -33.4421  -36.1410 H         1 UNK         0.0828 
    109 H109       23.5530  -34.2763  -37.6689 H         1 UNK         0.0828 
    110 H110       22.0087  -32.5856  -39.8724 H         1 UNK         0.2931 
    111 H111       19.6214  -34.2099  -40.1392 H         1 UNK         0.0412 
    112 H112       19.9447  -30.8292  -39.4361 H         1 UNK         0.3472 
    113 H113       18.3514  -30.3982  -40.0128 H         1 UNK         0.3472 
    114 H114       21.3182  -34.5264  -41.8040 H         1 UNK         0.0970 
    115 H115       19.8870  -33.9023  -42.5601 H         1 UNK         0.0970 
    116 H116       22.3760  -32.5870  -44.9038 H         1 UNK         0.0612 
    117 H117       20.9976  -33.5866  -44.5622 H         1 UNK         0.0612 
@<TRIPOS>BOND
     1    1    2 1    
     2    1   62 1    
     3    1   63 1    
     4    1   64 1    
     5    2    3 2    
     6    2    4 am   BACKBONE|DICT|INTERRES
     7    4    5 1    
     8    4   65 1    
     9    5    6 1    
    10    5   25 1    
    11    5   66 1    
    12    6    7 1    
    13    6   67 1    
    14    6   68 1    
    15    7    8 1    
    16    8    9 1    
    17    8   69 1    
    18    8   70 1    
    19    9   10 ar   
    20    9   14 ar   
    21   10   11 ar   
    22   10   71 1    
    23   11   12 ar   
    24   11   61 1    
    25   12   13 ar   
    26   12   72 1    
    27   13   14 ar   
    28   13   15 1    
    29   14   73 1    
    30   15   16 1    
    31   15   74 1    
    32   15   75 1    
    33   16   17 1    
    34   17   18 1    
    35   17   76 1    
    36   17   77 1    
    37   18   19 1    
    38   18   27 1    
    39   18   78 1    
    40   19   20 am   BACKBONE|DICT|INTERRES
    41   19   79 1    
    42   20   21 2    
    43   20   22 1    
    44   22   23 1    
    45   22   24 1    
    46   22   80 1    
    47   23   81 1    
    48   23   82 1    
    49   23   83 1    
    50   24   25 am   BACKBONE|DICT|INTERRES
    51   24   84 1    
    52   25   26 2    
    53   27   28 2    
    54   27   29 am   BACKBONE|DICT|INTERRES
    55   29   30 1    
    56   29   85 1    
    57   30   31 1    
    58   30   32 1    
    59   30   86 1    
    60   31   87 1    
    61   31   88 1    
    62   31   89 1    
    63   32   33 2    
    64   32   34 am   BACKBONE|DICT|INTERRES
    65   34   35 1    
    66   34   90 1    
    67   35   36 1    
    68   35   37 1    
    69   35   91 1    
    70   36   92 1    
    71   36   93 1    
    72   36   94 1    
    73   37   38 2    
    74   37   39 am   BACKBONE|DICT|INTERRES
    75   39   40 1    
    76   39   95 1    
    77   40   41 1    
    78   40   42 1    
    79   40   96 1    
    80   41   97 1    
    81   41   98 1    
    82   41   99 1    
    83   42   43 2    
    84   42   44 am   BACKBONE|DICT|INTERRES
    85   44   45 1    
    86   44  100 1    
    87   45   46 1    
    88   45   47 1    
    89   45  101 1    
    90   46  102 1    
    91   46  103 1    
    92   46  104 1    
    93   47   48 2    
    94   47   49 am   BACKBONE|DICT|INTERRES
    95   49   50 1    
    96   49  105 1    
    97   50   51 1    
    98   50   52 1    
    99   50  106 1    
   100   51  107 1    
   101   51  108 1    
   102   51  109 1    
   103   52   53 2    
   104   52   54 am   BACKBONE|DICT|INTERRES
   105   54   55 1    
   106   54  110 1    
   107   55   56 1    
   108   55   59 1    
   109   55  111 1    
   110   56   57 am   BACKBONE|DICT|INTERRES
   111   56   58 2    
   112   57  112 1    
   113   57  113 1    
   114   59   60 1    
   115   59  114 1    
   116   59  115 1    
   117   60   61 1    
   118   61  116 1    
   119   61  117 1    
@<TRIPOS>SUBSTRUCTURE
     1 UNK         1 GROUP             0       ****    0 ROOT    
