@<TRIPOS>MOLECULE
3R8
117   119    1
SMALL
USER_CHARGES


@<TRIPOS>ATOM
      1 CA         16.8874  -24.7468  -48.5932 C.3       0 UNK        -0.2013 
      2 C          18.1277  -24.5345  -47.7378 C.2       0 UNK         0.4866 
      3 O          18.5048  -23.3908  -47.4795 O.2       0 UNK        -0.5176 
      4 N          18.7704  -25.6276  -47.3061 N.am      1 UNK        -0.4884 
      5 CA         19.9396  -25.6172  -46.4190 C.3       1 UNK         0.0853 
      6 C6         20.7452  -26.9495  -46.5332 C.3       10 UNK        -0.0849 
      7 S7         20.3672  -28.2831  -45.3378 S.3       10 UNK        -0.2776 
      8 C8         18.7780  -28.9030  -45.9719 C.3       10 UNK         0.0316 
      9 C9         18.1665  -29.9014  -45.0032 C.ar      10 UNK        -0.0863 
     10 C10        18.1791  -31.2709  -45.2851 C.ar      10 UNK        -0.1009 
     11 C11        17.6358  -32.1852  -44.3767 C.ar      10 UNK        -0.0712 
     12 C12        17.0959  -31.7212  -43.1726 C.ar      10 UNK        -0.0894 
     13 C13        17.0748  -30.3538  -42.8825 C.ar      10 UNK        -0.0745 
     14 C14        17.5897  -29.4479  -43.8134 C.ar      10 UNK        -0.0972 
     15 C15        16.4940  -29.8601  -41.5651 C.3       10 UNK         0.0209 
     16 S16        17.7895  -29.6144  -40.3054 S.3       10 UNK        -0.2568 
     17 C17        18.4425  -27.9672  -40.7428 C.3       10 UNK        -0.0983 
     18 CA         19.8041  -28.0302  -41.4927 C.3       3 UNK         0.0876 
     19 N          20.0518  -26.8088  -42.2649 N.am      3 UNK        -0.4424 
     20 C          20.2843  -25.5822  -41.7734 C.2       2 UNK         0.4918 
     21 O          20.4131  -25.3510  -40.5697 O.2       2 UNK        -0.4875 
     22 CA         20.3898  -24.4079  -42.7744 C.3       2 UNK         0.0481 
     23 CB         21.5298  -23.4447  -42.4009 C.3       2 UNK        -0.1831 
     24 N          20.5401  -24.8080  -44.1797 N.am      2 UNK        -0.4498 
     25 C          19.5461  -25.2309  -44.9727 C.2       1 UNK         0.5027 
     26 O          18.3826  -25.3709  -44.5858 O.2       1 UNK        -0.4969 
     27 C          21.0281  -28.3778  -40.6215 C.2       3 UNK         0.5005 
     28 O          22.0936  -28.6447  -41.1804 O.2       3 UNK        -0.5279 
     29 N          20.8840  -28.3284  -39.2893 N.am      4 UNK        -0.4463 
     30 CA         21.9362  -28.5556  -38.2914 C.3       4 UNK         0.0283 
     31 CB         21.3346  -28.4035  -36.8855 C.3       4 UNK        -0.1875 
     32 C          23.1720  -27.6487  -38.4420 C.2       4 UNK         0.4949 
     33 O          24.2657  -28.0589  -38.0547 O.2       4 UNK        -0.5039 
     34 N          22.9851  -26.4501  -39.0104 N.am      5 UNK        -0.4663 
     35 CA         24.0550  -25.4939  -39.3019 C.3       5 UNK         0.0242 
     36 CB         23.5096  -24.0708  -39.0933 C.3       5 UNK        -0.1982 
     37 C          24.6589  -25.6663  -40.7108 C.2       5 UNK         0.5017 
     38 O          25.5444  -24.8882  -41.0687 O.2       5 UNK        -0.5012 
     39 N          24.1846  -26.6494  -41.4891 N.am      6 UNK        -0.4439 
     40 CA         24.6487  -26.9509  -42.8410 C.3       6 UNK         0.0297 
     41 CB         23.6518  -26.3845  -43.8723 C.3       6 UNK        -0.2006 
     42 C          24.8939  -28.4617  -42.9694 C.2       6 UNK         0.4892 
     43 O          25.8932  -28.9513  -42.4419 O.2       6 UNK        -0.5089 
     44 N          24.0081  -29.1651  -43.6884 N.am      7 UNK        -0.4243 
     45 CA         24.1389  -30.5787  -44.0479 C.3       7 UNK         0.0196 
     46 CB         23.0989  -30.9097  -45.1321 C.3       7 UNK        -0.2007 
     47 C          23.9960  -31.5623  -42.8747 C.2       7 UNK         0.5020 
     48 O          24.4399  -32.7036  -43.0065 O.2       7 UNK        -0.5147 
     49 N          23.3388  -31.1429  -41.7834 N.am      8 UNK        -0.4734 
     50 CA         22.9586  -31.9066  -40.5832 C.3       8 UNK         0.0238 
     51 CB         24.1864  -32.4709  -39.8433 C.3       8 UNK        -0.1912 
     52 C          21.8945  -32.9908  -40.8318 C.2       8 UNK         0.5038 
     53 O          20.9506  -33.0938  -40.0485 O.2       8 UNK        -0.5046 
     54 N          22.0414  -33.7428  -41.9279 N.am      9 UNK        -0.4200 
     55 CA         21.0877  -34.7251  -42.4624 C.3       9 UNK         0.0839 
     56 C          20.9151  -36.0204  -41.6126 C.2       9 UNK         0.5513 
     57 N          21.8041  -36.3135  -40.6710 N.am      9 UNK        -0.7519 
     58 O          19.9821  -36.7901  -41.8271 O.2       9 UNK        -0.4960 
     59 C59        19.7379  -34.0595  -42.8742 C.3       10 UNK        -0.0876 
     60 S60        19.2849  -34.4191  -44.6021 S.3       10 UNK        -0.2414 
     61 C61        17.6265  -33.6750  -44.6947 C.3       10 UNK         0.0169 
     62 H62        17.0174  -24.2749  -49.5668 H         1 UNK         0.0903 
     63 H63        16.6778  -25.8041  -48.7544 H         1 UNK         0.0903 
     64 H64        16.0189  -24.2992  -48.1107 H         1 UNK         0.0903 
     65 H65        18.4023  -26.5374  -47.5393 H         1 UNK         0.3096 
     66 H66        20.5910  -24.8188  -46.7838 H         1 UNK         0.1121 
     67 H67        20.6829  -27.3542  -47.5450 H         1 UNK         0.0849 
     68 H68        21.8035  -26.7217  -46.3981 H         1 UNK         0.0849 
     69 H69        18.0832  -28.0735  -46.1051 H         1 UNK         0.0865 
     70 H70        18.9268  -29.3521  -46.9552 H         1 UNK         0.0865 
     71 H71        18.6161  -31.6300  -46.2070 H         1 UNK         0.1346 
     72 H72        16.6909  -32.4257  -42.4589 H         1 UNK         0.1412 
     73 H73        17.5710  -28.3875  -43.6014 H         1 UNK         0.1426 
     74 H74        15.9312  -28.9380  -41.7172 H         1 UNK         0.0716 
     75 H75        15.7757  -30.5870  -41.1827 H         1 UNK         0.0716 
     76 H76        18.4979  -27.3488  -39.8456 H         1 UNK         0.0695 
     77 H77        17.7042  -27.4674  -41.3711 H         1 UNK         0.0695 
     78 H78        19.7471  -28.8319  -42.2299 H         1 UNK         0.0983 
     79 H79        19.9944  -26.9133  -43.2683 H         1 UNK         0.3095 
     80 H80        19.4564  -23.8480  -42.6877 H         1 UNK         0.0454 
     81 H81        21.6401  -22.6478  -43.1365 H         1 UNK         0.0851 
     82 H82        21.3279  -22.9624  -41.4442 H         1 UNK         0.0851 
     83 H83        22.4869  -23.9579  -42.3114 H         1 UNK         0.0851 
     84 H84        21.4698  -24.7340  -44.5661 H         1 UNK         0.2976 
     85 H85        19.9689  -28.0982  -38.9288 H         1 UNK         0.3116 
     86 H86        22.2782  -29.5846  -38.3967 H         1 UNK         0.0646 
     87 H87        20.5229  -29.1122  -36.7204 H         1 UNK         0.0847 
     88 H88        22.0857  -28.5914  -36.1167 H         1 UNK         0.0847 
     89 H89        20.9444  -27.3985  -36.7196 H         1 UNK         0.0847 
     90 H90        22.0533  -26.1955  -39.3195 H         1 UNK         0.3040 
     91 H91        24.8756  -25.6386  -38.5956 H         1 UNK         0.1015 
     92 H92        22.6577  -23.8677  -39.7398 H         1 UNK         0.0786 
     93 H93        24.2699  -23.3175  -39.3039 H         1 UNK         0.0786 
     94 H94        23.1867  -23.9209  -38.0630 H         1 UNK         0.0786 
     95 H95        23.4855  -27.2871  -41.1160 H         1 UNK         0.3172 
     96 H96        25.6165  -26.4788  -43.0224 H         1 UNK         0.0595 
     97 H97        22.6363  -26.7359  -43.6910 H         1 UNK         0.0839 
     98 H98        23.9316  -26.6646  -44.8889 H         1 UNK         0.0839 
     99 H99        23.6440  -25.2960  -43.8407 H         1 UNK         0.0839 
    100 H100       23.1981  -28.6846  -44.0520 H         1 UNK         0.2998 
    101 H101       25.1351  -30.7237  -44.4714 H         1 UNK         0.0822 
    102 H102       23.2076  -31.9387  -45.4779 H         1 UNK         0.0787 
    103 H103       22.0794  -30.8002  -44.7590 H         1 UNK         0.0787 
    104 H104       23.2089  -30.2636  -46.0033 H         1 UNK         0.0787 
    105 H105       22.9938  -30.1844  -41.7880 H         1 UNK         0.3055 
    106 H106       22.4882  -31.1808  -39.9226 H         1 UNK         0.1106 
    107 H107       23.8912  -32.9375  -38.9026 H         1 UNK         0.0828 
    108 H108       24.7091  -33.2275  -40.4286 H         1 UNK         0.0828 
    109 H109       24.8985  -31.6812  -39.6034 H         1 UNK         0.0828 
    110 H110       22.8817  -33.5881  -42.4790 H         1 UNK         0.2931 
    111 H111       21.5844  -35.0771  -43.3672 H         1 UNK         0.0412 
    112 H112       21.6940  -37.1579  -40.1315 H         1 UNK         0.3472 
    113 H113       22.5795  -35.6957  -40.4923 H         1 UNK         0.3472 
    114 H114       18.9205  -34.3504  -42.2117 H         1 UNK         0.0970 
    115 H115       19.8005  -32.9735  -42.7887 H         1 UNK         0.0970 
    116 H116       17.2293  -33.8255  -45.6994 H         1 UNK         0.0612 
    117 H117       16.9588  -34.2117  -44.0189 H         1 UNK         0.0612 
@<TRIPOS>BOND
     1    1    2 1    
     2    1   62 1    
     3    1   63 1    
     4    1   64 1    
     5    2    3 2    
     6    2    4 am   BACKBONE|DICT|INTERRES
     7    4    5 1    
     8    4   65 1    
     9    5    6 1    
    10    5   25 1    
    11    5   66 1    
    12    6    7 1    
    13    6   67 1    
    14    6   68 1    
    15    7    8 1    
    16    8    9 1    
    17    8   69 1    
    18    8   70 1    
    19    9   10 ar   
    20    9   14 ar   
    21   10   11 ar   
    22   10   71 1    
    23   11   12 ar   
    24   11   61 1    
    25   12   13 ar   
    26   12   72 1    
    27   13   14 ar   
    28   13   15 1    
    29   14   73 1    
    30   15   16 1    
    31   15   74 1    
    32   15   75 1    
    33   16   17 1    
    34   17   18 1    
    35   17   76 1    
    36   17   77 1    
    37   18   19 1    
    38   18   27 1    
    39   18   78 1    
    40   19   20 am   BACKBONE|DICT|INTERRES
    41   19   79 1    
    42   20   21 2    
    43   20   22 1    
    44   22   23 1    
    45   22   24 1    
    46   22   80 1    
    47   23   81 1    
    48   23   82 1    
    49   23   83 1    
    50   24   25 am   BACKBONE|DICT|INTERRES
    51   24   84 1    
    52   25   26 2    
    53   27   28 2    
    54   27   29 am   BACKBONE|DICT|INTERRES
    55   29   30 1    
    56   29   85 1    
    57   30   31 1    
    58   30   32 1    
    59   30   86 1    
    60   31   87 1    
    61   31   88 1    
    62   31   89 1    
    63   32   33 2    
    64   32   34 am   BACKBONE|DICT|INTERRES
    65   34   35 1    
    66   34   90 1    
    67   35   36 1    
    68   35   37 1    
    69   35   91 1    
    70   36   92 1    
    71   36   93 1    
    72   36   94 1    
    73   37   38 2    
    74   37   39 am   BACKBONE|DICT|INTERRES
    75   39   40 1    
    76   39   95 1    
    77   40   41 1    
    78   40   42 1    
    79   40   96 1    
    80   41   97 1    
    81   41   98 1    
    82   41   99 1    
    83   42   43 2    
    84   42   44 am   BACKBONE|DICT|INTERRES
    85   44   45 1    
    86   44  100 1    
    87   45   46 1    
    88   45   47 1    
    89   45  101 1    
    90   46  102 1    
    91   46  103 1    
    92   46  104 1    
    93   47   48 2    
    94   47   49 am   BACKBONE|DICT|INTERRES
    95   49   50 1    
    96   49  105 1    
    97   50   51 1    
    98   50   52 1    
    99   50  106 1    
   100   51  107 1    
   101   51  108 1    
   102   51  109 1    
   103   52   53 2    
   104   52   54 am   BACKBONE|DICT|INTERRES
   105   54   55 1    
   106   54  110 1    
   107   55   56 1    
   108   55   59 1    
   109   55  111 1    
   110   56   57 am   BACKBONE|DICT|INTERRES
   111   56   58 2    
   112   57  112 1    
   113   57  113 1    
   114   59   60 1    
   115   59  114 1    
   116   59  115 1    
   117   60   61 1    
   118   61  116 1    
   119   61  117 1    
@<TRIPOS>SUBSTRUCTURE
     1 UNK         1 GROUP             0       ****    0 ROOT    
