@<TRIPOS>MOLECULE
3R8
117   119    1
SMALL
USER_CHARGES


@<TRIPOS>ATOM
      1 CA         19.7353  -22.0783  -46.8608 C.3       0 UNK        -0.2013 
      2 C          20.0686  -22.9148  -45.6346 C.2       0 UNK         0.4866 
      3 O          20.3157  -22.3600  -44.5640 O.2       0 UNK        -0.5176 
      4 N          20.0789  -24.2461  -45.7833 N.am      1 UNK        -0.4884 
      5 CA         20.3963  -25.2060  -44.7179 C.3       1 UNK         0.0853 
      6 C6         20.5618  -26.6461  -45.2642 C.3       10 UNK        -0.0849 
      7 S7         21.8056  -26.8398  -46.5820 S.3       10 UNK        -0.2776 
      8 C8         21.0635  -28.1838  -47.5819 C.3       10 UNK         0.0316 
      9 C9         20.5410  -29.3422  -46.7339 C.ar      10 UNK        -0.0863 
     10 C10        21.3935  -30.0088  -45.8501 C.ar      10 UNK        -0.1009 
     11 C11        20.9070  -31.0183  -45.0155 C.ar      10 UNK        -0.0712 
     12 C12        19.5643  -31.3963  -45.0998 C.ar      10 UNK        -0.0894 
     13 C13        18.6999  -30.7419  -45.9826 C.ar      10 UNK        -0.0745 
     14 C14        19.1952  -29.7207  -46.8015 C.ar      10 UNK        -0.0972 
     15 C15        17.2252  -31.1180  -46.0317 C.3       10 UNK         0.0209 
     16 S16        16.1695  -29.8494  -45.2554 S.3       10 UNK        -0.2568 
     17 C17        16.5807  -30.0152  -43.4816 C.3       10 UNK        -0.0983 
     18 CA         17.7159  -29.0549  -43.0349 C.3       3 UNK         0.0876 
     19 N          17.4655  -27.6528  -43.3778 N.am      3 UNK        -0.4424 
     20 C          16.6695  -26.7642  -42.7652 C.2       2 UNK         0.4918 
     21 O          15.8702  -27.0529  -41.8743 O.2       2 UNK        -0.4875 
     22 CA         16.8305  -25.2876  -43.2071 C.3       2 UNK         0.0481 
     23 CB         16.7473  -24.3208  -42.0076 C.3       2 UNK        -0.1831 
     24 N          18.0523  -25.0287  -43.9934 N.am      2 UNK        -0.4498 
     25 C          19.3220  -25.2590  -43.6138 C.2       1 UNK         0.5027 
     26 O          19.6343  -25.6433  -42.4861 O.2       1 UNK        -0.4969 
     27 C          18.1424  -29.2351  -41.5587 C.2       3 UNK         0.5005 
     28 O          17.6891  -30.1737  -40.9003 O.2       3 UNK        -0.5279 
     29 N          18.9948  -28.3243  -41.0609 N.am      4 UNK        -0.4463 
     30 CA         19.4910  -28.3258  -39.6825 C.3       4 UNK         0.0283 
     31 CB         18.4533  -27.6824  -38.7444 C.3       4 UNK        -0.1875 
     32 C          20.8528  -27.6319  -39.5355 C.2       4 UNK         0.4949 
     33 O          21.6694  -28.0850  -38.7345 O.2       4 UNK        -0.5039 
     34 N          21.0919  -26.5499  -40.2883 N.am      5 UNK        -0.4663 
     35 CA         22.3259  -25.7620  -40.2514 C.3       5 UNK         0.0242 
     36 CB         21.9668  -24.2689  -40.3814 C.3       5 UNK        -0.1982 
     37 C          23.3016  -26.2356  -41.3423 C.2       5 UNK         0.5017 
     38 O          23.7322  -25.4380  -42.1774 O.2       5 UNK        -0.5012 
     39 N          23.6236  -27.5322  -41.3217 N.am      6 UNK        -0.4439 
     40 CA         24.5455  -28.2060  -42.2306 C.3       6 UNK         0.0297 
     41 CB         23.8953  -28.3861  -43.6168 C.3       6 UNK        -0.2006 
     42 C          24.9757  -29.5400  -41.6026 C.2       6 UNK         0.4892 
     43 O          24.4396  -29.9322  -40.5616 O.2       6 UNK        -0.5089 
     44 N          25.9608  -30.1964  -42.2292 N.am      7 UNK        -0.4243 
     45 CA         26.5405  -31.4665  -41.7843 C.3       7 UNK         0.0196 
     46 CB         27.7256  -31.8253  -42.6953 C.3       7 UNK        -0.2007 
     47 C          25.5171  -32.6147  -41.7626 C.2       7 UNK         0.5020 
     48 O          24.6619  -32.6912  -42.6457 O.2       7 UNK        -0.5147 
     49 N          25.6431  -33.4926  -40.7593 N.am      8 UNK        -0.4734 
     50 CA         24.8155  -34.6711  -40.4574 C.3       8 UNK         0.0238 
     51 CB         24.8010  -35.6813  -41.6225 C.3       8 UNK        -0.1912 
     52 C          23.3879  -34.3460  -39.9808 C.2       8 UNK         0.5038 
     53 O          22.9551  -34.9183  -38.9794 O.2       8 UNK        -0.5046 
     54 N          22.6852  -33.4504  -40.6838 N.am      9 UNK        -0.4200 
     55 CA         21.3447  -32.9694  -40.3162 C.3       9 UNK         0.0839 
     56 C          21.3224  -32.0176  -39.0863 C.2       9 UNK         0.5513 
     57 N          22.3728  -31.2492  -38.8265 N.am      9 UNK        -0.7519 
     58 O          20.3398  -31.9899  -38.3501 O.2       9 UNK        -0.4960 
     59 C59        20.5835  -32.3701  -41.5268 C.3       10 UNK        -0.0876 
     60 S60        21.4784  -30.9947  -42.3288 S.3       10 UNK        -0.2414 
     61 C61        21.8235  -31.6599  -43.9884 C.3       10 UNK         0.0169 
     62 H62        18.8528  -21.4682  -46.6702 H         1 UNK         0.0903 
     63 H63        20.5651  -21.4126  -47.0970 H         1 UNK         0.0903 
     64 H64        19.5376  -22.6968  -47.7361 H         1 UNK         0.0903 
     65 H65        19.9084  -24.6467  -46.6954 H         1 UNK         0.3096 
     66 H66        21.3339  -24.8988  -44.2476 H         1 UNK         0.1121 
     67 H67        19.6058  -27.0044  -45.6505 H         1 UNK         0.0849 
     68 H68        20.8422  -27.3304  -44.4596 H         1 UNK         0.0849 
     69 H69        20.2624  -27.7618  -48.1905 H         1 UNK         0.0865 
     70 H70        21.8113  -28.5613  -48.2805 H         1 UNK         0.0865 
     71 H71        22.4303  -29.7091  -45.7862 H         1 UNK         0.1346 
     72 H72        19.1863  -32.1726  -44.4488 H         1 UNK         0.1412 
     73 H73        18.5214  -29.2061  -47.4734 H         1 UNK         0.1426 
     74 H74        17.0494  -32.0821  -45.5519 H         1 UNK         0.0716 
     75 H75        16.9220  -31.2371  -47.0728 H         1 UNK         0.0716 
     76 H76        16.8513  -31.0533  -43.2805 H         1 UNK         0.0695 
     77 H77        15.6752  -29.8186  -42.9051 H         1 UNK         0.0695 
     78 H78        18.6078  -29.3251  -43.5989 H         1 UNK         0.0983 
     79 H79        18.0294  -27.2971  -44.1323 H         1 UNK         0.3095 
     80 H80        15.9900  -25.0733  -43.8684 H         1 UNK         0.0454 
     81 H81        17.5158  -24.5304  -41.2629 H         1 UNK         0.0851 
     82 H82        15.7819  -24.3995  -41.5064 H         1 UNK         0.0851 
     83 H83        16.8618  -23.2844  -42.3245 H         1 UNK         0.0851 
     84 H84        17.9027  -24.7267  -44.9468 H         1 UNK         0.2976 
     85 H85        19.3129  -27.5723  -41.6604 H         1 UNK         0.3116 
     86 H86        19.6399  -29.3621  -39.3712 H         1 UNK         0.0646 
     87 H87        17.5183  -28.2426  -38.7414 H         1 UNK         0.0847 
     88 H88        18.2274  -26.6569  -39.0392 H         1 UNK         0.0847 
     89 H89        18.8172  -27.6569  -37.7164 H         1 UNK         0.0847 
     90 H90        20.4020  -26.2274  -40.9628 H         1 UNK         0.3040 
     91 H91        22.8284  -25.8955  -39.2907 H         1 UNK         0.1015 
     92 H92        21.4978  -24.0451  -41.3402 H         1 UNK         0.0786 
     93 H93        22.8579  -23.6450  -40.3014 H         1 UNK         0.0786 
     94 H94        21.2819  -23.9563  -39.5932 H         1 UNK         0.0786 
     95 H95        23.2610  -28.1276  -40.5830 H         1 UNK         0.3172 
     96 H96        25.4437  -27.5938  -42.3336 H         1 UNK         0.0595 
     97 H97        22.9108  -28.8427  -43.5383 H         1 UNK         0.0839 
     98 H98        24.4989  -29.0130  -44.2733 H         1 UNK         0.0839 
     99 H99        23.7686  -27.4278  -44.1205 H         1 UNK         0.0839 
    100 H100       26.3275  -29.8129  -43.0877 H         1 UNK         0.2998 
    101 H101       26.9155  -31.3140  -40.7700 H         1 UNK         0.0822 
    102 H102       28.4916  -31.0498  -42.6773 H         1 UNK         0.0787 
    103 H103       28.1994  -32.7539  -42.3738 H         1 UNK         0.0787 
    104 H104       27.4095  -31.9633  -43.7304 H         1 UNK         0.0787 
    105 H105       26.3753  -33.3162  -40.0841 H         1 UNK         0.3055 
    106 H106       25.3099  -35.1624  -39.6172 H         1 UNK         0.1106 
    107 H107       24.2903  -35.2891  -42.5023 H         1 UNK         0.0828 
    108 H108       24.2837  -36.5972  -41.3338 H         1 UNK         0.0828 
    109 H109       25.8121  -35.9604  -41.9183 H         1 UNK         0.0828 
    110 H110       23.1311  -33.0072  -41.4818 H         1 UNK         0.2931 
    111 H111       20.7740  -33.8498  -40.0130 H         1 UNK         0.0412 
    112 H112       23.1393  -31.1747  -39.4843 H         1 UNK         0.3472 
    113 H113       22.3304  -30.6124  -38.0469 H         1 UNK         0.3472 
    114 H114       19.6008  -32.0114  -41.2178 H         1 UNK         0.0970 
    115 H115       20.3818  -33.1577  -42.2529 H         1 UNK         0.0970 
    116 H116       22.8656  -31.4481  -44.2314 H         1 UNK         0.0612 
    117 H117       21.7251  -32.7455  -44.0129 H         1 UNK         0.0612 
@<TRIPOS>BOND
     1    1    2 1    
     2    1   62 1    
     3    1   63 1    
     4    1   64 1    
     5    2    3 2    
     6    2    4 am   BACKBONE|DICT|INTERRES
     7    4    5 1    
     8    4   65 1    
     9    5    6 1    
    10    5   25 1    
    11    5   66 1    
    12    6    7 1    
    13    6   67 1    
    14    6   68 1    
    15    7    8 1    
    16    8    9 1    
    17    8   69 1    
    18    8   70 1    
    19    9   10 ar   
    20    9   14 ar   
    21   10   11 ar   
    22   10   71 1    
    23   11   12 ar   
    24   11   61 1    
    25   12   13 ar   
    26   12   72 1    
    27   13   14 ar   
    28   13   15 1    
    29   14   73 1    
    30   15   16 1    
    31   15   74 1    
    32   15   75 1    
    33   16   17 1    
    34   17   18 1    
    35   17   76 1    
    36   17   77 1    
    37   18   19 1    
    38   18   27 1    
    39   18   78 1    
    40   19   20 am   BACKBONE|DICT|INTERRES
    41   19   79 1    
    42   20   21 2    
    43   20   22 1    
    44   22   23 1    
    45   22   24 1    
    46   22   80 1    
    47   23   81 1    
    48   23   82 1    
    49   23   83 1    
    50   24   25 am   BACKBONE|DICT|INTERRES
    51   24   84 1    
    52   25   26 2    
    53   27   28 2    
    54   27   29 am   BACKBONE|DICT|INTERRES
    55   29   30 1    
    56   29   85 1    
    57   30   31 1    
    58   30   32 1    
    59   30   86 1    
    60   31   87 1    
    61   31   88 1    
    62   31   89 1    
    63   32   33 2    
    64   32   34 am   BACKBONE|DICT|INTERRES
    65   34   35 1    
    66   34   90 1    
    67   35   36 1    
    68   35   37 1    
    69   35   91 1    
    70   36   92 1    
    71   36   93 1    
    72   36   94 1    
    73   37   38 2    
    74   37   39 am   BACKBONE|DICT|INTERRES
    75   39   40 1    
    76   39   95 1    
    77   40   41 1    
    78   40   42 1    
    79   40   96 1    
    80   41   97 1    
    81   41   98 1    
    82   41   99 1    
    83   42   43 2    
    84   42   44 am   BACKBONE|DICT|INTERRES
    85   44   45 1    
    86   44  100 1    
    87   45   46 1    
    88   45   47 1    
    89   45  101 1    
    90   46  102 1    
    91   46  103 1    
    92   46  104 1    
    93   47   48 2    
    94   47   49 am   BACKBONE|DICT|INTERRES
    95   49   50 1    
    96   49  105 1    
    97   50   51 1    
    98   50   52 1    
    99   50  106 1    
   100   51  107 1    
   101   51  108 1    
   102   51  109 1    
   103   52   53 2    
   104   52   54 am   BACKBONE|DICT|INTERRES
   105   54   55 1    
   106   54  110 1    
   107   55   56 1    
   108   55   59 1    
   109   55  111 1    
   110   56   57 am   BACKBONE|DICT|INTERRES
   111   56   58 2    
   112   57  112 1    
   113   57  113 1    
   114   59   60 1    
   115   59  114 1    
   116   59  115 1    
   117   60   61 1    
   118   61  116 1    
   119   61  117 1    
@<TRIPOS>SUBSTRUCTURE
     1 UNK         1 GROUP             0       ****    0 ROOT    
