@<TRIPOS>MOLECULE
3R8
117   119    1
SMALL
USER_CHARGES


@<TRIPOS>ATOM
      1 CA         21.4080  -22.6179  -47.9707 C.3       0 UNK        -0.2013 
      2 C          21.4475  -23.3275  -46.6257 C.2       0 UNK         0.4866 
      3 O          21.5996  -22.6743  -45.5934 O.2       0 UNK        -0.5176 
      4 N          21.3161  -24.6603  -46.6307 N.am      1 UNK        -0.4884 
      5 CA         21.2877  -25.5121  -45.4349 C.3       1 UNK         0.0853 
      6 C6         21.4735  -27.0129  -45.7860 C.3       10 UNK        -0.0849 
      7 S7         20.3586  -27.6182  -47.1013 S.3       10 UNK        -0.2776 
      8 C8         20.7144  -29.4044  -47.0795 C.3       10 UNK         0.0316 
      9 C9         20.0207  -30.1140  -45.9249 C.ar      10 UNK        -0.0863 
     10 C10        20.7640  -30.6640  -44.8748 C.ar      10 UNK        -0.1009 
     11 C11        20.1205  -31.3440  -43.8358 C.ar      10 UNK        -0.0712 
     12 C12        18.7288  -31.4664  -43.8457 C.ar      10 UNK        -0.0894 
     13 C13        17.9756  -30.9035  -44.8780 C.ar      10 UNK        -0.0745 
     14 C14        18.6280  -30.2419  -45.9226 C.ar      10 UNK        -0.0972 
     15 C15        16.4575  -30.9921  -44.8528 C.3       10 UNK         0.0209 
     16 S16        15.6942  -29.3661  -44.5540 S.3       10 UNK        -0.2568 
     17 C17        16.2167  -28.9827  -42.8425 C.3       10 UNK        -0.0983 
     18 CA         17.5701  -28.2180  -42.7376 C.3       3 UNK         0.0876 
     19 N          17.7029  -27.1132  -43.6959 N.am      3 UNK        -0.4424 
     20 C          17.0241  -25.9571  -43.7123 C.2       2 UNK         0.4918 
     21 O          16.0639  -25.7166  -42.9792 O.2       2 UNK        -0.4875 
     22 CA         17.5309  -24.8651  -44.6830 C.3       2 UNK         0.0481 
     23 CB         17.4718  -23.4647  -44.0385 C.3       2 UNK        -0.1831 
     24 N          18.8739  -25.1002  -45.2412 N.am      2 UNK        -0.4498 
     25 C          20.0267  -25.2896  -44.5755 C.2       1 UNK         0.5027 
     26 O          20.1145  -25.3309  -43.3468 O.2       1 UNK        -0.4969 
     27 C          17.8968  -27.7876  -41.2828 C.2       3 UNK         0.5005 
     28 O          17.4442  -28.4343  -40.3360 O.2       3 UNK        -0.5279 
     29 N          18.6582  -26.6948  -41.1175 N.am      4 UNK        -0.4463 
     30 CA         18.8582  -25.9881  -39.8534 C.3       4 UNK         0.0283 
     31 CB         18.6936  -24.4782  -40.1130 C.3       4 UNK        -0.1875 
     32 C          20.2215  -26.3357  -39.2388 C.2       4 UNK         0.4949 
     33 O          21.0756  -25.4582  -39.1030 O.2       4 UNK        -0.5039 
     34 N          20.3952  -27.6171  -38.8803 N.am      5 UNK        -0.4663 
     35 CA         21.5889  -28.1991  -38.2429 C.3       5 UNK         0.0242 
     36 CB         21.7423  -27.6781  -36.7977 C.3       5 UNK        -0.1982 
     37 C          22.8705  -28.0224  -39.0852 C.2       5 UNK         0.5017 
     38 O          23.9310  -27.6868  -38.5533 O.2       5 UNK        -0.5012 
     39 N          22.7253  -28.2388  -40.3964 N.am      6 UNK        -0.4439 
     40 CA         23.7822  -28.1830  -41.4026 C.3       6 UNK         0.0297 
     41 CB         23.1174  -27.9060  -42.7630 C.3       6 UNK        -0.2006 
     42 C          24.6144  -29.4799  -41.4321 C.2       6 UNK         0.4892 
     43 O          24.4342  -30.3659  -40.5920 O.2       6 UNK        -0.5089 
     44 N          25.5160  -29.5762  -42.4187 N.am      7 UNK        -0.4243 
     45 CA         26.3191  -30.7678  -42.6982 C.3       7 UNK         0.0196 
     46 CB         27.2615  -30.4836  -43.8791 C.3       7 UNK        -0.2007 
     47 C          25.4341  -31.9925  -42.9911 C.2       7 UNK         0.5020 
     48 O          24.5156  -31.8966  -43.8066 O.2       7 UNK        -0.5147 
     49 N          25.7337  -33.1029  -42.3056 N.am      8 UNK        -0.4734 
     50 CA         25.0373  -34.3966  -42.3347 C.3       8 UNK         0.0238 
     51 CB         24.9915  -34.9869  -43.7615 C.3       8 UNK        -0.1912 
     52 C          23.6523  -34.4134  -41.6530 C.2       8 UNK         0.5038 
     53 O          22.9835  -35.4466  -41.7185 O.2       8 UNK        -0.5046 
     54 N          23.2461  -33.3230  -40.9844 N.am      9 UNK        -0.4200 
     55 CA         22.0563  -33.3017  -40.1174 C.3       9 UNK         0.0839 
     56 C          22.3217  -34.0513  -38.7819 C.2       9 UNK         0.5513 
     57 N          21.2964  -34.6558  -38.1974 N.am      9 UNK        -0.7519 
     58 O          23.4315  -34.0571  -38.2523 O.2       9 UNK        -0.4960 
     59 C59        21.5473  -31.8611  -39.8361 C.3       10 UNK        -0.0876 
     60 S60        20.8599  -30.8831  -41.2281 S.3       10 UNK        -0.2414 
     61 C61        20.9158  -31.9559  -42.6971 C.3       10 UNK         0.0169 
     62 H62        22.3367  -22.0719  -48.1343 H         1 UNK         0.0903 
     63 H63        21.2753  -23.3161  -48.7970 H         1 UNK         0.0903 
     64 H64        20.5845  -21.9046  -47.9941 H         1 UNK         0.0903 
     65 H65        21.1985  -25.1500  -47.5077 H         1 UNK         0.3096 
     66 H66        22.1328  -25.2163  -44.8085 H         1 UNK         0.1121 
     67 H67        22.5005  -27.1817  -46.1140 H         1 UNK         0.0849 
     68 H68        21.3385  -27.6377  -44.9023 H         1 UNK         0.0849 
     69 H69        20.3711  -29.8411  -48.0185 H         1 UNK         0.0865 
     70 H70        21.7936  -29.5633  -47.0489 H         1 UNK         0.0865 
     71 H71        21.8424  -30.5745  -44.8680 H         1 UNK         0.1346 
     72 H72        18.2328  -31.9813  -43.0340 H         1 UNK         0.1412 
     73 H73        18.0479  -29.8088  -46.7265 H         1 UNK         0.1426 
     74 H74        16.1056  -31.3768  -45.8110 H         1 UNK         0.0716 
     75 H75        16.1152  -31.6978  -44.0942 H         1 UNK         0.0716 
     76 H76        16.2606  -29.9127  -42.2728 H         1 UNK         0.0695 
     77 H77        15.4189  -28.3913  -42.3897 H         1 UNK         0.0695 
     78 H78        18.3668  -28.9131  -42.9970 H         1 UNK         0.0983 
     79 H79        18.4499  -27.2154  -44.3667 H         1 UNK         0.3095 
     80 H80        16.8444  -24.8722  -45.5306 H         1 UNK         0.0454 
     81 H81        17.8045  -22.6937  -44.7332 H         1 UNK         0.0851 
     82 H82        18.0976  -23.4044  -43.1475 H         1 UNK         0.0851 
     83 H83        16.4546  -23.2095  -43.7390 H         1 UNK         0.0851 
     84 H84        18.9249  -25.1250  -46.2507 H         1 UNK         0.2976 
     85 H85        19.0644  -26.2520  -41.9379 H         1 UNK         0.3116 
     86 H86        18.0925  -26.2799  -39.1314 H         1 UNK         0.0646 
     87 H87        19.4316  -24.1075  -40.8260 H         1 UNK         0.0847 
     88 H88        17.7038  -24.2511  -40.5097 H         1 UNK         0.0847 
     89 H89        18.8122  -23.9067  -39.1916 H         1 UNK         0.0847 
     90 H90        19.6303  -28.2560  -39.0600 H         1 UNK         0.3040 
     91 H91        21.4138  -29.2740  -38.1830 H         1 UNK         0.1015 
     92 H92        21.9671  -26.6113  -36.7728 H         1 UNK         0.0786 
     93 H93        22.5532  -28.1928  -36.2807 H         1 UNK         0.0786 
     94 H94        20.8343  -27.8433  -36.2177 H         1 UNK         0.0786 
     95 H95        21.8263  -28.5694  -40.7167 H         1 UNK         0.3172 
     96 H96        24.4533  -27.3554  -41.1641 H         1 UNK         0.0595 
     97 H97        22.5111  -28.7529  -43.0882 H         1 UNK         0.0839 
     98 H98        23.8543  -27.7104  -43.5422 H         1 UNK         0.0839 
     99 H99        22.4703  -27.0296  -42.7125 H         1 UNK         0.0839 
    100 H100       25.5952  -28.8167  -43.0781 H         1 UNK         0.2998 
    101 H101       26.9266  -30.9678  -41.8129 H         1 UNK         0.0822 
    102 H102       27.8876  -31.3505  -44.0950 H         1 UNK         0.0787 
    103 H103       26.7077  -30.2478  -44.7890 H         1 UNK         0.0787 
    104 H104       27.9288  -29.6486  -43.6646 H         1 UNK         0.0787 
    105 H105       26.5033  -33.0530  -41.6508 H         1 UNK         0.3055 
    106 H106       25.6531  -35.0681  -41.7339 H         1 UNK         0.1106 
    107 H107       25.9769  -34.9814  -44.2271 H         1 UNK         0.0828 
    108 H108       24.6499  -36.0226  -43.7451 H         1 UNK         0.0828 
    109 H109       24.3092  -34.4360  -44.4093 H         1 UNK         0.0828 
    110 H110       23.8399  -32.5035  -40.9524 H         1 UNK         0.2931 
    111 H111       21.2570  -33.8474  -40.6201 H         1 UNK         0.0412 
    112 H112       20.3795  -34.6536  -38.6175 H         1 UNK         0.3472 
    113 H113       21.4439  -35.1354  -37.3227 H         1 UNK         0.3472 
    114 H114       20.7524  -31.8957  -39.0884 H         1 UNK         0.0970 
    115 H115       22.3433  -31.2759  -39.3748 H         1 UNK         0.0970 
    116 H116       21.9508  -32.1084  -43.0018 H         1 UNK         0.0612 
    117 H117       20.4983  -32.9366  -42.4714 H         1 UNK         0.0612 
@<TRIPOS>BOND
     1    1    2 1    
     2    1   62 1    
     3    1   63 1    
     4    1   64 1    
     5    2    3 2    
     6    2    4 am   BACKBONE|DICT|INTERRES
     7    4    5 1    
     8    4   65 1    
     9    5    6 1    
    10    5   25 1    
    11    5   66 1    
    12    6    7 1    
    13    6   67 1    
    14    6   68 1    
    15    7    8 1    
    16    8    9 1    
    17    8   69 1    
    18    8   70 1    
    19    9   10 ar   
    20    9   14 ar   
    21   10   11 ar   
    22   10   71 1    
    23   11   12 ar   
    24   11   61 1    
    25   12   13 ar   
    26   12   72 1    
    27   13   14 ar   
    28   13   15 1    
    29   14   73 1    
    30   15   16 1    
    31   15   74 1    
    32   15   75 1    
    33   16   17 1    
    34   17   18 1    
    35   17   76 1    
    36   17   77 1    
    37   18   19 1    
    38   18   27 1    
    39   18   78 1    
    40   19   20 am   BACKBONE|DICT|INTERRES
    41   19   79 1    
    42   20   21 2    
    43   20   22 1    
    44   22   23 1    
    45   22   24 1    
    46   22   80 1    
    47   23   81 1    
    48   23   82 1    
    49   23   83 1    
    50   24   25 am   BACKBONE|DICT|INTERRES
    51   24   84 1    
    52   25   26 2    
    53   27   28 2    
    54   27   29 am   BACKBONE|DICT|INTERRES
    55   29   30 1    
    56   29   85 1    
    57   30   31 1    
    58   30   32 1    
    59   30   86 1    
    60   31   87 1    
    61   31   88 1    
    62   31   89 1    
    63   32   33 2    
    64   32   34 am   BACKBONE|DICT|INTERRES
    65   34   35 1    
    66   34   90 1    
    67   35   36 1    
    68   35   37 1    
    69   35   91 1    
    70   36   92 1    
    71   36   93 1    
    72   36   94 1    
    73   37   38 2    
    74   37   39 am   BACKBONE|DICT|INTERRES
    75   39   40 1    
    76   39   95 1    
    77   40   41 1    
    78   40   42 1    
    79   40   96 1    
    80   41   97 1    
    81   41   98 1    
    82   41   99 1    
    83   42   43 2    
    84   42   44 am   BACKBONE|DICT|INTERRES
    85   44   45 1    
    86   44  100 1    
    87   45   46 1    
    88   45   47 1    
    89   45  101 1    
    90   46  102 1    
    91   46  103 1    
    92   46  104 1    
    93   47   48 2    
    94   47   49 am   BACKBONE|DICT|INTERRES
    95   49   50 1    
    96   49  105 1    
    97   50   51 1    
    98   50   52 1    
    99   50  106 1    
   100   51  107 1    
   101   51  108 1    
   102   51  109 1    
   103   52   53 2    
   104   52   54 am   BACKBONE|DICT|INTERRES
   105   54   55 1    
   106   54  110 1    
   107   55   56 1    
   108   55   59 1    
   109   55  111 1    
   110   56   57 am   BACKBONE|DICT|INTERRES
   111   56   58 2    
   112   57  112 1    
   113   57  113 1    
   114   59   60 1    
   115   59  114 1    
   116   59  115 1    
   117   60   61 1    
   118   61  116 1    
   119   61  117 1    
@<TRIPOS>SUBSTRUCTURE
     1 UNK         1 GROUP             0       ****    0 ROOT    
