@<TRIPOS>MOLECULE
3R8
117   119    1
SMALL
USER_CHARGES


@<TRIPOS>ATOM
      1 CA         16.1465  -29.4888  -41.5362 C.3       0 UNK        -0.2013 
      2 C          15.9285  -28.1149  -42.1507 C.2       0 UNK         0.4866 
      3 O          14.9364  -27.4568  -41.8366 O.2       0 UNK        -0.5176 
      4 N          16.8494  -27.6736  -43.0141 N.am      1 UNK        -0.4884 
      5 CA         16.8636  -26.3363  -43.6058 C.3       1 UNK         0.0853 
      6 C6         15.8866  -26.1668  -44.8079 C.3       10 UNK        -0.0849 
      7 S7         16.3987  -26.8476  -46.4252 S.3       10 UNK        -0.2776 
      8 C8         15.8822  -28.5923  -46.3295 C.3       10 UNK         0.0316 
      9 C9         17.0724  -29.5136  -46.0991 C.ar      10 UNK        -0.0863 
     10 C10        17.1130  -30.3633  -44.9892 C.ar      10 UNK        -0.1009 
     11 C11        18.2080  -31.2079  -44.7819 C.ar      10 UNK        -0.0712 
     12 C12        19.2574  -31.2121  -45.7040 C.ar      10 UNK        -0.0894 
     13 C13        19.2351  -30.3580  -46.8105 C.ar      10 UNK        -0.0745 
     14 C14        18.1334  -29.5242  -47.0108 C.ar      10 UNK        -0.0972 
     15 C15        20.4134  -30.3145  -47.7737 C.3       10 UNK         0.0209 
     16 S16        21.4201  -28.8077  -47.5582 S.3       10 UNK        -0.2568 
     17 C17        22.0008  -28.9958  -45.8374 C.3       10 UNK        -0.0983 
     18 CA         22.2232  -27.6577  -45.0900 C.3       3 UNK         0.0876 
     19 N          21.1079  -26.7159  -45.2424 N.am      3 UNK        -0.4424 
     20 C          21.1994  -25.4024  -44.9945 C.2       2 UNK         0.4918 
     21 O          22.2330  -24.8541  -44.6100 O.2       2 UNK        -0.4875 
     22 CA         19.9304  -24.5482  -45.1873 C.3       2 UNK         0.0481 
     23 CB         19.8913  -23.9792  -46.6144 C.3       2 UNK        -0.1831 
     24 N          18.6497  -25.2095  -44.9007 N.am      2 UNK        -0.4498 
     25 C          18.3271  -25.8880  -43.7911 C.2       1 UNK         0.5027 
     26 O          19.1401  -26.1548  -42.9053 O.2       1 UNK        -0.4969 
     27 C          22.5518  -27.9660  -43.6143 C.2       3 UNK         0.5005 
     28 O          23.6612  -28.4291  -43.3431 O.2       3 UNK        -0.5279 
     29 N          21.6019  -27.7461  -42.6876 N.am      4 UNK        -0.4463 
     30 CA         21.6693  -28.1759  -41.2834 C.3       4 UNK         0.0283 
     31 CB         20.3443  -27.8668  -40.5714 C.3       4 UNK        -0.1875 
     32 C          22.8517  -27.6098  -40.4811 C.2       4 UNK         0.4949 
     33 O          23.2397  -28.2233  -39.4890 O.2       4 UNK        -0.5039 
     34 N          23.4403  -26.4987  -40.9436 N.am      5 UNK        -0.4663 
     35 CA         24.6882  -25.9359  -40.4196 C.3       5 UNK         0.0242 
     36 CB         24.9550  -24.5861  -41.1048 C.3       5 UNK        -0.1982 
     37 C          25.9048  -26.8713  -40.5784 C.2       5 UNK         0.5017 
     38 O          26.8431  -26.7637  -39.7879 O.2       5 UNK        -0.5012 
     39 N          25.8647  -27.7646  -41.5774 N.am      6 UNK        -0.4439 
     40 CA         26.8742  -28.7934  -41.8302 C.3       6 UNK         0.0297 
     41 CB         27.3911  -28.6514  -43.2716 C.3       6 UNK        -0.2006 
     42 C          26.3075  -30.2037  -41.6030 C.2       6 UNK         0.4892 
     43 O          27.0031  -31.0444  -41.0328 O.2       6 UNK        -0.5089 
     44 N          25.0710  -30.4476  -42.0611 N.am      7 UNK        -0.4243 
     45 CA         24.4124  -31.7560  -42.0301 C.3       7 UNK         0.0196 
     46 CB         23.2603  -31.7615  -43.0500 C.3       7 UNK        -0.2007 
     47 C          23.8979  -32.1725  -40.6420 C.2       7 UNK         0.5020 
     48 O          23.7157  -33.3687  -40.4165 O.2       7 UNK        -0.5147 
     49 N          23.6429  -31.1972  -39.7543 N.am      8 UNK        -0.4734 
     50 CA         23.0952  -31.3506  -38.3955 C.3       8 UNK         0.0238 
     51 CB         24.0819  -32.1191  -37.4901 C.3       8 UNK        -0.1912 
     52 C          21.6681  -31.9402  -38.3465 C.2       8 UNK         0.5038 
     53 O          21.2542  -32.4390  -37.2985 O.2       8 UNK        -0.5046 
     54 N          20.9397  -31.8701  -39.4683 N.am      9 UNK        -0.4200 
     55 CA         19.5846  -32.4136  -39.6438 C.3       9 UNK         0.0839 
     56 C          18.4318  -31.5251  -39.0902 C.2       9 UNK         0.5513 
     57 N          18.7043  -30.3592  -38.5175 N.am      9 UNK        -0.7519 
     58 O          17.2684  -31.9112  -39.1660 O.2       9 UNK        -0.4960 
     59 C59        19.3513  -32.8686  -41.1082 C.3       10 UNK        -0.0876 
     60 S60        19.4746  -31.5277  -42.3429 S.3       10 UNK        -0.2414 
     61 C61        18.2657  -32.1212  -43.5681 C.3       10 UNK         0.0169 
     62 H62        16.0552  -29.4352  -40.4517 H         1 UNK         0.0903 
     63 H63        15.4021  -30.1933  -41.9053 H         1 UNK         0.0903 
     64 H64        17.1355  -29.8811  -41.7653 H         1 UNK         0.0903 
     65 H65        17.6657  -28.2343  -43.2177 H         1 UNK         0.3096 
     66 H66        16.5018  -25.6543  -42.8323 H         1 UNK         0.1121 
     67 H67        15.7060  -25.1017  -44.9626 H         1 UNK         0.0849 
     68 H68        14.9072  -26.5725  -44.5501 H         1 UNK         0.0849 
     69 H69        15.1260  -28.7210  -45.5537 H         1 UNK         0.0865 
     70 H70        15.4042  -28.8686  -47.2703 H         1 UNK         0.0865 
     71 H71        16.2911  -30.3688  -44.2879 H         1 UNK         0.1346 
     72 H72        20.1076  -31.8602  -45.5391 H         1 UNK         0.1412 
     73 H73        18.1127  -28.8634  -47.8671 H         1 UNK         0.1426 
     74 H74        21.0505  -31.1912  -47.6466 H         1 UNK         0.0716 
     75 H75        20.0441  -30.3503  -48.7995 H         1 UNK         0.0716 
     76 H76        21.2928  -29.6066  -45.2800 H         1 UNK         0.0695 
     77 H77        22.9287  -29.5707  -45.8631 H         1 UNK         0.0695 
     78 H78        23.1113  -27.1873  -45.5182 H         1 UNK         0.0983 
     79 H79        20.2343  -27.0966  -45.5761 H         1 UNK         0.3095 
     80 H80        20.0075  -23.7089  -44.4935 H         1 UNK         0.0454 
     81 H81        19.7585  -24.7663  -47.3579 H         1 UNK         0.0851 
     82 H82        19.0799  -23.2616  -46.7357 H         1 UNK         0.0851 
     83 H83        20.8190  -23.4575  -46.8544 H         1 UNK         0.0851 
     84 H84        17.9273  -25.1057  -45.6011 H         1 UNK         0.2976 
     85 H85        20.7390  -27.2890  -42.9700 H         1 UNK         0.3116 
     86 H86        21.7900  -29.2602  -41.2934 H         1 UNK         0.0646 
     87 H87        20.1409  -26.7958  -40.5472 H         1 UNK         0.0847 
     88 H88        19.5034  -28.3607  -41.0588 H         1 UNK         0.0847 
     89 H89        20.3663  -28.2114  -39.5374 H         1 UNK         0.0847 
     90 H90        23.0508  -26.0637  -41.7682 H         1 UNK         0.3040 
     91 H91        24.5523  -25.7611  -39.3499 H         1 UNK         0.1015 
     92 H92        25.0727  -24.6974  -42.1837 H         1 UNK         0.0786 
     93 H93        25.8680  -24.1274  -40.7223 H         1 UNK         0.0786 
     94 H94        24.1417  -23.8823  -40.9263 H         1 UNK         0.0786 
     95 H95        25.0391  -27.7883  -42.1701 H         1 UNK         0.3172 
     96 H96        27.7236  -28.6698  -41.1553 H         1 UNK         0.0595 
     97 H97        28.1405  -29.4121  -43.4949 H         1 UNK         0.0839 
     98 H98        27.8596  -27.6797  -43.4284 H         1 UNK         0.0839 
     99 H99        26.5888  -28.7572  -44.0033 H         1 UNK         0.0839 
    100 H100       24.5710  -29.7049  -42.5480 H         1 UNK         0.2998 
    101 H101       25.1406  -32.5083  -42.3415 H         1 UNK         0.0822 
    102 H102       22.7615  -32.7316  -43.0750 H         1 UNK         0.0787 
    103 H103       22.5034  -31.0146  -42.8120 H         1 UNK         0.0787 
    104 H104       23.6221  -31.5583  -44.0580 H         1 UNK         0.0787 
    105 H105       23.8262  -30.2387  -40.0282 H         1 UNK         0.3055 
    106 H106       23.0052  -30.3432  -37.9872 H         1 UNK         0.1106 
    107 H107       25.0788  -31.6801  -37.5283 H         1 UNK         0.0828 
    108 H108       23.7597  -32.0943  -36.4484 H         1 UNK         0.0828 
    109 H109       24.1652  -33.1675  -37.7775 H         1 UNK         0.0828 
    110 H110       21.3474  -31.4383  -40.2829 H         1 UNK         0.2931 
    111 H111       19.5343  -33.3236  -39.0426 H         1 UNK         0.0412 
    112 H112       17.9497  -29.8020  -38.1499 H         1 UNK         0.3472 
    113 H113       19.6570  -30.0526  -38.4168 H         1 UNK         0.3472 
    114 H114       20.0840  -33.6328  -41.3726 H         1 UNK         0.0970 
    115 H115       18.3796  -33.3588  -41.1941 H         1 UNK         0.0970 
    116 H116       18.5386  -33.1287  -43.8858 H         1 UNK         0.0612 
    117 H117       17.2839  -32.1973  -43.0979 H         1 UNK         0.0612 
@<TRIPOS>BOND
     1    1    2 1    
     2    1   62 1    
     3    1   63 1    
     4    1   64 1    
     5    2    3 2    
     6    2    4 am   BACKBONE|DICT|INTERRES
     7    4    5 1    
     8    4   65 1    
     9    5    6 1    
    10    5   25 1    
    11    5   66 1    
    12    6    7 1    
    13    6   67 1    
    14    6   68 1    
    15    7    8 1    
    16    8    9 1    
    17    8   69 1    
    18    8   70 1    
    19    9   10 ar   
    20    9   14 ar   
    21   10   11 ar   
    22   10   71 1    
    23   11   12 ar   
    24   11   61 1    
    25   12   13 ar   
    26   12   72 1    
    27   13   14 ar   
    28   13   15 1    
    29   14   73 1    
    30   15   16 1    
    31   15   74 1    
    32   15   75 1    
    33   16   17 1    
    34   17   18 1    
    35   17   76 1    
    36   17   77 1    
    37   18   19 1    
    38   18   27 1    
    39   18   78 1    
    40   19   20 am   BACKBONE|DICT|INTERRES
    41   19   79 1    
    42   20   21 2    
    43   20   22 1    
    44   22   23 1    
    45   22   24 1    
    46   22   80 1    
    47   23   81 1    
    48   23   82 1    
    49   23   83 1    
    50   24   25 am   BACKBONE|DICT|INTERRES
    51   24   84 1    
    52   25   26 2    
    53   27   28 2    
    54   27   29 am   BACKBONE|DICT|INTERRES
    55   29   30 1    
    56   29   85 1    
    57   30   31 1    
    58   30   32 1    
    59   30   86 1    
    60   31   87 1    
    61   31   88 1    
    62   31   89 1    
    63   32   33 2    
    64   32   34 am   BACKBONE|DICT|INTERRES
    65   34   35 1    
    66   34   90 1    
    67   35   36 1    
    68   35   37 1    
    69   35   91 1    
    70   36   92 1    
    71   36   93 1    
    72   36   94 1    
    73   37   38 2    
    74   37   39 am   BACKBONE|DICT|INTERRES
    75   39   40 1    
    76   39   95 1    
    77   40   41 1    
    78   40   42 1    
    79   40   96 1    
    80   41   97 1    
    81   41   98 1    
    82   41   99 1    
    83   42   43 2    
    84   42   44 am   BACKBONE|DICT|INTERRES
    85   44   45 1    
    86   44  100 1    
    87   45   46 1    
    88   45   47 1    
    89   45  101 1    
    90   46  102 1    
    91   46  103 1    
    92   46  104 1    
    93   47   48 2    
    94   47   49 am   BACKBONE|DICT|INTERRES
    95   49   50 1    
    96   49  105 1    
    97   50   51 1    
    98   50   52 1    
    99   50  106 1    
   100   51  107 1    
   101   51  108 1    
   102   51  109 1    
   103   52   53 2    
   104   52   54 am   BACKBONE|DICT|INTERRES
   105   54   55 1    
   106   54  110 1    
   107   55   56 1    
   108   55   59 1    
   109   55  111 1    
   110   56   57 am   BACKBONE|DICT|INTERRES
   111   56   58 2    
   112   57  112 1    
   113   57  113 1    
   114   59   60 1    
   115   59  114 1    
   116   59  115 1    
   117   60   61 1    
   118   61  116 1    
   119   61  117 1    
@<TRIPOS>SUBSTRUCTURE
     1 UNK         1 GROUP             0       ****    0 ROOT    
