@<TRIPOS>MOLECULE
3R8
117   119    1
SMALL
USER_CHARGES


@<TRIPOS>ATOM
      1 CA         18.7487  -23.5257  -49.0243 C.3       0 UNK        -0.2013 
      2 C          18.9914  -23.7377  -47.5375 C.2       0 UNK         0.4866 
      3 O          19.6067  -22.8893  -46.8921 O.2       0 UNK        -0.5176 
      4 N          18.5203  -24.8670  -46.9948 N.am      1 UNK        -0.4884 
      5 CA         18.6201  -25.2371  -45.5775 C.3       1 UNK         0.0853 
      6 C6         18.2105  -26.7127  -45.3512 C.3       10 UNK        -0.0849 
      7 S7         19.1706  -27.8909  -46.3624 S.3       10 UNK        -0.2776 
      8 C8         18.0676  -29.3412  -46.3496 C.3       10 UNK         0.0316 
      9 C9         18.0871  -30.0375  -44.9972 C.ar      10 UNK        -0.0863 
     10 C10        18.9297  -31.1292  -44.7789 C.ar      10 UNK        -0.1009 
     11 C11        18.9826  -31.7565  -43.5277 C.ar      10 UNK        -0.0712 
     12 C12        18.1769  -31.2713  -42.4892 C.ar      10 UNK        -0.0894 
     13 C13        17.3083  -30.1935  -42.7027 C.ar      10 UNK        -0.0745 
     14 C14        17.2600  -29.5945  -43.9640 C.ar      10 UNK        -0.0972 
     15 C15        16.3760  -29.7082  -41.5978 C.3       10 UNK         0.0209 
     16 S16        16.4752  -27.9053  -41.3195 S.3       10 UNK        -0.2568 
     17 C17        17.9746  -27.7638  -40.2957 C.3       10 UNK        -0.0983 
     18 CA         19.1993  -27.2330  -41.0777 C.3       3 UNK         0.0876 
     19 N          18.9696  -25.9068  -41.6722 N.am      3 UNK        -0.4424 
     20 C          19.8483  -25.2537  -42.4461 C.2       2 UNK         0.4918 
     21 O          20.9320  -25.7244  -42.7946 O.2       2 UNK        -0.4875 
     22 CA         19.4506  -23.8314  -42.8709 C.3       2 UNK         0.0481 
     23 CB         20.5626  -23.0683  -43.6221 C.3       2 UNK        -0.1831 
     24 N          18.1607  -23.7595  -43.5683 N.am      2 UNK        -0.4498 
     25 C          17.7286  -24.3062  -44.7176 C.2       1 UNK         0.5027 
     26 O          16.5788  -24.0947  -45.1070 O.2       1 UNK        -0.4969 
     27 C          20.4443  -27.2637  -40.1652 C.2       3 UNK         0.5005 
     28 O          21.1266  -28.2836  -40.1147 O.2       3 UNK        -0.5279 
     29 N          20.7448  -26.1420  -39.4922 N.am      4 UNK        -0.4463 
     30 CA         21.9408  -25.9627  -38.6633 C.3       4 UNK         0.0283 
     31 CB         21.8238  -24.6475  -37.8765 C.3       4 UNK        -0.1875 
     32 C          23.2555  -25.9930  -39.4654 C.2       4 UNK         0.4949 
     33 O          24.2717  -26.4362  -38.9310 O.2       4 UNK        -0.5039 
     34 N          23.2155  -25.5333  -40.7246 N.am      5 UNK        -0.4663 
     35 CA         24.3447  -25.5941  -41.6552 C.3       5 UNK         0.0242 
     36 CB         24.2004  -24.4950  -42.7209 C.3       5 UNK        -0.1982 
     37 C          24.4573  -26.9789  -42.3111 C.2       5 UNK         0.5017 
     38 O          25.5715  -27.4696  -42.4946 O.2       5 UNK        -0.5012 
     39 N          23.3056  -27.5818  -42.6417 N.am      6 UNK        -0.4439 
     40 CA         23.1960  -28.9288  -43.2096 C.3       6 UNK         0.0297 
     41 CB         21.7586  -29.1458  -43.7062 C.3       6 UNK        -0.2006 
     42 C          23.6124  -30.0356  -42.2193 C.2       6 UNK         0.4892 
     43 O          24.2299  -31.0179  -42.6340 O.2       6 UNK        -0.5089 
     44 N          23.2950  -29.8312  -40.9326 N.am      7 UNK        -0.4243 
     45 CA         23.5586  -30.7037  -39.7880 C.3       7 UNK         0.0196 
     46 CB         25.0782  -30.8647  -39.5480 C.3       7 UNK        -0.2007 
     47 C          22.7745  -32.0247  -39.8950 C.2       7 UNK         0.5020 
     48 O          21.5902  -32.0007  -40.2327 O.2       7 UNK        -0.5147 
     49 N          23.4241  -33.1513  -39.5758 N.am      8 UNK        -0.4734 
     50 CA         22.8282  -34.4907  -39.6165 C.3       8 UNK         0.0238 
     51 CB         23.6904  -35.4465  -38.7747 C.3       8 UNK        -0.1912 
     52 C          22.6451  -35.0457  -41.0411 C.2       8 UNK         0.5038 
     53 O          21.8811  -35.9966  -41.2114 O.2       8 UNK        -0.5046 
     54 N          23.3542  -34.4665  -42.0211 N.am      9 UNK        -0.4200 
     55 CA         23.3690  -34.8652  -43.4398 C.3       9 UNK         0.0839 
     56 C          23.9787  -36.2756  -43.7122 C.2       9 UNK         0.5513 
     57 N          24.7653  -36.8410  -42.8038 N.am      9 UNK        -0.7519 
     58 O          23.7668  -36.8569  -44.7738 O.2       9 UNK        -0.4960 
     59 C59        21.9984  -34.6524  -44.1448 C.3       10 UNK        -0.0876 
     60 S60        21.4756  -32.9049  -44.1322 S.3       10 UNK        -0.2414 
     61 C61        19.8504  -32.9962  -43.3078 C.3       10 UNK         0.0169 
     62 H62        18.1668  -22.6183  -49.1833 H         1 UNK         0.0903 
     63 H63        19.6984  -23.4178  -49.5477 H         1 UNK         0.0903 
     64 H64        18.2075  -24.3587  -49.4728 H         1 UNK         0.0903 
     65 H65        18.0225  -25.5263  -47.5756 H         1 UNK         0.3096 
     66 H66        19.6650  -25.1374  -45.2951 H         1 UNK         0.1121 
     67 H67        17.1496  -26.8468  -45.5721 H         1 UNK         0.0849 
     68 H68        18.3435  -26.9880  -44.3041 H         1 UNK         0.0849 
     69 H69        17.0511  -29.0433  -46.6114 H         1 UNK         0.0865 
     70 H70        18.3887  -30.0322  -47.1305 H         1 UNK         0.0865 
     71 H71        19.5459  -31.4909  -45.5902 H         1 UNK         0.1346 
     72 H72        18.2052  -31.7541  -41.5218 H         1 UNK         0.1412 
     73 H73        16.5808  -28.7712  -44.1356 H         1 UNK         0.1426 
     74 H74        16.5630  -30.2361  -40.6614 H         1 UNK         0.0716 
     75 H75        15.3527  -29.9546  -41.8841 H         1 UNK         0.0716 
     76 H76        17.7430  -27.1048  -39.4567 H         1 UNK         0.0695 
     77 H77        18.1952  -28.7396  -39.8578 H         1 UNK         0.0695 
     78 H78        19.3931  -27.9222  -41.9023 H         1 UNK         0.0983 
     79 H79        18.0856  -25.4691  -41.4540 H         1 UNK         0.3095 
     80 H80        19.2923  -23.2883  -41.9380 H         1 UNK         0.0454 
     81 H81        21.4326  -22.9337  -42.9786 H         1 UNK         0.0851 
     82 H82        20.9147  -23.5775  -44.5169 H         1 UNK         0.0851 
     83 H83        20.2296  -22.0737  -43.9186 H         1 UNK         0.0851 
     84 H84        17.4817  -23.1870  -43.0864 H         1 UNK         0.2976 
     85 H85        20.1213  -25.3519  -39.5727 H         1 UNK         0.3116 
     86 H86        21.9756  -26.7864  -37.9468 H         1 UNK         0.0646 
     87 H87        22.6907  -24.5025  -37.2301 H         1 UNK         0.0847 
     88 H88        20.9419  -24.6437  -37.2358 H         1 UNK         0.0847 
     89 H89        21.7643  -23.7825  -38.5383 H         1 UNK         0.0847 
     90 H90        22.3315  -25.2231  -41.1040 H         1 UNK         0.3040 
     91 H91        25.2699  -25.4094  -41.1039 H         1 UNK         0.1015 
     92 H92        24.1296  -23.5069  -42.2660 H         1 UNK         0.0786 
     93 H93        23.3182  -24.6429  -43.3442 H         1 UNK         0.0786 
     94 H94        25.0660  -24.4843  -43.3846 H         1 UNK         0.0786 
     95 H95        22.4416  -27.0676  -42.5081 H         1 UNK         0.3172 
     96 H96        23.8641  -28.9773  -44.0718 H         1 UNK         0.0595 
     97 H97        21.4032  -28.3030  -44.2992 H         1 UNK         0.0839 
     98 H98        21.0601  -29.2971  -42.8828 H         1 UNK         0.0839 
     99 H99        21.7023  -30.0279  -44.3422 H         1 UNK         0.0839 
    100 H100       22.6679  -29.0562  -40.7247 H         1 UNK         0.2998 
    101 H101       23.1446  -30.1832  -38.9232 H         1 UNK         0.0822 
    102 H102       25.2804  -31.3643  -38.5998 H         1 UNK         0.0787 
    103 H103       25.5634  -31.4374  -40.3391 H         1 UNK         0.0787 
    104 H104       25.5679  -29.8916  -39.5013 H         1 UNK         0.0787 
    105 H105       24.3930  -33.0871  -39.2973 H         1 UNK         0.3055 
    106 H106       21.8345  -34.4395  -39.1649 H         1 UNK         0.1106 
    107 H107       24.7041  -35.5318  -39.1678 H         1 UNK         0.0828 
    108 H108       23.7578  -35.1126  -37.7391 H         1 UNK         0.0828 
    109 H109       23.2616  -36.4497  -38.7604 H         1 UNK         0.0828 
    110 H110       23.9324  -33.6726  -41.7862 H         1 UNK         0.2931 
    111 H111       24.0743  -34.1805  -43.9125 H         1 UNK         0.0412 
    112 H112       25.1644  -37.7475  -42.9917 H         1 UNK         0.3472 
    113 H113       24.9632  -36.3717  -41.9350 H         1 UNK         0.3472 
    114 H114       21.2313  -35.2848  -43.6962 H         1 UNK         0.0970 
    115 H115       22.0549  -34.9523  -45.1926 H         1 UNK         0.0970 
    116 H116       20.0146  -33.1694  -42.2432 H         1 UNK         0.0612 
    117 H117       19.3028  -33.8595  -43.6876 H         1 UNK         0.0612 
@<TRIPOS>BOND
     1    1    2 1    
     2    1   62 1    
     3    1   63 1    
     4    1   64 1    
     5    2    3 2    
     6    2    4 am   BACKBONE|DICT|INTERRES
     7    4    5 1    
     8    4   65 1    
     9    5    6 1    
    10    5   25 1    
    11    5   66 1    
    12    6    7 1    
    13    6   67 1    
    14    6   68 1    
    15    7    8 1    
    16    8    9 1    
    17    8   69 1    
    18    8   70 1    
    19    9   10 ar   
    20    9   14 ar   
    21   10   11 ar   
    22   10   71 1    
    23   11   12 ar   
    24   11   61 1    
    25   12   13 ar   
    26   12   72 1    
    27   13   14 ar   
    28   13   15 1    
    29   14   73 1    
    30   15   16 1    
    31   15   74 1    
    32   15   75 1    
    33   16   17 1    
    34   17   18 1    
    35   17   76 1    
    36   17   77 1    
    37   18   19 1    
    38   18   27 1    
    39   18   78 1    
    40   19   20 am   BACKBONE|DICT|INTERRES
    41   19   79 1    
    42   20   21 2    
    43   20   22 1    
    44   22   23 1    
    45   22   24 1    
    46   22   80 1    
    47   23   81 1    
    48   23   82 1    
    49   23   83 1    
    50   24   25 am   BACKBONE|DICT|INTERRES
    51   24   84 1    
    52   25   26 2    
    53   27   28 2    
    54   27   29 am   BACKBONE|DICT|INTERRES
    55   29   30 1    
    56   29   85 1    
    57   30   31 1    
    58   30   32 1    
    59   30   86 1    
    60   31   87 1    
    61   31   88 1    
    62   31   89 1    
    63   32   33 2    
    64   32   34 am   BACKBONE|DICT|INTERRES
    65   34   35 1    
    66   34   90 1    
    67   35   36 1    
    68   35   37 1    
    69   35   91 1    
    70   36   92 1    
    71   36   93 1    
    72   36   94 1    
    73   37   38 2    
    74   37   39 am   BACKBONE|DICT|INTERRES
    75   39   40 1    
    76   39   95 1    
    77   40   41 1    
    78   40   42 1    
    79   40   96 1    
    80   41   97 1    
    81   41   98 1    
    82   41   99 1    
    83   42   43 2    
    84   42   44 am   BACKBONE|DICT|INTERRES
    85   44   45 1    
    86   44  100 1    
    87   45   46 1    
    88   45   47 1    
    89   45  101 1    
    90   46  102 1    
    91   46  103 1    
    92   46  104 1    
    93   47   48 2    
    94   47   49 am   BACKBONE|DICT|INTERRES
    95   49   50 1    
    96   49  105 1    
    97   50   51 1    
    98   50   52 1    
    99   50  106 1    
   100   51  107 1    
   101   51  108 1    
   102   51  109 1    
   103   52   53 2    
   104   52   54 am   BACKBONE|DICT|INTERRES
   105   54   55 1    
   106   54  110 1    
   107   55   56 1    
   108   55   59 1    
   109   55  111 1    
   110   56   57 am   BACKBONE|DICT|INTERRES
   111   56   58 2    
   112   57  112 1    
   113   57  113 1    
   114   59   60 1    
   115   59  114 1    
   116   59  115 1    
   117   60   61 1    
   118   61  116 1    
   119   61  117 1    
@<TRIPOS>SUBSTRUCTURE
     1 UNK         1 GROUP             0       ****    0 ROOT    
