@<TRIPOS>MOLECULE
3R8
117   119    1
SMALL
USER_CHARGES


@<TRIPOS>ATOM
      1 CA         16.8978  -27.9728  -40.4140 C.3       0 UNK        -0.2013 
      2 C          16.8994  -26.7777  -41.3546 C.2       0 UNK         0.4866 
      3 O          16.9153  -25.6367  -40.8900 O.2       0 UNK        -0.5176 
      4 N          16.8608  -27.0297  -42.6688 N.am      1 UNK        -0.4884 
      5 CA         16.8337  -25.9992  -43.7151 C.3       1 UNK         0.0853 
      6 C6         16.0142  -26.4316  -44.9653 C.3       10 UNK        -0.0849 
      7 S7         14.3995  -27.1904  -44.5507 S.3       10 UNK        -0.2776 
      8 C8         14.3638  -28.7007  -45.5792 C.3       10 UNK         0.0316 
      9 C9         15.6472  -29.5161  -45.4858 C.ar      10 UNK        -0.0863 
     10 C10        16.0216  -30.1187  -44.2807 C.ar      10 UNK        -0.1009 
     11 C11        17.2289  -30.8173  -44.1878 C.ar      10 UNK        -0.0712 
     12 C12        18.0524  -30.9282  -45.3120 C.ar      10 UNK        -0.0894 
     13 C13        17.6890  -30.3283  -46.5203 C.ar      10 UNK        -0.0745 
     14 C14        16.4795  -29.6346  -46.6044 C.ar      10 UNK        -0.0972 
     15 C15        18.6071  -30.4141  -47.7317 C.3       10 UNK         0.0209 
     16 S16        19.5162  -28.8587  -48.0092 S.3       10 UNK        -0.2568 
     17 C17        20.6811  -28.8655  -46.6060 C.3       10 UNK        -0.0983 
     18 CA         21.3880  -27.5032  -46.3998 C.3       3 UNK         0.0876 
     19 N          20.4311  -26.4077  -46.2038 N.am      3 UNK        -0.4424 
     20 C          20.7455  -25.1119  -46.0630 C.2       2 UNK         0.4918 
     21 O          21.8833  -24.6670  -46.2181 O.2       2 UNK        -0.4875 
     22 CA         19.6177  -24.1353  -45.6665 C.3       2 UNK         0.0481 
     23 CB         19.2598  -23.2285  -46.8555 C.3       2 UNK        -0.1831 
     24 N          18.3828  -24.7397  -45.1448 N.am      2 UNK        -0.4498 
     25 C          18.2697  -25.5612  -44.0888 C.2       1 UNK         0.5027 
     26 O          19.2409  -25.9846  -43.4542 O.2       1 UNK        -0.4969 
     27 C          22.3916  -27.6093  -45.2305 C.2       3 UNK         0.5005 
     28 O          23.5786  -27.8360  -45.4734 O.2       3 UNK        -0.5279 
     29 N          21.8934  -27.4176  -43.9970 N.am      4 UNK        -0.4463 
     30 CA         22.5874  -27.3944  -42.7031 C.3       4 UNK         0.0283 
     31 CB         23.5443  -26.1907  -42.6079 C.3       4 UNK        -0.1875 
     32 C          23.3004  -28.6995  -42.3060 C.2       4 UNK         0.4949 
     33 O          23.0105  -29.2295  -41.2350 O.2       4 UNK        -0.5039 
     34 N          24.2420  -29.1635  -43.1403 N.am      5 UNK        -0.4663 
     35 CA         25.1161  -30.3341  -42.9707 C.3       5 UNK         0.0242 
     36 CB         24.3316  -31.6283  -43.2553 C.3       5 UNK        -0.1982 
     37 C          25.8151  -30.3518  -41.5974 C.2       5 UNK         0.5017 
     38 O          25.5541  -31.2357  -40.7789 O.2       5 UNK        -0.5012 
     39 N          26.6285  -29.3136  -41.3461 N.am      6 UNK        -0.4439 
     40 CA         27.3344  -29.0310  -40.0847 C.3       6 UNK         0.0297 
     41 CB         28.4193  -30.0960  -39.8138 C.3       6 UNK        -0.2006 
     42 C          26.3854  -28.8306  -38.8817 C.2       6 UNK         0.4892 
     43 O          26.7537  -29.1426  -37.7486 O.2       6 UNK        -0.5089 
     44 N          25.1743  -28.3300  -39.1691 N.am      7 UNK        -0.4243 
     45 CA         24.0282  -28.1255  -38.2741 C.3       7 UNK         0.0196 
     46 CB         24.3753  -27.1544  -37.1255 C.3       7 UNK        -0.2007 
     47 C          23.3738  -29.4277  -37.7654 C.2       7 UNK         0.5020 
     48 O          22.4887  -29.3528  -36.9116 O.2       7 UNK        -0.5147 
     49 N          23.7813  -30.5908  -38.2929 N.am      8 UNK        -0.4734 
     50 CA         23.2092  -31.8956  -37.9501 C.3       8 UNK         0.0238 
     51 CB         24.3194  -32.9583  -38.0016 C.3       8 UNK        -0.1912 
     52 C          22.0478  -32.2908  -38.8772 C.2       8 UNK         0.5038 
     53 O          21.2443  -33.1417  -38.4940 O.2       8 UNK        -0.5046 
     54 N          21.9829  -31.6870  -40.0721 N.am      9 UNK        -0.4200 
     55 CA         21.0096  -31.9632  -41.1408 C.3       9 UNK         0.0839 
     56 C          21.0691  -33.4062  -41.7341 C.2       9 UNK         0.5513 
     57 N          22.1644  -34.1392  -41.5694 N.am      9 UNK        -0.7519 
     58 O          20.1289  -33.8652  -42.3758 O.2       9 UNK        -0.4960 
     59 C59        19.5730  -31.4739  -40.7815 C.3       10 UNK        -0.0876 
     60 S60        18.9055  -30.3669  -42.0682 S.3       10 UNK        -0.2414 
     61 C61        17.6709  -31.4306  -42.8713 C.3       10 UNK         0.0169 
     62 H62        16.2434  -27.7844  -39.5632 H         1 UNK         0.0903 
     63 H63        16.5453  -28.8760  -40.9119 H         1 UNK         0.0903 
     64 H64        17.9039  -28.1557  -40.0375 H         1 UNK         0.0903 
     65 H65        16.8855  -27.9840  -42.9997 H         1 UNK         0.3096 
     66 H66        16.3436  -25.1127  -43.3059 H         1 UNK         0.1121 
     67 H67        15.8016  -25.5672  -45.5965 H         1 UNK         0.0849 
     68 H68        16.6027  -27.1050  -45.5868 H         1 UNK         0.0849 
     69 H69        13.5214  -29.3207  -45.2694 H         1 UNK         0.0865 
     70 H70        14.1640  -28.4130  -46.6126 H         1 UNK         0.0865 
     71 H71        15.3843  -30.0211  -43.4121 H         1 UNK         0.1346 
     72 H72        18.9908  -31.4605  -45.2345 H         1 UNK         0.1412 
     73 H73        16.2033  -29.1619  -47.5374 H         1 UNK         0.1426 
     74 H74        18.0135  -30.6381  -48.6191 H         1 UNK         0.0716 
     75 H75        19.3172  -31.2357  -47.6246 H         1 UNK         0.0716 
     76 H76        21.4142  -29.6550  -46.7838 H         1 UNK         0.0695 
     77 H77        20.1409  -29.1446  -45.7002 H         1 UNK         0.0695 
     78 H78        21.9631  -27.2741  -47.2996 H         1 UNK         0.0983 
     79 H79        19.4660  -26.6791  -46.0956 H         1 UNK         0.3095 
     80 H80        20.0194  -23.5048  -44.8711 H         1 UNK         0.0454 
     81 H81        20.1460  -22.7280  -47.2487 H         1 UNK         0.0851 
     82 H82        18.5563  -22.4480  -46.5652 H         1 UNK         0.0851 
     83 H83        18.8168  -23.7950  -47.6754 H         1 UNK         0.0851 
     84 H84        17.5344  -24.4544  -45.6123 H         1 UNK         0.2976 
     85 H85        20.9034  -27.2009  -43.9326 H         1 UNK         0.3116 
     86 H86        21.8007  -27.2377  -41.9629 H         1 UNK         0.0646 
     87 H87        24.3511  -26.2479  -43.3391 H         1 UNK         0.0847 
     88 H88        23.0131  -25.2533  -42.7734 H         1 UNK         0.0847 
     89 H89        24.0028  -26.1317  -41.6200 H         1 UNK         0.0847 
     90 H90        24.3350  -28.6604  -44.0218 H         1 UNK         0.3040 
     91 H91        25.9022  -30.2549  -43.7234 H         1 UNK         0.1015 
     92 H92        24.9896  -32.4978  -43.2288 H         1 UNK         0.0786 
     93 H93        23.8625  -31.6031  -44.2388 H         1 UNK         0.0786 
     94 H94        23.5524  -31.7915  -42.5157 H         1 UNK         0.0786 
     95 H95        26.7502  -28.6260  -42.0780 H         1 UNK         0.3172 
     96 H96        27.8414  -28.0754  -40.2278 H         1 UNK         0.0595 
     97 H97        27.9837  -31.0707  -39.5899 H         1 UNK         0.0839 
     98 H98        29.0396  -29.8155  -38.9616 H         1 UNK         0.0839 
     99 H99        29.0838  -30.2139  -40.6698 H         1 UNK         0.0839 
    100 H100       24.9743  -28.1680  -40.1458 H         1 UNK         0.2998 
    101 H101       23.2661  -27.6412  -38.8868 H         1 UNK         0.0822 
    102 H102       23.4808  -26.8720  -36.5689 H         1 UNK         0.0787 
    103 H103       24.8225  -26.2350  -37.5036 H         1 UNK         0.0787 
    104 H104       25.0700  -27.5992  -36.4125 H         1 UNK         0.0787 
    105 H105       24.4947  -30.5821  -39.0142 H         1 UNK         0.3055 
    106 H106       22.8172  -31.8692  -36.9306 H         1 UNK         0.1106 
    107 H107       25.1360  -32.7109  -37.3231 H         1 UNK         0.0828 
    108 H108       23.9374  -33.9362  -37.7054 H         1 UNK         0.0828 
    109 H109       24.7372  -33.0622  -39.0034 H         1 UNK         0.0828 
    110 H110       22.6552  -30.9583  -40.2902 H         1 UNK         0.2931 
    111 H111       21.3720  -31.3439  -41.9610 H         1 UNK         0.0412 
    112 H112       22.9501  -33.7773  -41.0537 H         1 UNK         0.3472 
    113 H113       22.1995  -35.0668  -41.9619 H         1 UNK         0.3472 
    114 H114       18.8898  -32.3039  -40.5921 H         1 UNK         0.0970 
    115 H115       19.5821  -30.8976  -39.8552 H         1 UNK         0.0970 
    116 H116       18.0906  -32.4187  -43.0582 H         1 UNK         0.0612 
    117 H117       16.8218  -31.5721  -42.2008 H         1 UNK         0.0612 
@<TRIPOS>BOND
     1    1    2 1    
     2    1   62 1    
     3    1   63 1    
     4    1   64 1    
     5    2    3 2    
     6    2    4 am   BACKBONE|DICT|INTERRES
     7    4    5 1    
     8    4   65 1    
     9    5    6 1    
    10    5   25 1    
    11    5   66 1    
    12    6    7 1    
    13    6   67 1    
    14    6   68 1    
    15    7    8 1    
    16    8    9 1    
    17    8   69 1    
    18    8   70 1    
    19    9   10 ar   
    20    9   14 ar   
    21   10   11 ar   
    22   10   71 1    
    23   11   12 ar   
    24   11   61 1    
    25   12   13 ar   
    26   12   72 1    
    27   13   14 ar   
    28   13   15 1    
    29   14   73 1    
    30   15   16 1    
    31   15   74 1    
    32   15   75 1    
    33   16   17 1    
    34   17   18 1    
    35   17   76 1    
    36   17   77 1    
    37   18   19 1    
    38   18   27 1    
    39   18   78 1    
    40   19   20 am   BACKBONE|DICT|INTERRES
    41   19   79 1    
    42   20   21 2    
    43   20   22 1    
    44   22   23 1    
    45   22   24 1    
    46   22   80 1    
    47   23   81 1    
    48   23   82 1    
    49   23   83 1    
    50   24   25 am   BACKBONE|DICT|INTERRES
    51   24   84 1    
    52   25   26 2    
    53   27   28 2    
    54   27   29 am   BACKBONE|DICT|INTERRES
    55   29   30 1    
    56   29   85 1    
    57   30   31 1    
    58   30   32 1    
    59   30   86 1    
    60   31   87 1    
    61   31   88 1    
    62   31   89 1    
    63   32   33 2    
    64   32   34 am   BACKBONE|DICT|INTERRES
    65   34   35 1    
    66   34   90 1    
    67   35   36 1    
    68   35   37 1    
    69   35   91 1    
    70   36   92 1    
    71   36   93 1    
    72   36   94 1    
    73   37   38 2    
    74   37   39 am   BACKBONE|DICT|INTERRES
    75   39   40 1    
    76   39   95 1    
    77   40   41 1    
    78   40   42 1    
    79   40   96 1    
    80   41   97 1    
    81   41   98 1    
    82   41   99 1    
    83   42   43 2    
    84   42   44 am   BACKBONE|DICT|INTERRES
    85   44   45 1    
    86   44  100 1    
    87   45   46 1    
    88   45   47 1    
    89   45  101 1    
    90   46  102 1    
    91   46  103 1    
    92   46  104 1    
    93   47   48 2    
    94   47   49 am   BACKBONE|DICT|INTERRES
    95   49   50 1    
    96   49  105 1    
    97   50   51 1    
    98   50   52 1    
    99   50  106 1    
   100   51  107 1    
   101   51  108 1    
   102   51  109 1    
   103   52   53 2    
   104   52   54 am   BACKBONE|DICT|INTERRES
   105   54   55 1    
   106   54  110 1    
   107   55   56 1    
   108   55   59 1    
   109   55  111 1    
   110   56   57 am   BACKBONE|DICT|INTERRES
   111   56   58 2    
   112   57  112 1    
   113   57  113 1    
   114   59   60 1    
   115   59  114 1    
   116   59  115 1    
   117   60   61 1    
   118   61  116 1    
   119   61  117 1    
@<TRIPOS>SUBSTRUCTURE
     1 UNK         1 GROUP             0       ****    0 ROOT    
