@<TRIPOS>MOLECULE
3R8
117   119    1
SMALL
USER_CHARGES


@<TRIPOS>ATOM
      1 CA         20.0039  -29.1876  -40.4762 C.3       0 UNK        -0.2013 
      2 C          19.6501  -27.8371  -41.0736 C.2       0 UNK         0.4866 
      3 O          20.1496  -26.8126  -40.6082 O.2       0 UNK        -0.5176 
      4 N          18.7799  -27.8299  -42.0901 N.am      1 UNK        -0.4884 
      5 CA         18.3231  -26.6268  -42.7949 C.3       1 UNK         0.0853 
      6 C6         16.9620  -26.8315  -43.5194 C.3       10 UNK        -0.0849 
      7 S7         15.7595  -27.8297  -42.5528 S.3       10 UNK        -0.2776 
      8 C8         15.4812  -29.3357  -43.5582 C.3       10 UNK         0.0316 
      9 C9         16.7600  -29.9128  -44.1529 C.ar      10 UNK        -0.0863 
     10 C10        17.6291  -30.6968  -43.3877 C.ar      10 UNK        -0.1009 
     11 C11        18.8272  -31.1695  -43.9395 C.ar      10 UNK        -0.0712 
     12 C12        19.1559  -30.8277  -45.2562 C.ar      10 UNK        -0.0894 
     13 C13        18.3068  -30.0269  -46.0232 C.ar      10 UNK        -0.0745 
     14 C14        17.0847  -29.6245  -45.4796 C.ar      10 UNK        -0.0972 
     15 C15        18.7332  -29.5607  -47.4130 C.3       10 UNK         0.0209 
     16 S16        18.3843  -27.7847  -47.6563 S.3       10 UNK        -0.2568 
     17 C17        19.7826  -27.2028  -48.6748 C.3       10 UNK        -0.0983 
     18 CA         20.9081  -26.4856  -47.8752 C.3       3 UNK         0.0876 
     19 N          20.3850  -25.6611  -46.7779 N.am      3 UNK        -0.4424 
     20 C          21.0714  -24.7311  -46.1038 C.2       2 UNK         0.4918 
     21 O          22.2091  -24.3743  -46.4100 O.2       2 UNK        -0.4875 
     22 CA         20.3986  -24.0930  -44.8691 C.3       2 UNK         0.0481 
     23 CB         19.8365  -22.7101  -45.2367 C.3       2 UNK        -0.1831 
     24 N          19.3489  -24.8647  -44.1787 N.am      2 UNK        -0.4498 
     25 C          19.4242  -26.1379  -43.7620 C.2       1 UNK         0.5027 
     26 O          20.3165  -26.9164  -44.1085 O.2       1 UNK        -0.4969 
     27 C          22.0254  -27.4635  -47.4401 C.2       3 UNK         0.5005 
     28 O          22.8262  -27.8549  -48.2916 O.2       3 UNK        -0.5279 
     29 N          22.0857  -27.8231  -46.1499 N.am      4 UNK        -0.4463 
     30 CA         23.1693  -28.6091  -45.5505 C.3       4 UNK         0.0283 
     31 CB         22.6337  -29.9709  -45.0844 C.3       4 UNK        -0.1875 
     32 C          23.8235  -27.8679  -44.3765 C.2       4 UNK         0.4949 
     33 O          25.0489  -27.9032  -44.2585 O.2       4 UNK        -0.5039 
     34 N          23.0013  -27.2155  -43.5403 N.am      5 UNK        -0.4663 
     35 CA         23.3539  -26.5273  -42.2940 C.3       5 UNK         0.0242 
     36 CB         24.2074  -25.2738  -42.5931 C.3       5 UNK        -0.1982 
     37 C          23.9847  -27.4826  -41.2572 C.2       5 UNK         0.5017 
     38 O          23.7080  -28.6848  -41.2853 O.2       5 UNK        -0.5012 
     39 N          24.7908  -26.9275  -40.3379 N.am      6 UNK        -0.4439 
     40 CA         25.6599  -27.6128  -39.3653 C.3       6 UNK         0.0297 
     41 CB         26.8403  -28.2728  -40.1097 C.3       6 UNK        -0.2006 
     42 C          24.9621  -28.6121  -38.4152 C.2       6 UNK         0.4892 
     43 O          25.6418  -29.4600  -37.8346 O.2       6 UNK        -0.5089 
     44 N          23.6298  -28.5103  -38.2847 N.am      7 UNK        -0.4243 
     45 CA         22.7339  -29.4459  -37.5912 C.3       7 UNK         0.0196 
     46 CB         22.9735  -29.4141  -36.0664 C.3       7 UNK        -0.2007 
     47 C          22.7787  -30.8769  -38.1745 C.2       7 UNK         0.5020 
     48 O          22.5616  -31.8404  -37.4385 O.2       7 UNK        -0.5147 
     49 N          23.0458  -30.9978  -39.4860 N.am      8 UNK        -0.4734 
     50 CA         23.2834  -32.2606  -40.2024 C.3       8 UNK         0.0238 
     51 CB         23.6408  -31.9438  -41.6643 C.3       8 UNK        -0.1912 
     52 C          22.1384  -33.2902  -40.1490 C.2       8 UNK         0.5038 
     53 O          22.4063  -34.4862  -40.2723 O.2       8 UNK        -0.5046 
     54 N          20.9038  -32.8106  -39.9656 N.am      9 UNK        -0.4200 
     55 CA         19.6833  -33.6178  -39.8082 C.3       9 UNK         0.0839 
     56 C          19.1346  -33.5915  -38.3509 C.2       9 UNK         0.5513 
     57 N          19.8570  -33.0626  -37.3691 N.am      9 UNK        -0.7519 
     58 O          18.0344  -34.0749  -38.0970 O.2       9 UNK        -0.4960 
     59 C59        18.6013  -33.2194  -40.8504 C.3       10 UNK        -0.0876 
     60 S60        19.1119  -33.5888  -42.5661 S.3       10 UNK        -0.2414 
     61 C61        19.8063  -31.9987  -43.1161 C.3       10 UNK         0.0169 
     62 H62        20.0477  -29.1154  -39.3910 H         1 UNK         0.0903 
     63 H63        19.2550  -29.9367  -40.7254 H         1 UNK         0.0903 
     64 H64        20.9745  -29.5144  -40.8475 H         1 UNK         0.0903 
     65 H65        18.4213  -28.6979  -42.4630 H         1 UNK         0.3096 
     66 H66        18.1818  -25.8473  -42.0425 H         1 UNK         0.1121 
     67 H67        17.1030  -27.2569  -44.5099 H         1 UNK         0.0849 
     68 H68        16.5016  -25.8593  -43.7030 H         1 UNK         0.0849 
     69 H69        14.9948  -30.0897  -42.9375 H         1 UNK         0.0865 
     70 H70        14.7696  -29.0990  -44.3510 H         1 UNK         0.0865 
     71 H71        17.3712  -30.9285  -42.3649 H         1 UNK         0.1346 
     72 H72        20.0880  -31.1688  -45.6812 H         1 UNK         0.1412 
     73 H73        16.4124  -29.0174  -46.0704 H         1 UNK         0.1426 
     74 H74        18.2074  -30.1417  -48.1715 H         1 UNK         0.0716 
     75 H75        19.7996  -29.7406  -47.5576 H         1 UNK         0.0716 
     76 H76        19.3626  -26.4936  -49.3895 H         1 UNK         0.0695 
     77 H77        20.1687  -28.0219  -49.2852 H         1 UNK         0.0695 
     78 H78        21.3957  -25.7971  -48.5693 H         1 UNK         0.0983 
     79 H79        19.4591  -25.9074  -46.4580 H         1 UNK         0.3095 
     80 H80        21.1934  -23.9435  -44.1356 H         1 UNK         0.0454 
     81 H81        20.5946  -22.0933  -45.7219 H         1 UNK         0.0851 
     82 H82        19.5023  -22.1665  -44.3529 H         1 UNK         0.0851 
     83 H83        18.9930  -22.7886  -45.9237 H         1 UNK         0.0851 
     84 H84        18.5546  -24.3212  -43.8720 H         1 UNK         0.2976 
     85 H85        21.3828  -27.4538  -45.5130 H         1 UNK         0.3116 
     86 H86        23.9573  -28.7932  -46.2838 H         1 UNK         0.0646 
     87 H87        21.8116  -29.8586  -44.3766 H         1 UNK         0.0847 
     88 H88        22.2852  -30.5619  -45.9303 H         1 UNK         0.0847 
     89 H89        23.4148  -30.5487  -44.5883 H         1 UNK         0.0847 
     90 H90        22.0006  -27.2589  -43.7219 H         1 UNK         0.3040 
     91 H91        22.4105  -26.1908  -41.8630 H         1 UNK         0.1015 
     92 H92        24.2814  -24.6208  -41.7232 H         1 UNK         0.0786 
     93 H93        23.7640  -24.6807  -43.3935 H         1 UNK         0.0786 
     94 H94        25.2208  -25.5358  -42.9003 H         1 UNK         0.0786 
     95 H95        24.9040  -25.9238  -40.3753 H         1 UNK         0.3172 
     96 H96        26.0693  -26.8310  -38.7239 H         1 UNK         0.0595 
     97 H97        26.5061  -29.1031  -40.7335 H         1 UNK         0.0839 
     98 H98        27.5807  -28.6664  -39.4121 H         1 UNK         0.0839 
     99 H99        27.3551  -27.5586  -40.7523 H         1 UNK         0.0839 
    100 H100       23.1748  -27.7787  -38.8126 H         1 UNK         0.2998 
    101 H101       21.7219  -29.0805  -37.7641 H         1 UNK         0.0822 
    102 H102       22.2112  -29.9887  -35.5386 H         1 UNK         0.0787 
    103 H103       22.9348  -28.3959  -35.6793 H         1 UNK         0.0787 
    104 H104       23.9414  -29.8388  -35.7983 H         1 UNK         0.0787 
    105 H105       23.2342  -30.1506  -40.0165 H         1 UNK         0.3055 
    106 H106       24.1494  -32.7339  -39.7348 H         1 UNK         0.1106 
    107 H107       24.5431  -31.3351  -41.7289 H         1 UNK         0.0828 
    108 H108       23.8261  -32.8560  -42.2332 H         1 UNK         0.0828 
    109 H109       22.8382  -31.4020  -42.1657 H         1 UNK         0.0828 
    110 H110       20.8009  -31.8183  -39.8250 H         1 UNK         0.2931 
    111 H111       19.9224  -34.6677  -39.9857 H         1 UNK         0.0412 
    112 H112       20.7938  -32.7066  -37.5297 H         1 UNK         0.3472 
    113 H113       19.4815  -33.0646  -36.4340 H         1 UNK         0.3472 
    114 H114       17.6793  -33.7771  -40.6760 H         1 UNK         0.0970 
    115 H115       18.3354  -32.1686  -40.7449 H         1 UNK         0.0970 
    116 H116       20.6992  -32.2205  -43.7025 H         1 UNK         0.0612 
    117 H117       20.1551  -31.4188  -42.2649 H         1 UNK         0.0612 
@<TRIPOS>BOND
     1    1    2 1    
     2    1   62 1    
     3    1   63 1    
     4    1   64 1    
     5    2    3 2    
     6    2    4 am   BACKBONE|DICT|INTERRES
     7    4    5 1    
     8    4   65 1    
     9    5    6 1    
    10    5   25 1    
    11    5   66 1    
    12    6    7 1    
    13    6   67 1    
    14    6   68 1    
    15    7    8 1    
    16    8    9 1    
    17    8   69 1    
    18    8   70 1    
    19    9   10 ar   
    20    9   14 ar   
    21   10   11 ar   
    22   10   71 1    
    23   11   12 ar   
    24   11   61 1    
    25   12   13 ar   
    26   12   72 1    
    27   13   14 ar   
    28   13   15 1    
    29   14   73 1    
    30   15   16 1    
    31   15   74 1    
    32   15   75 1    
    33   16   17 1    
    34   17   18 1    
    35   17   76 1    
    36   17   77 1    
    37   18   19 1    
    38   18   27 1    
    39   18   78 1    
    40   19   20 am   BACKBONE|DICT|INTERRES
    41   19   79 1    
    42   20   21 2    
    43   20   22 1    
    44   22   23 1    
    45   22   24 1    
    46   22   80 1    
    47   23   81 1    
    48   23   82 1    
    49   23   83 1    
    50   24   25 am   BACKBONE|DICT|INTERRES
    51   24   84 1    
    52   25   26 2    
    53   27   28 2    
    54   27   29 am   BACKBONE|DICT|INTERRES
    55   29   30 1    
    56   29   85 1    
    57   30   31 1    
    58   30   32 1    
    59   30   86 1    
    60   31   87 1    
    61   31   88 1    
    62   31   89 1    
    63   32   33 2    
    64   32   34 am   BACKBONE|DICT|INTERRES
    65   34   35 1    
    66   34   90 1    
    67   35   36 1    
    68   35   37 1    
    69   35   91 1    
    70   36   92 1    
    71   36   93 1    
    72   36   94 1    
    73   37   38 2    
    74   37   39 am   BACKBONE|DICT|INTERRES
    75   39   40 1    
    76   39   95 1    
    77   40   41 1    
    78   40   42 1    
    79   40   96 1    
    80   41   97 1    
    81   41   98 1    
    82   41   99 1    
    83   42   43 2    
    84   42   44 am   BACKBONE|DICT|INTERRES
    85   44   45 1    
    86   44  100 1    
    87   45   46 1    
    88   45   47 1    
    89   45  101 1    
    90   46  102 1    
    91   46  103 1    
    92   46  104 1    
    93   47   48 2    
    94   47   49 am   BACKBONE|DICT|INTERRES
    95   49   50 1    
    96   49  105 1    
    97   50   51 1    
    98   50   52 1    
    99   50  106 1    
   100   51  107 1    
   101   51  108 1    
   102   51  109 1    
   103   52   53 2    
   104   52   54 am   BACKBONE|DICT|INTERRES
   105   54   55 1    
   106   54  110 1    
   107   55   56 1    
   108   55   59 1    
   109   55  111 1    
   110   56   57 am   BACKBONE|DICT|INTERRES
   111   56   58 2    
   112   57  112 1    
   113   57  113 1    
   114   59   60 1    
   115   59  114 1    
   116   59  115 1    
   117   60   61 1    
   118   61  116 1    
   119   61  117 1    
@<TRIPOS>SUBSTRUCTURE
     1 UNK         1 GROUP             0       ****    0 ROOT    
