@<TRIPOS>MOLECULE
3R8
117   119    1
SMALL
USER_CHARGES


@<TRIPOS>ATOM
      1 CA         20.0427  -27.5529  -41.7142 C.3       0 UNK        -0.2013 
      2 C          19.3164  -26.9438  -42.9019 C.2       0 UNK         0.4866 
      3 O          19.5461  -27.3488  -44.0401 O.2       0 UNK        -0.5176 
      4 N          18.4634  -25.9422  -42.6391 N.am      1 UNK        -0.4884 
      5 CA         17.5437  -25.2800  -43.5865 C.3       1 UNK         0.0853 
      6 C6         16.3837  -26.2006  -44.0557 C.3       10 UNK        -0.0849 
      7 S7         15.5193  -27.0667  -42.6964 S.3       10 UNK        -0.2776 
      8 C8         14.9045  -28.5670  -43.5345 C.3       10 UNK         0.0316 
      9 C9         16.0359  -29.4478  -44.0483 C.ar      10 UNK        -0.0863 
     10 C10        16.7281  -30.2931  -43.1774 C.ar      10 UNK        -0.1009 
     11 C11        17.7834  -31.0841  -43.6436 C.ar      10 UNK        -0.0712 
     12 C12        18.1595  -31.0092  -44.9902 C.ar      10 UNK        -0.0894 
     13 C13        17.4659  -30.1728  -45.8730 C.ar      10 UNK        -0.0745 
     14 C14        16.3928  -29.4149  -45.3990 C.ar      10 UNK        -0.0972 
     15 C15        17.8510  -30.0881  -47.3445 C.3       10 UNK         0.0209 
     16 S16        18.5522  -28.4610  -47.7791 S.3       10 UNK        -0.2568 
     17 C17        20.2239  -28.6261  -47.0824 C.3       10 UNK        -0.0983 
     18 CA         21.0770  -27.3403  -47.2246 C.3       3 UNK         0.0876 
     19 N          20.5255  -26.1960  -46.4849 N.am      3 UNK        -0.4424 
     20 C          20.8762  -24.9198  -46.7134 C.2       2 UNK         0.4918 
     21 O          21.5440  -24.5745  -47.6895 O.2       2 UNK        -0.4875 
     22 CA         20.4917  -23.8493  -45.6671 C.3       2 UNK         0.0481 
     23 CB         20.0354  -22.5253  -46.3170 C.3       2 UNK        -0.1831 
     24 N          19.5484  -24.3095  -44.6417 N.am      2 UNK        -0.4498 
     25 C          18.2540  -24.6247  -44.7985 C.2       1 UNK         0.5027 
     26 O          17.6325  -24.4449  -45.8471 O.2       1 UNK        -0.4969 
     27 C          22.5138  -27.6283  -46.7466 C.2       3 UNK         0.5005 
     28 O          23.3761  -27.9762  -47.5550 O.2       3 UNK        -0.5279 
     29 N          22.7319  -27.4688  -45.4373 N.am      4 UNK        -0.4463 
     30 CA         23.9745  -27.6657  -44.7038 C.3       4 UNK         0.0283 
     31 CB         24.2908  -29.1732  -44.6015 C.3       4 UNK        -0.1875 
     32 C          23.7908  -27.0208  -43.3208 C.2       4 UNK         0.4949 
     33 O          22.7752  -26.3601  -43.0810 O.2       4 UNK        -0.5039 
     34 N          24.7577  -27.2372  -42.4217 N.am      5 UNK        -0.4663 
     35 CA         24.6103  -26.9553  -40.9920 C.3       5 UNK         0.0242 
     36 CB         25.9925  -27.0225  -40.3222 C.3       5 UNK        -0.1982 
     37 C          23.6545  -27.9714  -40.3433 C.2       5 UNK         0.5017 
     38 O          23.5996  -29.1195  -40.7886 O.2       5 UNK        -0.5012 
     39 N          22.9593  -27.5588  -39.2745 N.am      6 UNK        -0.4439 
     40 CA         21.9814  -28.3795  -38.5439 C.3       6 UNK         0.0297 
     41 CB         21.3217  -27.5314  -37.4454 C.3       6 UNK        -0.2006 
     42 C          22.5495  -29.6839  -37.9516 C.2       6 UNK         0.4892 
     43 O          21.8020  -30.6487  -37.7951 O.2       6 UNK        -0.5089 
     44 N          23.8605  -29.7061  -37.6725 N.am      7 UNK        -0.4243 
     45 CA         24.6049  -30.8885  -37.2352 C.3       7 UNK         0.0196 
     46 CB         26.0182  -30.4636  -36.8058 C.3       7 UNK        -0.2007 
     47 C          24.6798  -31.9998  -38.2995 C.2       7 UNK         0.5020 
     48 O          24.7644  -33.1716  -37.9316 O.2       7 UNK        -0.5147 
     49 N          24.6302  -31.6354  -39.5906 N.am      8 UNK        -0.4734 
     50 CA         24.6506  -32.5844  -40.7099 C.3       8 UNK         0.0238 
     51 CB         25.0253  -31.8477  -42.0052 C.3       8 UNK        -0.1912 
     52 C          23.3185  -33.3344  -40.8819 C.2       8 UNK         0.5038 
     53 O          23.3162  -34.4260  -41.4524 O.2       8 UNK        -0.5046 
     54 N          22.2237  -32.7532  -40.3743 N.am      9 UNK        -0.4200 
     55 CA         20.8960  -33.3796  -40.3055 C.3       9 UNK         0.0839 
     56 C          20.7603  -34.4521  -39.1832 C.2       9 UNK         0.5513 
     57 N          21.7357  -34.6342  -38.2995 N.am      9 UNK        -0.7519 
     58 O          19.7475  -35.1442  -39.1205 O.2       9 UNK        -0.4960 
     59 C59        19.7663  -32.3218  -40.2043 C.3       10 UNK        -0.0876 
     60 S60        19.7009  -31.1934  -41.6392 S.3       10 UNK        -0.2414 
     61 C61        18.4814  -32.0430  -42.6903 C.3       10 UNK         0.0169 
     62 H62        20.8330  -28.2245  -42.0507 H         1 UNK         0.0903 
     63 H63        19.3491  -28.1272  -41.1007 H         1 UNK         0.0903 
     64 H64        20.5003  -26.7793  -41.0982 H         1 UNK         0.0903 
     65 H65        18.3493  -25.6527  -41.6772 H         1 UNK         0.3096 
     66 H66        17.0957  -24.4517  -43.0352 H         1 UNK         0.1121 
     67 H67        15.6362  -25.6268  -44.6067 H         1 UNK         0.0849 
     68 H68        16.7827  -26.9275  -44.7601 H         1 UNK         0.0849 
     69 H69        14.2904  -29.1359  -42.8349 H         1 UNK         0.0865 
     70 H70        14.2416  -28.2763  -44.3510 H         1 UNK         0.0865 
     71 H71        16.4476  -30.3338  -42.1337 H         1 UNK         0.1346 
     72 H72        18.9824  -31.6103  -45.3517 H         1 UNK         0.1412 
     73 H73        15.8575  -28.7694  -46.0822 H         1 UNK         0.1426 
     74 H74        18.5585  -30.8748  -47.6109 H         1 UNK         0.0716 
     75 H75        16.9621  -30.2593  -47.9531 H         1 UNK         0.0716 
     76 H76        20.7081  -29.4597  -47.5954 H         1 UNK         0.0695 
     77 H77        20.1389  -28.9224  -46.0355 H         1 UNK         0.0695 
     78 H78        21.1281  -27.0806  -48.2844 H         1 UNK         0.0983 
     79 H79        19.9846  -26.4303  -45.6555 H         1 UNK         0.3095 
     80 H80        21.4136  -23.6355  -45.1245 H         1 UNK         0.0454 
     81 H81        19.7689  -21.7831  -45.5648 H         1 UNK         0.0851 
     82 H82        19.1753  -22.6663  -46.9717 H         1 UNK         0.0851 
     83 H83        20.8320  -22.0950  -46.9249 H         1 UNK         0.0851 
     84 H84        19.9588  -24.5231  -43.7424 H         1 UNK         0.2976 
     85 H85        21.9726  -27.1388  -44.8500 H         1 UNK         0.3116 
     86 H86        24.7828  -27.1466  -45.2220 H         1 UNK         0.0646 
     87 H87        24.3878  -29.6314  -45.5856 H         1 UNK         0.0847 
     88 H88        25.2297  -29.3552  -44.0785 H         1 UNK         0.0847 
     89 H89        23.5049  -29.7056  -44.0643 H         1 UNK         0.0847 
     90 H90        25.5476  -27.8064  -42.6877 H         1 UNK         0.3040 
     91 H91        24.2006  -25.9498  -40.8707 H         1 UNK         0.1015 
     92 H92        26.4343  -28.0169  -40.4039 H         1 UNK         0.0786 
     93 H93        25.9270  -26.7811  -39.2605 H         1 UNK         0.0786 
     94 H94        26.6852  -26.3103  -40.7712 H         1 UNK         0.0786 
     95 H95        23.0781  -26.6077  -38.9547 H         1 UNK         0.3172 
     96 H96        21.2074  -28.6712  -39.2566 H         1 UNK         0.0595 
     97 H97        22.0504  -27.1774  -36.7150 H         1 UNK         0.0839 
     98 H98        20.5726  -28.1104  -36.9029 H         1 UNK         0.0839 
     99 H99        20.8132  -26.6628  -37.8641 H         1 UNK         0.0839 
    100 H100       24.3932  -28.8634  -37.8289 H         1 UNK         0.2998 
    101 H101       24.0911  -31.3037  -36.3654 H         1 UNK         0.0822 
    102 H102       25.9855  -29.7379  -35.9928 H         1 UNK         0.0787 
    103 H103       26.5916  -31.3207  -36.4493 H         1 UNK         0.0787 
    104 H104       26.5754  -30.0197  -37.6320 H         1 UNK         0.0787 
    105 H105       24.4873  -30.6589  -39.8306 H         1 UNK         0.3055 
    106 H106       25.4216  -33.3323  -40.5102 H         1 UNK         0.1106 
    107 H107       25.9619  -31.3003  -41.8992 H         1 UNK         0.0828 
    108 H108       25.1501  -32.5503  -42.8301 H         1 UNK         0.0828 
    109 H109       24.2512  -31.1399  -42.2992 H         1 UNK         0.0828 
    110 H110       22.3192  -31.8611  -39.9102 H         1 UNK         0.2931 
    111 H111       20.7423  -33.9193  -41.2420 H         1 UNK         0.0412 
    112 H112       21.6270  -35.3373  -37.5855 H         1 UNK         0.3472 
    113 H113       22.5796  -34.0809  -38.3362 H         1 UNK         0.3472 
    114 H114       18.7934  -32.8023  -40.0875 H         1 UNK         0.0970 
    115 H115       19.8978  -31.7173  -39.3058 H         1 UNK         0.0970 
    116 H116       18.9823  -32.8405  -43.2412 H         1 UNK         0.0612 
    117 H117       17.7248  -32.5275  -42.0720 H         1 UNK         0.0612 
@<TRIPOS>BOND
     1    1    2 1    
     2    1   62 1    
     3    1   63 1    
     4    1   64 1    
     5    2    3 2    
     6    2    4 am   BACKBONE|DICT|INTERRES
     7    4    5 1    
     8    4   65 1    
     9    5    6 1    
    10    5   25 1    
    11    5   66 1    
    12    6    7 1    
    13    6   67 1    
    14    6   68 1    
    15    7    8 1    
    16    8    9 1    
    17    8   69 1    
    18    8   70 1    
    19    9   10 ar   
    20    9   14 ar   
    21   10   11 ar   
    22   10   71 1    
    23   11   12 ar   
    24   11   61 1    
    25   12   13 ar   
    26   12   72 1    
    27   13   14 ar   
    28   13   15 1    
    29   14   73 1    
    30   15   16 1    
    31   15   74 1    
    32   15   75 1    
    33   16   17 1    
    34   17   18 1    
    35   17   76 1    
    36   17   77 1    
    37   18   19 1    
    38   18   27 1    
    39   18   78 1    
    40   19   20 am   BACKBONE|DICT|INTERRES
    41   19   79 1    
    42   20   21 2    
    43   20   22 1    
    44   22   23 1    
    45   22   24 1    
    46   22   80 1    
    47   23   81 1    
    48   23   82 1    
    49   23   83 1    
    50   24   25 am   BACKBONE|DICT|INTERRES
    51   24   84 1    
    52   25   26 2    
    53   27   28 2    
    54   27   29 am   BACKBONE|DICT|INTERRES
    55   29   30 1    
    56   29   85 1    
    57   30   31 1    
    58   30   32 1    
    59   30   86 1    
    60   31   87 1    
    61   31   88 1    
    62   31   89 1    
    63   32   33 2    
    64   32   34 am   BACKBONE|DICT|INTERRES
    65   34   35 1    
    66   34   90 1    
    67   35   36 1    
    68   35   37 1    
    69   35   91 1    
    70   36   92 1    
    71   36   93 1    
    72   36   94 1    
    73   37   38 2    
    74   37   39 am   BACKBONE|DICT|INTERRES
    75   39   40 1    
    76   39   95 1    
    77   40   41 1    
    78   40   42 1    
    79   40   96 1    
    80   41   97 1    
    81   41   98 1    
    82   41   99 1    
    83   42   43 2    
    84   42   44 am   BACKBONE|DICT|INTERRES
    85   44   45 1    
    86   44  100 1    
    87   45   46 1    
    88   45   47 1    
    89   45  101 1    
    90   46  102 1    
    91   46  103 1    
    92   46  104 1    
    93   47   48 2    
    94   47   49 am   BACKBONE|DICT|INTERRES
    95   49   50 1    
    96   49  105 1    
    97   50   51 1    
    98   50   52 1    
    99   50  106 1    
   100   51  107 1    
   101   51  108 1    
   102   51  109 1    
   103   52   53 2    
   104   52   54 am   BACKBONE|DICT|INTERRES
   105   54   55 1    
   106   54  110 1    
   107   55   56 1    
   108   55   59 1    
   109   55  111 1    
   110   56   57 am   BACKBONE|DICT|INTERRES
   111   56   58 2    
   112   57  112 1    
   113   57  113 1    
   114   59   60 1    
   115   59  114 1    
   116   59  115 1    
   117   60   61 1    
   118   61  116 1    
   119   61  117 1    
@<TRIPOS>SUBSTRUCTURE
     1 UNK         1 GROUP             0       ****    0 ROOT    
