@<TRIPOS>MOLECULE
3R8
117   119    1
SMALL
USER_CHARGES


@<TRIPOS>ATOM
      1 CA         17.2641  -27.4890  -38.3812 C.3       0 UNK        -0.2013 
      2 C          16.8907  -27.5209  -39.8551 C.2       0 UNK         0.4866 
      3 O          15.7491  -27.8391  -40.1876 O.2       0 UNK        -0.5176 
      4 N          17.8420  -27.1839  -40.7333 N.am      1 UNK        -0.4884 
      5 CA         17.6492  -27.0387  -42.1781 C.3       1 UNK         0.0853 
      6 C6         18.2047  -28.2356  -42.9870 C.3       10 UNK        -0.0849 
      7 S7         17.3283  -29.8083  -42.6922 S.3       10 UNK        -0.2776 
      8 C8         17.5397  -30.6659  -44.2887 C.3       10 UNK         0.0316 
      9 C9         19.0092  -30.9036  -44.6052 C.ar      10 UNK        -0.0863 
     10 C10        19.6520  -32.0682  -44.1764 C.ar      10 UNK        -0.1009 
     11 C11        21.0173  -32.2562  -44.4209 C.ar      10 UNK        -0.0712 
     12 C12        21.7422  -31.2581  -45.0843 C.ar      10 UNK        -0.0894 
     13 C13        21.1044  -30.0938  -45.5226 C.ar      10 UNK        -0.0745 
     14 C14        19.7350  -29.9397  -45.3085 C.ar      10 UNK        -0.0972 
     15 C15        21.8796  -28.9720  -46.1932 C.3       10 UNK         0.0209 
     16 S16        22.2467  -27.6657  -44.9808 S.3       10 UNK        -0.2568 
     17 C17        22.2853  -26.1675  -46.0233 C.3       10 UNK        -0.0983 
     18 CA         22.1141  -24.8307  -45.2431 C.3       3 UNK         0.0876 
     19 N          20.8005  -24.6756  -44.6190 N.am      3 UNK        -0.4424 
     20 C          19.6923  -24.2780  -45.2486 C.2       2 UNK         0.4918 
     21 O          19.6191  -24.1370  -46.4708 O.2       2 UNK        -0.4875 
     22 CA         18.4674  -23.9750  -44.3635 C.3       2 UNK         0.0481 
     23 CB         17.3433  -23.2626  -45.1396 C.3       2 UNK        -0.1831 
     24 N          17.9246  -25.1928  -43.7614 N.am      2 UNK        -0.4498 
     25 C          18.3525  -25.7425  -42.6182 C.2       1 UNK         0.5027 
     26 O          19.2735  -25.2800  -41.9385 O.2       1 UNK        -0.4969 
     27 C          23.1916  -24.6088  -44.1660 C.2       3 UNK         0.5005 
     28 O          22.8779  -24.6075  -42.9721 O.2       3 UNK        -0.5279 
     29 N          24.4426  -24.4279  -44.6068 N.am      4 UNK        -0.4463 
     30 CA         25.6170  -24.3246  -43.7342 C.3       4 UNK         0.0283 
     31 CB         26.6076  -23.3230  -44.3523 C.3       4 UNK        -0.1875 
     32 C          26.3064  -25.6837  -43.5086 C.2       4 UNK         0.4949 
     33 O          27.1659  -25.7786  -42.6324 O.2       4 UNK        -0.5039 
     34 N          25.9582  -26.6959  -44.3167 N.am      5 UNK        -0.4663 
     35 CA         26.6045  -28.0102  -44.3317 C.3       5 UNK         0.0242 
     36 CB         26.2389  -28.7358  -45.6373 C.3       5 UNK        -0.1982 
     37 C          26.2561  -28.8879  -43.1196 C.2       5 UNK         0.5017 
     38 O          27.1191  -29.6318  -42.6517 O.2       5 UNK        -0.5012 
     39 N          25.0081  -28.8010  -42.6479 N.am      6 UNK        -0.4439 
     40 CA         24.4393  -29.5922  -41.5590 C.3       6 UNK         0.0297 
     41 CB         24.2769  -31.0652  -41.9926 C.3       6 UNK        -0.2006 
     42 C          23.0974  -28.9653  -41.1513 C.2       6 UNK         0.4892 
     43 O          22.7598  -27.8811  -41.6298 O.2       6 UNK        -0.5089 
     44 N          22.3550  -29.6503  -40.2769 N.am      7 UNK        -0.4243 
     45 CA         21.0120  -29.2751  -39.8524 C.3       7 UNK         0.0196 
     46 CB         21.0887  -28.2816  -38.6797 C.3       7 UNK        -0.2007 
     47 C          20.2632  -30.5471  -39.4509 C.2       7 UNK         0.5020 
     48 O          20.8440  -31.3939  -38.7673 O.2       7 UNK        -0.5147 
     49 N          18.9928  -30.6435  -39.8635 N.am      8 UNK        -0.4734 
     50 CA         18.0251  -31.7247  -39.6265 C.3       8 UNK         0.0238 
     51 CB         17.7115  -31.8887  -38.1253 C.3       8 UNK        -0.1912 
     52 C          18.4010  -33.0680  -40.2773 C.2       8 UNK         0.5038 
     53 O          17.6357  -33.5709  -41.1006 O.2       8 UNK        -0.5046 
     54 N          19.5546  -33.6227  -39.8865 N.am      9 UNK        -0.4200 
     55 CA         20.1081  -34.9168  -40.3231 C.3       9 UNK         0.0839 
     56 C          19.2466  -36.1582  -39.9343 C.2       9 UNK         0.5513 
     57 N          18.3783  -36.0685  -38.9337 N.am      9 UNK        -0.7519 
     58 O          19.3853  -37.2289  -40.5208 O.2       9 UNK        -0.4960 
     59 C59        20.5329  -34.9155  -41.8187 C.3       10 UNK        -0.0876 
     60 S60        21.8200  -33.6702  -42.1676 S.3       10 UNK        -0.2414 
     61 C61        21.7103  -33.5378  -43.9790 C.3       10 UNK         0.0169 
     62 H62        18.0676  -26.7791  -38.1871 H         1 UNK         0.0903 
     63 H63        16.4059  -27.1897  -37.7797 H         1 UNK         0.0903 
     64 H64        17.5824  -28.4770  -38.0506 H         1 UNK         0.0903 
     65 H65        18.7325  -26.8270  -40.4093 H         1 UNK         0.3096 
     66 H66        16.5851  -26.9219  -42.3978 H         1 UNK         0.1121 
     67 H67        18.1188  -28.0103  -44.0500 H         1 UNK         0.0849 
     68 H68        19.2687  -28.3839  -42.7895 H         1 UNK         0.0849 
     69 H69        17.0086  -31.6183  -44.2507 H         1 UNK         0.0865 
     70 H70        17.0667  -30.0857  -45.0825 H         1 UNK         0.0865 
     71 H71        19.0917  -32.8201  -43.6385 H         1 UNK         0.1346 
     72 H72        22.8026  -31.3827  -45.2551 H         1 UNK         0.1412 
     73 H73        19.2478  -29.0401  -45.6564 H         1 UNK         0.1426 
     74 H74        21.2915  -28.5695  -47.0190 H         1 UNK         0.0716 
     75 H75        22.8104  -29.3422  -46.6247 H         1 UNK         0.0716 
     76 H76        23.2230  -26.1661  -46.5809 H         1 UNK         0.0695 
     77 H77        21.4995  -26.2439  -46.7759 H         1 UNK         0.0695 
     78 H78        22.2309  -24.0110  -45.9561 H         1 UNK         0.0983 
     79 H79        20.8053  -24.7725  -43.6080 H         1 UNK         0.3095 
     80 H80        18.7963  -23.2960  -43.5737 H         1 UNK         0.0454 
     81 H81        17.7059  -22.3377  -45.5902 H         1 UNK         0.0851 
     82 H82        16.9472  -23.8833  -45.9443 H         1 UNK         0.0851 
     83 H83        16.5150  -22.9964  -44.4828 H         1 UNK         0.0851 
     84 H84        17.1905  -25.6532  -44.2810 H         1 UNK         0.2976 
     85 H85        24.6160  -24.4034  -45.6023 H         1 UNK         0.3116 
     86 H86        25.3215  -23.9423  -42.7547 H         1 UNK         0.0646 
     87 H87        27.4818  -23.1929  -43.7128 H         1 UNK         0.0847 
     88 H88        26.1526  -22.3403  -44.4772 H         1 UNK         0.0847 
     89 H89        26.9656  -23.6548  -45.3277 H         1 UNK         0.0847 
     90 H90        25.2232  -26.5426  -44.9901 H         1 UNK         0.3040 
     91 H91        27.6861  -27.8556  -44.3208 H         1 UNK         0.1015 
     92 H92        26.5562  -28.1668  -46.5114 H         1 UNK         0.0786 
     93 H93        25.1648  -28.9065  -45.7178 H         1 UNK         0.0786 
     94 H94        26.7277  -29.7098  -45.6920 H         1 UNK         0.0786 
     95 H95        24.3655  -28.1203  -43.0390 H         1 UNK         0.3172 
     96 H96        25.1100  -29.5355  -40.6997 H         1 UNK         0.0595 
     97 H97        25.2172  -31.4999  -42.3303 H         1 UNK         0.0839 
     98 H98        23.5568  -31.1616  -42.8051 H         1 UNK         0.0839 
     99 H99        23.9283  -31.6881  -41.1689 H         1 UNK         0.0839 
    100 H100       22.6723  -30.5470  -39.9310 H         1 UNK         0.2998 
    101 H101       20.4873  -28.8079  -40.6887 H         1 UNK         0.0822 
    102 H102       21.5486  -27.3417  -38.9861 H         1 UNK         0.0787 
    103 H103       20.0975  -28.0491  -38.2941 H         1 UNK         0.0787 
    104 H104       21.6715  -28.6853  -37.8508 H         1 UNK         0.0787 
    105 H105       18.6455  -29.9182  -40.4786 H         1 UNK         0.3055 
    106 H106       17.1008  -31.4021  -40.1095 H         1 UNK         0.1106 
    107 H107       18.5874  -32.1852  -37.5480 H         1 UNK         0.0828 
    108 H108       17.3299  -30.9618  -37.6983 H         1 UNK         0.0828 
    109 H109       16.9478  -32.6518  -37.9696 H         1 UNK         0.0828 
    110 H110       20.1338  -33.0781  -39.2536 H         1 UNK         0.2931 
    111 H111       21.0202  -35.0402  -39.7382 H         1 UNK         0.0412 
    112 H112       17.8318  -36.8766  -38.6792 H         1 UNK         0.3472 
    113 H113       18.2662  -35.2029  -38.4310 H         1 UNK         0.3472 
    114 H114       19.6673  -34.7513  -42.4610 H         1 UNK         0.0970 
    115 H115       20.9428  -35.8856  -42.1054 H         1 UNK         0.0970 
    116 H116       21.1850  -34.3994  -44.3931 H         1 UNK         0.0612 
    117 H117       22.7229  -33.5803  -44.3831 H         1 UNK         0.0612 
@<TRIPOS>BOND
     1    1    2 1    
     2    1   62 1    
     3    1   63 1    
     4    1   64 1    
     5    2    3 2    
     6    2    4 am   BACKBONE|DICT|INTERRES
     7    4    5 1    
     8    4   65 1    
     9    5    6 1    
    10    5   25 1    
    11    5   66 1    
    12    6    7 1    
    13    6   67 1    
    14    6   68 1    
    15    7    8 1    
    16    8    9 1    
    17    8   69 1    
    18    8   70 1    
    19    9   10 ar   
    20    9   14 ar   
    21   10   11 ar   
    22   10   71 1    
    23   11   12 ar   
    24   11   61 1    
    25   12   13 ar   
    26   12   72 1    
    27   13   14 ar   
    28   13   15 1    
    29   14   73 1    
    30   15   16 1    
    31   15   74 1    
    32   15   75 1    
    33   16   17 1    
    34   17   18 1    
    35   17   76 1    
    36   17   77 1    
    37   18   19 1    
    38   18   27 1    
    39   18   78 1    
    40   19   20 am   BACKBONE|DICT|INTERRES
    41   19   79 1    
    42   20   21 2    
    43   20   22 1    
    44   22   23 1    
    45   22   24 1    
    46   22   80 1    
    47   23   81 1    
    48   23   82 1    
    49   23   83 1    
    50   24   25 am   BACKBONE|DICT|INTERRES
    51   24   84 1    
    52   25   26 2    
    53   27   28 2    
    54   27   29 am   BACKBONE|DICT|INTERRES
    55   29   30 1    
    56   29   85 1    
    57   30   31 1    
    58   30   32 1    
    59   30   86 1    
    60   31   87 1    
    61   31   88 1    
    62   31   89 1    
    63   32   33 2    
    64   32   34 am   BACKBONE|DICT|INTERRES
    65   34   35 1    
    66   34   90 1    
    67   35   36 1    
    68   35   37 1    
    69   35   91 1    
    70   36   92 1    
    71   36   93 1    
    72   36   94 1    
    73   37   38 2    
    74   37   39 am   BACKBONE|DICT|INTERRES
    75   39   40 1    
    76   39   95 1    
    77   40   41 1    
    78   40   42 1    
    79   40   96 1    
    80   41   97 1    
    81   41   98 1    
    82   41   99 1    
    83   42   43 2    
    84   42   44 am   BACKBONE|DICT|INTERRES
    85   44   45 1    
    86   44  100 1    
    87   45   46 1    
    88   45   47 1    
    89   45  101 1    
    90   46  102 1    
    91   46  103 1    
    92   46  104 1    
    93   47   48 2    
    94   47   49 am   BACKBONE|DICT|INTERRES
    95   49   50 1    
    96   49  105 1    
    97   50   51 1    
    98   50   52 1    
    99   50  106 1    
   100   51  107 1    
   101   51  108 1    
   102   51  109 1    
   103   52   53 2    
   104   52   54 am   BACKBONE|DICT|INTERRES
   105   54   55 1    
   106   54  110 1    
   107   55   56 1    
   108   55   59 1    
   109   55  111 1    
   110   56   57 am   BACKBONE|DICT|INTERRES
   111   56   58 2    
   112   57  112 1    
   113   57  113 1    
   114   59   60 1    
   115   59  114 1    
   116   59  115 1    
   117   60   61 1    
   118   61  116 1    
   119   61  117 1    
@<TRIPOS>SUBSTRUCTURE
     1 UNK         1 GROUP             0       ****    0 ROOT    
