@<TRIPOS>MOLECULE
3R8
117   119    1
SMALL
USER_CHARGES


@<TRIPOS>ATOM
      1 CA         15.1623  -23.5202  -40.1296 C.3       0 UNK        -0.2013 
      2 C          16.1364  -23.9398  -41.2204 C.2       0 UNK         0.4866 
      3 O          17.2734  -23.4672  -41.2419 O.2       0 UNK        -0.5176 
      4 N          15.6977  -24.8161  -42.1316 N.am      1 UNK        -0.4884 
      5 CA         16.5163  -25.3976  -43.1992 C.3       1 UNK         0.0853 
      6 C6         15.6389  -25.9891  -44.3342 C.3       10 UNK        -0.0849 
      7 S7         14.4159  -27.2243  -43.7615 S.3       10 UNK        -0.2776 
      8 C8         14.5563  -28.5304  -45.0239 C.3       10 UNK         0.0316 
      9 C9         15.9199  -29.2142  -45.0582 C.ar      10 UNK        -0.0863 
     10 C10        16.4310  -29.8582  -43.9269 C.ar      10 UNK        -0.1009 
     11 C11        17.6428  -30.5577  -43.9783 C.ar      10 UNK        -0.0712 
     12 C12        18.3448  -30.6047  -45.1921 C.ar      10 UNK        -0.0894 
     13 C13        17.8508  -29.9549  -46.3278 C.ar      10 UNK        -0.0745 
     14 C14        16.6437  -29.2569  -46.2515 C.ar      10 UNK        -0.0972 
     15 C15        18.5859  -30.0388  -47.6575 C.3       10 UNK         0.0209 
     16 S16        19.7696  -28.6727  -47.8697 S.3       10 UNK        -0.2568 
     17 C17        21.2660  -29.3518  -47.0793 C.3       10 UNK        -0.0983 
     18 CA         21.8136  -28.4551  -45.9393 C.3       3 UNK         0.0876 
     19 N          20.8142  -28.2759  -44.8834 N.am      3 UNK        -0.4424 
     20 C          20.8603  -27.3411  -43.9321 C.2       2 UNK         0.4918 
     21 O          21.6894  -26.4310  -43.8960 O.2       2 UNK        -0.4875 
     22 CA         19.7713  -27.4244  -42.8600 C.3       2 UNK         0.0481 
     23 CB         20.3392  -27.1630  -41.4526 C.3       2 UNK        -0.1831 
     24 N          18.7197  -26.4728  -43.1984 N.am      2 UNK        -0.4498 
     25 C          17.5083  -26.4355  -42.6316 C.2       1 UNK         0.5027 
     26 O          17.1566  -27.1826  -41.7137 O.2       1 UNK        -0.4969 
     27 C          23.1275  -29.0560  -45.3879 C.2       3 UNK         0.5005 
     28 O          23.1653  -29.5389  -44.2516 O.2       3 UNK        -0.5279 
     29 N          24.1590  -29.0768  -46.2467 N.am      4 UNK        -0.4463 
     30 CA         25.4217  -29.8137  -46.1163 C.3       4 UNK         0.0283 
     31 CB         25.1737  -31.3246  -46.3319 C.3       4 UNK        -0.1875 
     32 C          26.1829  -29.5019  -44.8154 C.2       4 UNK         0.4949 
     33 O          26.8841  -28.4921  -44.7546 O.2       4 UNK        -0.5039 
     34 N          26.0338  -30.3739  -43.8091 N.am      5 UNK        -0.4663 
     35 CA         26.6654  -30.2771  -42.4922 C.3       5 UNK         0.0242 
     36 CB         26.4381  -31.5954  -41.7339 C.3       5 UNK        -0.1982 
     37 C          26.1805  -29.0896  -41.6438 C.2       5 UNK         0.5017 
     38 O          26.8757  -28.7230  -40.6967 O.2       5 UNK        -0.5012 
     39 N          24.9984  -28.5361  -41.9600 N.am      6 UNK        -0.4439 
     40 CA         24.3373  -27.3746  -41.3399 C.3       6 UNK         0.0297 
     41 CB         25.1971  -26.1035  -41.4709 C.3       6 UNK        -0.2006 
     42 C          23.8608  -27.5713  -39.8858 C.2       6 UNK         0.4892 
     43 O          22.8984  -26.9185  -39.4821 O.2       6 UNK        -0.5089 
     44 N          24.4817  -28.4856  -39.1321 N.am      7 UNK        -0.4243 
     45 CA         24.0551  -28.9436  -37.8092 C.3       7 UNK         0.0196 
     46 CB         25.2540  -29.6014  -37.1020 C.3       7 UNK        -0.2007 
     47 C          22.8552  -29.8979  -37.9443 C.2       7 UNK         0.5020 
     48 O          23.0163  -31.1142  -37.8290 O.2       7 UNK        -0.5147 
     49 N          21.6870  -29.3261  -38.2760 N.am      8 UNK        -0.4734 
     50 CA         20.4130  -30.0036  -38.5713 C.3       8 UNK         0.0238 
     51 CB         19.8221  -30.6212  -37.2860 C.3       8 UNK        -0.1912 
     52 C          20.5190  -31.0240  -39.7264 C.2       8 UNK         0.5038 
     53 O          19.8192  -32.0363  -39.7117 O.2       8 UNK        -0.5046 
     54 N          21.4240  -30.7344  -40.6732 N.am      9 UNK        -0.4200 
     55 CA         21.8826  -31.5768  -41.7896 C.3       9 UNK         0.0839 
     56 C          22.4623  -32.9725  -41.4056 C.2       9 UNK         0.5513 
     57 N          22.8755  -33.1931  -40.1622 N.am      9 UNK        -0.7519 
     58 O          22.5951  -33.8507  -42.2539 O.2       9 UNK        -0.4960 
     59 C59        20.9373  -31.5569  -43.0270 C.3       10 UNK        -0.0876 
     60 S60        19.4023  -32.5404  -42.9090 S.3       10 UNK        -0.2414 
     61 C61        18.1334  -31.2419  -42.6974 C.3       10 UNK         0.0169 
     62 H62        14.1980  -24.0172  -40.2310 H         1 UNK         0.0903 
     63 H63        15.5685  -23.7664  -39.1491 H         1 UNK         0.0903 
     64 H64        14.9952  -22.4445  -40.1689 H         1 UNK         0.0903 
     65 H65        14.7700  -25.2086  -42.0481 H         1 UNK         0.3096 
     66 H66        17.1044  -24.5853  -43.6331 H         1 UNK         0.1121 
     67 H67        16.2701  -26.4201  -45.1135 H         1 UNK         0.0849 
     68 H68        15.0887  -25.1832  -44.8222 H         1 UNK         0.0849 
     69 H69        13.7955  -29.2867  -44.8262 H         1 UNK         0.0865 
     70 H70        14.3092  -28.1020  -45.9966 H         1 UNK         0.0865 
     71 H71        15.8728  -29.8211  -43.0008 H         1 UNK         0.1346 
     72 H72        19.2684  -31.1584  -45.2712 H         1 UNK         0.1412 
     73 H73        16.2547  -28.7694  -47.1354 H         1 UNK         0.1426 
     74 H74        17.8655  -29.9972  -48.4759 H         1 UNK         0.0716 
     75 H75        19.0906  -31.0006  -47.7599 H         1 UNK         0.0716 
     76 H76        22.0069  -29.4691  -47.8721 H         1 UNK         0.0695 
     77 H77        21.0690  -30.3589  -46.7082 H         1 UNK         0.0695 
     78 H78        22.0498  -27.4709  -46.3504 H         1 UNK         0.0983 
     79 H79        20.0585  -28.9440  -44.8764 H         1 UNK         0.3095 
     80 H80        19.3446  -28.4279  -42.8747 H         1 UNK         0.0454 
     81 H81        21.1355  -27.8708  -41.2319 H         1 UNK         0.0851 
     82 H82        19.5843  -27.2824  -40.6766 H         1 UNK         0.0851 
     83 H83        20.7559  -26.1593  -41.3607 H         1 UNK         0.0851 
     84 H84        18.9443  -25.8294  -43.9460 H         1 UNK         0.2976 
     85 H85        24.0408  -28.6010  -47.1308 H         1 UNK         0.3116 
     86 H86        26.0633  -29.4726  -46.9305 H         1 UNK         0.0646 
     87 H87        24.4502  -31.7344  -45.6262 H         1 UNK         0.0847 
     88 H88        26.0980  -31.8951  -46.2296 H         1 UNK         0.0847 
     89 H89        24.7925  -31.5166  -47.3349 H         1 UNK         0.0847 
     90 H90        25.4045  -31.1503  -43.9530 H         1 UNK         0.3040 
     91 H91        27.7388  -30.1450  -42.6447 H         1 UNK         0.1015 
     92 H92        25.3785  -31.7852  -41.5601 H         1 UNK         0.0786 
     93 H93        26.9285  -31.5767  -40.7593 H         1 UNK         0.0786 
     94 H94        26.8464  -32.4449  -42.2815 H         1 UNK         0.0786 
     95 H95        24.4979  -28.9441  -42.7454 H         1 UNK         0.3172 
     96 H96        23.4371  -27.2144  -41.9332 H         1 UNK         0.0595 
     97 H97        26.1124  -26.1651  -40.8819 H         1 UNK         0.0839 
     98 H98        24.6485  -25.2269  -41.1240 H         1 UNK         0.0839 
     99 H99        25.4761  -25.9206  -42.5086 H         1 UNK         0.0839 
    100 H100       25.3087  -28.9214  -39.5255 H         1 UNK         0.2998 
    101 H101       23.7406  -28.0835  -37.2141 H         1 UNK         0.0822 
    102 H102       26.0708  -28.8923  -36.9665 H         1 UNK         0.0787 
    103 H103       24.9720  -29.9644  -36.1128 H         1 UNK         0.0787 
    104 H104       25.6407  -30.4523  -37.6647 H         1 UNK         0.0787 
    105 H105       21.6977  -28.3204  -38.4164 H         1 UNK         0.3055 
    106 H106       19.7209  -29.2333  -38.9152 H         1 UNK         0.1106 
    107 H107       18.8193  -31.0117  -37.4632 H         1 UNK         0.0828 
    108 H108       20.4315  -31.4468  -36.9175 H         1 UNK         0.0828 
    109 H109       19.7427  -29.8812  -36.4898 H         1 UNK         0.0828 
    110 H110       21.9583  -29.8912  -40.5362 H         1 UNK         0.2931 
    111 H111       22.7779  -31.0496  -42.1194 H         1 UNK         0.0412 
    112 H112       23.2644  -34.0924  -39.9274 H         1 UNK         0.3472 
    113 H113       22.7958  -32.4786  -39.4482 H         1 UNK         0.3472 
    114 H114       21.4848  -31.9159  -43.9002 H         1 UNK         0.0970 
    115 H115       20.6840  -30.5247  -43.2604 H         1 UNK         0.0970 
    116 H116       18.5017  -30.4863  -42.0033 H         1 UNK         0.0612 
    117 H117       17.2802  -31.7108  -42.2052 H         1 UNK         0.0612 
@<TRIPOS>BOND
     1    1    2 1    
     2    1   62 1    
     3    1   63 1    
     4    1   64 1    
     5    2    3 2    
     6    2    4 am   BACKBONE|DICT|INTERRES
     7    4    5 1    
     8    4   65 1    
     9    5    6 1    
    10    5   25 1    
    11    5   66 1    
    12    6    7 1    
    13    6   67 1    
    14    6   68 1    
    15    7    8 1    
    16    8    9 1    
    17    8   69 1    
    18    8   70 1    
    19    9   10 ar   
    20    9   14 ar   
    21   10   11 ar   
    22   10   71 1    
    23   11   12 ar   
    24   11   61 1    
    25   12   13 ar   
    26   12   72 1    
    27   13   14 ar   
    28   13   15 1    
    29   14   73 1    
    30   15   16 1    
    31   15   74 1    
    32   15   75 1    
    33   16   17 1    
    34   17   18 1    
    35   17   76 1    
    36   17   77 1    
    37   18   19 1    
    38   18   27 1    
    39   18   78 1    
    40   19   20 am   BACKBONE|DICT|INTERRES
    41   19   79 1    
    42   20   21 2    
    43   20   22 1    
    44   22   23 1    
    45   22   24 1    
    46   22   80 1    
    47   23   81 1    
    48   23   82 1    
    49   23   83 1    
    50   24   25 am   BACKBONE|DICT|INTERRES
    51   24   84 1    
    52   25   26 2    
    53   27   28 2    
    54   27   29 am   BACKBONE|DICT|INTERRES
    55   29   30 1    
    56   29   85 1    
    57   30   31 1    
    58   30   32 1    
    59   30   86 1    
    60   31   87 1    
    61   31   88 1    
    62   31   89 1    
    63   32   33 2    
    64   32   34 am   BACKBONE|DICT|INTERRES
    65   34   35 1    
    66   34   90 1    
    67   35   36 1    
    68   35   37 1    
    69   35   91 1    
    70   36   92 1    
    71   36   93 1    
    72   36   94 1    
    73   37   38 2    
    74   37   39 am   BACKBONE|DICT|INTERRES
    75   39   40 1    
    76   39   95 1    
    77   40   41 1    
    78   40   42 1    
    79   40   96 1    
    80   41   97 1    
    81   41   98 1    
    82   41   99 1    
    83   42   43 2    
    84   42   44 am   BACKBONE|DICT|INTERRES
    85   44   45 1    
    86   44  100 1    
    87   45   46 1    
    88   45   47 1    
    89   45  101 1    
    90   46  102 1    
    91   46  103 1    
    92   46  104 1    
    93   47   48 2    
    94   47   49 am   BACKBONE|DICT|INTERRES
    95   49   50 1    
    96   49  105 1    
    97   50   51 1    
    98   50   52 1    
    99   50  106 1    
   100   51  107 1    
   101   51  108 1    
   102   51  109 1    
   103   52   53 2    
   104   52   54 am   BACKBONE|DICT|INTERRES
   105   54   55 1    
   106   54  110 1    
   107   55   56 1    
   108   55   59 1    
   109   55  111 1    
   110   56   57 am   BACKBONE|DICT|INTERRES
   111   56   58 2    
   112   57  112 1    
   113   57  113 1    
   114   59   60 1    
   115   59  114 1    
   116   59  115 1    
   117   60   61 1    
   118   61  116 1    
   119   61  117 1    
@<TRIPOS>SUBSTRUCTURE
     1 UNK         1 GROUP             0       ****    0 ROOT    
