@<TRIPOS>MOLECULE
3R8
117   119    1
SMALL
USER_CHARGES


@<TRIPOS>ATOM
      1 CA         13.8244  -24.3374  -45.3897 C.3       0 UNK        -0.2013 
      2 C          14.8460  -25.1665  -44.6261 C.2       0 UNK         0.4866 
      3 O          14.6861  -26.3816  -44.5112 O.2       0 UNK        -0.5176 
      4 N          15.8943  -24.5215  -44.1055 N.am      1 UNK        -0.4884 
      5 CA         17.0088  -25.1476  -43.3967 C.3       1 UNK         0.0853 
      6 C6         16.6345  -25.6093  -41.9589 C.3       10 UNK        -0.0849 
      7 S7         17.6381  -27.0109  -41.3461 S.3       10 UNK        -0.2776 
      8 C8         16.7860  -28.4711  -42.0386 C.3       10 UNK         0.0316 
      9 C9         17.6469  -29.1469  -43.0975 C.ar      10 UNK        -0.0863 
     10 C10        18.5166  -30.1896  -42.7546 C.ar      10 UNK        -0.1009 
     11 C11        19.3457  -30.7787  -43.7229 C.ar      10 UNK        -0.0712 
     12 C12        19.3149  -30.2800  -45.0295 C.ar      10 UNK        -0.0894 
     13 C13        18.4548  -29.2363  -45.3807 C.ar      10 UNK        -0.0745 
     14 C14        17.5903  -28.7108  -44.4220 C.ar      10 UNK        -0.0972 
     15 C15        18.4787  -28.6443  -46.7829 C.3       10 UNK         0.0209 
     16 S16        19.2421  -26.9845  -46.7993 S.3       10 UNK        -0.2568 
     17 C17        20.9680  -27.3786  -46.3539 C.3       10 UNK        -0.0983 
     18 CA         21.7773  -26.1742  -45.7989 C.3       3 UNK         0.0876 
     19 N          21.0853  -25.5329  -44.6769 N.am      3 UNK        -0.4424 
     20 C          21.3847  -24.3453  -44.1345 C.2       2 UNK         0.4918 
     21 O          22.2027  -23.5588  -44.6152 O.2       2 UNK        -0.4875 
     22 CA         20.6555  -24.0025  -42.8166 C.3       2 UNK         0.0481 
     23 CB         20.6639  -22.4937  -42.4889 C.3       2 UNK        -0.1831 
     24 N          19.3024  -24.5744  -42.7509 N.am      2 UNK        -0.4498 
     25 C          18.2434  -24.2329  -43.4982 C.2       1 UNK         0.5027 
     26 O          18.2254  -23.2722  -44.2730 O.2       1 UNK        -0.4969 
     27 C          23.1857  -26.6560  -45.3764 C.2       3 UNK         0.5005 
     28 O          23.5238  -26.6471  -44.1878 O.2       3 UNK        -0.5279 
     29 N          23.9673  -27.1462  -46.3491 N.am      4 UNK        -0.4463 
     30 CA         25.2137  -27.8776  -46.1064 C.3       4 UNK         0.0283 
     31 CB         25.8799  -28.2234  -47.4482 C.3       4 UNK        -0.1875 
     32 C          24.9467  -29.1500  -45.2795 C.2       4 UNK         0.4949 
     33 O          24.1421  -29.9841  -45.6985 O.2       4 UNK        -0.5039 
     34 N          25.6006  -29.2395  -44.1136 N.am      5 UNK        -0.4663 
     35 CA         25.4585  -30.2850  -43.0904 C.3       5 UNK         0.0242 
     36 CB         25.8821  -31.6666  -43.6357 C.3       5 UNK        -0.1982 
     37 C          24.0789  -30.3209  -42.3976 C.2       5 UNK         0.5017 
     38 O          23.7269  -31.3522  -41.8216 O.2       5 UNK        -0.5012 
     39 N          23.3328  -29.2040  -42.4176 N.am      6 UNK        -0.4439 
     40 CA         22.0812  -29.0453  -41.6689 C.3       6 UNK         0.0297 
     41 CB         21.3972  -27.7289  -42.0507 C.3       6 UNK        -0.2006 
     42 C          22.2932  -29.1268  -40.1496 C.2       6 UNK         0.4892 
     43 O          23.3582  -28.7480  -39.6569 O.2       6 UNK        -0.5089 
     44 N          21.2827  -29.6569  -39.4474 N.am      7 UNK        -0.4243 
     45 CA         21.2310  -29.9794  -38.0118 C.3       7 UNK         0.0196 
     46 CB         21.4790  -28.7385  -37.1314 C.3       7 UNK        -0.2007 
     47 C          22.1353  -31.1561  -37.5942 C.2       7 UNK         0.5020 
     48 O          21.7538  -31.9113  -36.7003 O.2       7 UNK        -0.5147 
     49 N          23.2909  -31.3196  -38.2512 N.am      8 UNK        -0.4734 
     50 CA         24.1687  -32.4858  -38.1307 C.3       8 UNK         0.0238 
     51 CB         25.5488  -32.1474  -38.7177 C.3       8 UNK        -0.1912 
     52 C          23.5792  -33.7338  -38.8127 C.2       8 UNK         0.5038 
     53 O          23.8368  -34.8472  -38.3525 O.2       8 UNK        -0.5046 
     54 N          22.8065  -33.5252  -39.8873 N.am      9 UNK        -0.4200 
     55 CA         22.0505  -34.5525  -40.6138 C.3       9 UNK         0.0839 
     56 C          20.9751  -35.2763  -39.7532 C.2       9 UNK         0.5513 
     57 N          20.6365  -36.5102  -40.1032 N.am      9 UNK        -0.7519 
     58 O          20.4250  -34.7286  -38.7999 O.2       9 UNK        -0.4960 
     59 C59        21.4601  -33.9895  -41.9342 C.3       10 UNK        -0.0876 
     60 S60        20.3091  -32.5835  -41.7241 S.3       10 UNK        -0.2414 
     61 C61        20.3048  -31.9375  -43.4319 C.3       10 UNK         0.0169 
     62 H62        14.0883  -23.2801  -45.4077 H         1 UNK         0.0903 
     63 H63        13.7523  -24.6868  -46.4193 H         1 UNK         0.0903 
     64 H64        12.8424  -24.4339  -44.9274 H         1 UNK         0.0903 
     65 H65        16.0309  -23.5332  -44.2834 H         1 UNK         0.3096 
     66 H66        17.2904  -26.0185  -43.9808 H         1 UNK         0.1121 
     67 H67        15.5877  -25.9128  -41.9123 H         1 UNK         0.0849 
     68 H68        16.7180  -24.7793  -41.2548 H         1 UNK         0.0849 
     69 H69        16.5694  -29.1709  -41.2300 H         1 UNK         0.0865 
     70 H70        15.8204  -28.1911  -42.4627 H         1 UNK         0.0865 
     71 H71        18.5393  -30.5306  -41.7302 H         1 UNK         0.1346 
     72 H72        19.9758  -30.7000  -45.7758 H         1 UNK         0.1412 
     73 H73        16.8934  -27.9391  -44.7110 H         1 UNK         0.1426 
     74 H74        17.4583  -28.5693  -47.1612 H         1 UNK         0.0716 
     75 H75        19.0164  -29.2960  -47.4733 H         1 UNK         0.0716 
     76 H76        20.9678  -28.1850  -45.6199 H         1 UNK         0.0695 
     77 H77        21.4435  -27.7871  -47.2472 H         1 UNK         0.0695 
     78 H78        21.8988  -25.4314  -46.5902 H         1 UNK         0.0983 
     79 H79        20.3896  -26.1000  -44.2199 H         1 UNK         0.3095 
     80 H80        21.2219  -24.5008  -42.0289 H         1 UNK         0.0454 
     81 H81        20.2098  -21.8993  -43.2818 H         1 UNK         0.0851 
     82 H82        21.6844  -22.1306  -42.3620 H         1 UNK         0.0851 
     83 H83        20.1297  -22.2846  -41.5624 H         1 UNK         0.0851 
     84 H84        19.1866  -25.3610  -42.1228 H         1 UNK         0.2976 
     85 H85        23.6224  -27.1499  -47.2982 H         1 UNK         0.3116 
     86 H86        25.8860  -27.2198  -45.5512 H         1 UNK         0.0646 
     87 H87        25.2449  -28.8625  -48.0632 H         1 UNK         0.0847 
     88 H88        26.8189  -28.7555  -47.2897 H         1 UNK         0.0847 
     89 H89        26.1107  -27.3256  -48.0219 H         1 UNK         0.0847 
     90 H90        26.2181  -28.4780  -43.8645 H         1 UNK         0.3040 
     91 H91        26.1645  -30.0231  -42.3007 H         1 UNK         0.1015 
     92 H92        25.1706  -32.0495  -44.3678 H         1 UNK         0.0786 
     93 H93        25.9437  -32.4020  -42.8325 H         1 UNK         0.0786 
     94 H94        26.8631  -31.6243  -44.1088 H         1 UNK         0.0786 
     95 H95        23.6742  -28.3891  -42.9151 H         1 UNK         0.3172 
     96 H96        21.4213  -29.8606  -41.9585 H         1 UNK         0.0595 
     97 H97        22.0609  -26.8746  -41.9152 H         1 UNK         0.0839 
     98 H98        20.5114  -27.5559  -41.4404 H         1 UNK         0.0839 
     99 H99        21.0713  -27.7585  -43.0888 H         1 UNK         0.0839 
    100 H100       20.4697  -29.9547  -39.9690 H         1 UNK         0.2998 
    101 H101       20.2056  -30.3054  -37.8288 H         1 UNK         0.0822 
    102 H102       21.2994  -28.9690  -36.0805 H         1 UNK         0.0787 
    103 H103       22.5048  -28.3776  -37.2092 H         1 UNK         0.0787 
    104 H104       20.8125  -27.9198  -37.4027 H         1 UNK         0.0787 
    105 H105       23.5473  -30.6097  -38.9299 H         1 UNK         0.3055 
    106 H106       24.2916  -32.7169  -37.0700 H         1 UNK         0.1106 
    107 H107       26.0017  -31.2994  -38.2039 H         1 UNK         0.0828 
    108 H108       26.2327  -32.9910  -38.6152 H         1 UNK         0.0828 
    109 H109       25.4891  -31.9041  -39.7791 H         1 UNK         0.0828 
    110 H110       22.6986  -32.5795  -40.2290 H         1 UNK         0.2931 
    111 H111       22.7840  -35.3115  -40.8936 H         1 UNK         0.0412 
    112 H112       21.0749  -36.9708  -40.8859 H         1 UNK         0.3472 
    113 H113       19.9326  -36.9950  -39.5681 H         1 UNK         0.3472 
    114 H114       20.9482  -34.7768  -42.4905 H         1 UNK         0.0970 
    115 H115       22.2817  -33.6663  -42.5759 H         1 UNK         0.0970 
    116 H116       20.0611  -32.7611  -44.1046 H         1 UNK         0.0612 
    117 H117       21.3192  -31.6217  -43.6819 H         1 UNK         0.0612 
@<TRIPOS>BOND
     1    1    2 1    
     2    1   62 1    
     3    1   63 1    
     4    1   64 1    
     5    2    3 2    
     6    2    4 am   BACKBONE|DICT|INTERRES
     7    4    5 1    
     8    4   65 1    
     9    5    6 1    
    10    5   25 1    
    11    5   66 1    
    12    6    7 1    
    13    6   67 1    
    14    6   68 1    
    15    7    8 1    
    16    8    9 1    
    17    8   69 1    
    18    8   70 1    
    19    9   10 ar   
    20    9   14 ar   
    21   10   11 ar   
    22   10   71 1    
    23   11   12 ar   
    24   11   61 1    
    25   12   13 ar   
    26   12   72 1    
    27   13   14 ar   
    28   13   15 1    
    29   14   73 1    
    30   15   16 1    
    31   15   74 1    
    32   15   75 1    
    33   16   17 1    
    34   17   18 1    
    35   17   76 1    
    36   17   77 1    
    37   18   19 1    
    38   18   27 1    
    39   18   78 1    
    40   19   20 am   BACKBONE|DICT|INTERRES
    41   19   79 1    
    42   20   21 2    
    43   20   22 1    
    44   22   23 1    
    45   22   24 1    
    46   22   80 1    
    47   23   81 1    
    48   23   82 1    
    49   23   83 1    
    50   24   25 am   BACKBONE|DICT|INTERRES
    51   24   84 1    
    52   25   26 2    
    53   27   28 2    
    54   27   29 am   BACKBONE|DICT|INTERRES
    55   29   30 1    
    56   29   85 1    
    57   30   31 1    
    58   30   32 1    
    59   30   86 1    
    60   31   87 1    
    61   31   88 1    
    62   31   89 1    
    63   32   33 2    
    64   32   34 am   BACKBONE|DICT|INTERRES
    65   34   35 1    
    66   34   90 1    
    67   35   36 1    
    68   35   37 1    
    69   35   91 1    
    70   36   92 1    
    71   36   93 1    
    72   36   94 1    
    73   37   38 2    
    74   37   39 am   BACKBONE|DICT|INTERRES
    75   39   40 1    
    76   39   95 1    
    77   40   41 1    
    78   40   42 1    
    79   40   96 1    
    80   41   97 1    
    81   41   98 1    
    82   41   99 1    
    83   42   43 2    
    84   42   44 am   BACKBONE|DICT|INTERRES
    85   44   45 1    
    86   44  100 1    
    87   45   46 1    
    88   45   47 1    
    89   45  101 1    
    90   46  102 1    
    91   46  103 1    
    92   46  104 1    
    93   47   48 2    
    94   47   49 am   BACKBONE|DICT|INTERRES
    95   49   50 1    
    96   49  105 1    
    97   50   51 1    
    98   50   52 1    
    99   50  106 1    
   100   51  107 1    
   101   51  108 1    
   102   51  109 1    
   103   52   53 2    
   104   52   54 am   BACKBONE|DICT|INTERRES
   105   54   55 1    
   106   54  110 1    
   107   55   56 1    
   108   55   59 1    
   109   55  111 1    
   110   56   57 am   BACKBONE|DICT|INTERRES
   111   56   58 2    
   112   57  112 1    
   113   57  113 1    
   114   59   60 1    
   115   59  114 1    
   116   59  115 1    
   117   60   61 1    
   118   61  116 1    
   119   61  117 1    
@<TRIPOS>SUBSTRUCTURE
     1 UNK         1 GROUP             0       ****    0 ROOT    
