@<TRIPOS>MOLECULE
3R8
117   119    1
SMALL
USER_CHARGES


@<TRIPOS>ATOM
      1 CA         15.6220  -26.5007  -48.2265 C.3       0 UNK        -0.2013 
      2 C          15.1681  -25.3109  -47.3847 C.2       0 UNK         0.4866 
      3 O          14.8579  -24.2599  -47.9421 O.2       0 UNK        -0.5176 
      4 N          15.1184  -25.4160  -46.0518 N.am      1 UNK        -0.4884 
      5 CA         15.4990  -26.5642  -45.2302 C.3       1 UNK         0.0853 
      6 C6         14.3130  -27.5476  -45.0425 C.3       10 UNK        -0.0849 
      7 S7         14.7185  -29.1567  -44.2745 S.3       10 UNK        -0.2776 
      8 C8         15.9453  -29.8872  -45.4111 C.3       10 UNK         0.0316 
      9 C9         17.3802  -29.5743  -44.9964 C.ar      10 UNK        -0.0863 
     10 C10        17.8605  -30.0072  -43.7550 C.ar      10 UNK        -0.1009 
     11 C11        19.1856  -29.7692  -43.3799 C.ar      10 UNK        -0.0712 
     12 C12        20.0350  -29.1047  -44.2680 C.ar      10 UNK        -0.0894 
     13 C13        19.5680  -28.6383  -45.5006 C.ar      10 UNK        -0.0745 
     14 C14        18.2416  -28.8920  -45.8637 C.ar      10 UNK        -0.0972 
     15 C15        20.4997  -27.9247  -46.4775 C.3       10 UNK         0.0209 
     16 S16        21.7518  -26.8615  -45.6771 S.3       10 UNK        -0.2568 
     17 C17        20.8331  -25.3209  -45.3257 C.3       10 UNK        -0.0983 
     18 CA         20.5569  -25.0322  -43.8248 C.3       3 UNK         0.0876 
     19 N          19.5025  -25.9049  -43.2952 N.am      3 UNK        -0.4424 
     20 C          18.7047  -25.6112  -42.2583 C.2       2 UNK         0.4918 
     21 O          18.8198  -24.5955  -41.5716 O.2       2 UNK        -0.4875 
     22 CA         17.5817  -26.6241  -41.9739 C.3       2 UNK         0.0481 
     23 CB         16.6711  -26.2172  -40.7968 C.3       2 UNK        -0.1831 
     24 N          16.8010  -26.8992  -43.1845 N.am      2 UNK        -0.4498 
     25 C          16.0744  -26.0308  -43.9042 C.2       1 UNK         0.5027 
     26 O          15.8706  -24.8571  -43.5797 O.2       1 UNK        -0.4969 
     27 C          21.8406  -24.9846  -42.9569 C.2       3 UNK         0.5005 
     28 O          22.7898  -24.2930  -43.3299 O.2       3 UNK        -0.5279 
     29 N          21.8465  -25.7058  -41.8240 N.am      4 UNK        -0.4463 
     30 CA         22.9288  -25.8401  -40.8410 C.3       4 UNK         0.0283 
     31 CB         23.3240  -24.4779  -40.2314 C.3       4 UNK        -0.1875 
     32 C          24.1350  -26.6422  -41.3636 C.2       4 UNK         0.4949 
     33 O          25.2544  -26.4531  -40.8843 O.2       4 UNK        -0.5039 
     34 N          23.8834  -27.5599  -42.3064 N.am      5 UNK        -0.4663 
     35 CA         24.8367  -28.5693  -42.7593 C.3       5 UNK         0.0242 
     36 CB         24.3952  -29.1057  -44.1327 C.3       5 UNK        -0.1982 
     37 C          24.9037  -29.6859  -41.7085 C.2       5 UNK         0.5017 
     38 O          24.0831  -30.6029  -41.7485 O.2       5 UNK        -0.5012 
     39 N          25.8497  -29.5727  -40.7667 N.am      6 UNK        -0.4439 
     40 CA         26.0034  -30.4320  -39.5826 C.3       6 UNK         0.0297 
     41 CB         27.1586  -29.8918  -38.7236 C.3       6 UNK        -0.2006 
     42 C          26.1983  -31.9371  -39.8591 C.2       6 UNK         0.4892 
     43 O          26.0099  -32.7427  -38.9475 O.2       6 UNK        -0.5089 
     44 N          26.5568  -32.2973  -41.0987 N.am      7 UNK        -0.4243 
     45 CA         26.5954  -33.6782  -41.5839 C.3       7 UNK         0.0196 
     46 CB         27.3678  -33.7200  -42.9126 C.3       7 UNK        -0.2007 
     47 C          25.1948  -34.2996  -41.7585 C.2       7 UNK         0.5020 
     48 O          25.0812  -35.5253  -41.7252 O.2       7 UNK        -0.5147 
     49 N          24.1672  -33.4615  -41.9529 N.am      8 UNK        -0.4734 
     50 CA         22.7738  -33.8658  -42.1433 C.3       8 UNK         0.0238 
     51 CB         22.2657  -33.3086  -43.4850 C.3       8 UNK        -0.1912 
     52 C          21.8837  -33.3773  -40.9922 C.2       8 UNK         0.5038 
     53 O          21.0654  -34.1532  -40.4972 O.2       8 UNK        -0.5046 
     54 N          22.0338  -32.1035  -40.6069 N.am      9 UNK        -0.4200 
     55 CA         21.2370  -31.4411  -39.5674 C.3       9 UNK         0.0839 
     56 C          21.6275  -31.9390  -38.1510 C.2       9 UNK         0.5513 
     57 N          20.6518  -32.2199  -37.2982 N.am      9 UNK        -0.7519 
     58 O          22.8031  -32.0228  -37.8047 O.2       9 UNK        -0.4960 
     59 C59        21.3589  -29.8946  -39.6527 C.3       10 UNK        -0.0876 
     60 S60        20.7640  -29.0669  -41.1778 S.3       10 UNK        -0.2414 
     61 C61        19.7099  -30.2841  -42.0447 C.3       10 UNK         0.0169 
     62 H62        16.7003  -26.6345  -48.1463 H         1 UNK         0.0903 
     63 H63        15.3856  -26.3336  -49.2773 H         1 UNK         0.0903 
     64 H64        15.1285  -27.4230  -47.9255 H         1 UNK         0.0903 
     65 H65        14.8879  -24.5983  -45.4991 H         1 UNK         0.3096 
     66 H66        16.3187  -27.0699  -45.7331 H         1 UNK         0.1121 
     67 H67        13.8451  -27.7622  -46.0038 H         1 UNK         0.0849 
     68 H68        13.5305  -27.0768  -44.4442 H         1 UNK         0.0849 
     69 H69        15.8162  -30.9705  -45.4083 H         1 UNK         0.0865 
     70 H70        15.7437  -29.5641  -46.4336 H         1 UNK         0.0865 
     71 H71        17.2018  -30.5465  -43.0871 H         1 UNK         0.1346 
     72 H72        21.0703  -28.9589  -43.9964 H         1 UNK         0.1412 
     73 H73        17.8867  -28.5748  -46.8350 H         1 UNK         0.1426 
     74 H74        19.9309  -27.3309  -47.1947 H         1 UNK         0.0716 
     75 H75        21.0226  -28.6859  -47.0577 H         1 UNK         0.0716 
     76 H76        19.8938  -25.3219  -45.8808 H         1 UNK         0.0695 
     77 H77        21.4127  -24.4996  -45.7507 H         1 UNK         0.0695 
     78 H78        20.1613  -24.0145  -43.7833 H         1 UNK         0.0983 
     79 H79        19.3570  -26.7723  -43.7934 H         1 UNK         0.3095 
     80 H80        18.0680  -27.5607  -41.6997 H         1 UNK         0.0454 
     81 H81        17.2473  -26.1247  -39.8755 H         1 UNK         0.0851 
     82 H82        15.8957  -26.9624  -40.6204 H         1 UNK         0.0851 
     83 H83        16.1819  -25.2581  -40.9685 H         1 UNK         0.0851 
     84 H84        16.8708  -27.8484  -43.5315 H         1 UNK         0.2976 
     85 H85        21.0123  -26.2383  -41.6201 H         1 UNK         0.3116 
     86 H86        22.5117  -26.4416  -40.0319 H         1 UNK         0.0646 
     87 H87        22.4505  -23.9350  -39.8706 H         1 UNK         0.0847 
     88 H88        23.8415  -23.8438  -40.9516 H         1 UNK         0.0847 
     89 H89        23.9945  -24.6112  -39.3815 H         1 UNK         0.0847 
     90 H90        22.9304  -27.6660  -42.6215 H         1 UNK         0.3040 
     91 H91        25.8256  -28.1186  -42.8703 H         1 UNK         0.1015 
     92 H92        25.0785  -29.8786  -44.4868 H         1 UNK         0.0786 
     93 H93        24.3873  -28.3135  -44.8815 H         1 UNK         0.0786 
     94 H94        23.3976  -29.5450  -44.1006 H         1 UNK         0.0786 
     95 H95        26.4437  -28.7548  -40.7995 H         1 UNK         0.3172 
     96 H96        25.0812  -30.3412  -39.0047 H         1 UNK         0.0595 
     97 H97        28.1083  -29.9238  -39.2592 H         1 UNK         0.0839 
     98 H98        27.2787  -30.4806  -37.8129 H         1 UNK         0.0839 
     99 H99        26.9787  -28.8613  -38.4164 H         1 UNK         0.0839 
    100 H100       26.7094  -31.5681  -41.7795 H         1 UNK         0.2998 
    101 H101       27.1356  -34.2840  -40.8530 H         1 UNK         0.0822 
    102 H102       28.3851  -33.3466  -42.7930 H         1 UNK         0.0787 
    103 H103       27.4416  -34.7415  -43.2885 H         1 UNK         0.0787 
    104 H104       26.8779  -33.1239  -43.6838 H         1 UNK         0.0787 
    105 H105       24.3413  -32.4604  -41.9268 H         1 UNK         0.3055 
    106 H106       22.6916  -34.9547  -42.1765 H         1 UNK         0.1106 
    107 H107       22.8343  -33.7161  -44.3210 H         1 UNK         0.0828 
    108 H108       21.2191  -33.5699  -43.6472 H         1 UNK         0.0828 
    109 H109       22.3420  -32.2211  -43.5296 H         1 UNK         0.0828 
    110 H110       22.7468  -31.5294  -41.0511 H         1 UNK         0.2931 
    111 H111       20.1913  -31.7065  -39.7325 H         1 UNK         0.0412 
    112 H112       19.6835  -32.1454  -37.5699 H         1 UNK         0.3472 
    113 H113       20.8880  -32.5272  -36.3674 H         1 UNK         0.3472 
    114 H114       20.8099  -29.4394  -38.8260 H         1 UNK         0.0970 
    115 H115       22.3998  -29.5982  -39.5078 H         1 UNK         0.0970 
    116 H116       18.8824  -30.5604  -41.3900 H         1 UNK         0.0612 
    117 H117       20.2717  -31.1907  -42.2560 H         1 UNK         0.0612 
@<TRIPOS>BOND
     1    1    2 1    
     2    1   62 1    
     3    1   63 1    
     4    1   64 1    
     5    2    3 2    
     6    2    4 am   BACKBONE|DICT|INTERRES
     7    4    5 1    
     8    4   65 1    
     9    5    6 1    
    10    5   25 1    
    11    5   66 1    
    12    6    7 1    
    13    6   67 1    
    14    6   68 1    
    15    7    8 1    
    16    8    9 1    
    17    8   69 1    
    18    8   70 1    
    19    9   10 ar   
    20    9   14 ar   
    21   10   11 ar   
    22   10   71 1    
    23   11   12 ar   
    24   11   61 1    
    25   12   13 ar   
    26   12   72 1    
    27   13   14 ar   
    28   13   15 1    
    29   14   73 1    
    30   15   16 1    
    31   15   74 1    
    32   15   75 1    
    33   16   17 1    
    34   17   18 1    
    35   17   76 1    
    36   17   77 1    
    37   18   19 1    
    38   18   27 1    
    39   18   78 1    
    40   19   20 am   BACKBONE|DICT|INTERRES
    41   19   79 1    
    42   20   21 2    
    43   20   22 1    
    44   22   23 1    
    45   22   24 1    
    46   22   80 1    
    47   23   81 1    
    48   23   82 1    
    49   23   83 1    
    50   24   25 am   BACKBONE|DICT|INTERRES
    51   24   84 1    
    52   25   26 2    
    53   27   28 2    
    54   27   29 am   BACKBONE|DICT|INTERRES
    55   29   30 1    
    56   29   85 1    
    57   30   31 1    
    58   30   32 1    
    59   30   86 1    
    60   31   87 1    
    61   31   88 1    
    62   31   89 1    
    63   32   33 2    
    64   32   34 am   BACKBONE|DICT|INTERRES
    65   34   35 1    
    66   34   90 1    
    67   35   36 1    
    68   35   37 1    
    69   35   91 1    
    70   36   92 1    
    71   36   93 1    
    72   36   94 1    
    73   37   38 2    
    74   37   39 am   BACKBONE|DICT|INTERRES
    75   39   40 1    
    76   39   95 1    
    77   40   41 1    
    78   40   42 1    
    79   40   96 1    
    80   41   97 1    
    81   41   98 1    
    82   41   99 1    
    83   42   43 2    
    84   42   44 am   BACKBONE|DICT|INTERRES
    85   44   45 1    
    86   44  100 1    
    87   45   46 1    
    88   45   47 1    
    89   45  101 1    
    90   46  102 1    
    91   46  103 1    
    92   46  104 1    
    93   47   48 2    
    94   47   49 am   BACKBONE|DICT|INTERRES
    95   49   50 1    
    96   49  105 1    
    97   50   51 1    
    98   50   52 1    
    99   50  106 1    
   100   51  107 1    
   101   51  108 1    
   102   51  109 1    
   103   52   53 2    
   104   52   54 am   BACKBONE|DICT|INTERRES
   105   54   55 1    
   106   54  110 1    
   107   55   56 1    
   108   55   59 1    
   109   55  111 1    
   110   56   57 am   BACKBONE|DICT|INTERRES
   111   56   58 2    
   112   57  112 1    
   113   57  113 1    
   114   59   60 1    
   115   59  114 1    
   116   59  115 1    
   117   60   61 1    
   118   61  116 1    
   119   61  117 1    
@<TRIPOS>SUBSTRUCTURE
     1 UNK         1 GROUP             0       ****    0 ROOT    
