@<TRIPOS>MOLECULE
3R8
117   119    1
SMALL
USER_CHARGES


@<TRIPOS>ATOM
      1 CA         16.9762  -22.0516  -47.8200 C.3       0 UNK        -0.2013 
      2 C          18.0832  -23.0223  -47.4369 C.2       0 UNK         0.4866 
      3 O          19.2337  -22.6105  -47.2827 O.2       0 UNK        -0.5176 
      4 N          17.7479  -24.3096  -47.2915 N.am      1 UNK        -0.4884 
      5 CA         18.6562  -25.3721  -46.8496 C.3       1 UNK         0.0853 
      6 C6         18.1138  -26.7856  -47.1936 C.3       10 UNK        -0.0849 
      7 S7         16.3724  -27.0600  -46.7137 S.3       10 UNK        -0.2776 
      8 C8         16.2454  -28.8701  -46.8499 C.3       10 UNK         0.0316 
      9 C9         16.6817  -29.5789  -45.5748 C.ar      10 UNK        -0.0863 
     10 C10        17.8156  -30.3979  -45.5619 C.ar      10 UNK        -0.1009 
     11 C11        18.1606  -31.1175  -44.4117 C.ar      10 UNK        -0.0712 
     12 C12        17.3596  -31.0076  -43.2705 C.ar      10 UNK        -0.0894 
     13 C13        16.2532  -30.1531  -43.2548 C.ar      10 UNK        -0.0745 
     14 C14        15.9134  -29.4518  -44.4142 C.ar      10 UNK        -0.0972 
     15 C15        15.4154  -29.9897  -41.9925 C.3       10 UNK         0.0209 
     16 S16        16.3999  -29.4633  -40.5498 S.3       10 UNK        -0.2568 
     17 C17        17.1652  -27.9079  -41.1309 C.3       10 UNK        -0.0983 
     18 CA         18.6625  -28.0911  -41.4921 C.3       3 UNK         0.0876 
     19 N          19.1911  -26.9359  -42.2199 N.am      3 UNK        -0.4424 
     20 C          20.2930  -26.9652  -42.9792 C.2       2 UNK         0.4918 
     21 O          20.9465  -27.9853  -43.1947 O.2       2 UNK        -0.4875 
     22 CA         20.7304  -25.6441  -43.6253 C.3       2 UNK         0.0481 
     23 CB         22.2632  -25.5049  -43.6399 C.3       2 UNK        -0.1831 
     24 N          20.2376  -25.5921  -44.9980 N.am      2 UNK        -0.4498 
     25 C          18.9959  -25.2382  -45.3504 C.2       1 UNK         0.5027 
     26 O          18.1434  -24.8413  -44.5504 O.2       1 UNK        -0.4969 
     27 C          19.5563  -28.3829  -40.2682 C.2       3 UNK         0.5005 
     28 O          19.3336  -27.8168  -39.1968 O.2       3 UNK        -0.5279 
     29 N          20.5922  -29.2086  -40.4807 N.am      4 UNK        -0.4463 
     30 CA         21.6121  -29.6634  -39.5221 C.3       4 UNK         0.0283 
     31 CB         20.9689  -30.4237  -38.3438 C.3       4 UNK        -0.1875 
     32 C          22.5832  -28.5736  -39.0225 C.2       4 UNK         0.4949 
     33 O          23.4978  -28.8925  -38.2613 O.2       4 UNK        -0.5039 
     34 N          22.4077  -27.3205  -39.4611 N.am      5 UNK        -0.4663 
     35 CA         23.2474  -26.1693  -39.1272 C.3       5 UNK         0.0242 
     36 CB         22.4582  -24.8787  -39.4164 C.3       5 UNK        -0.1982 
     37 C          24.5823  -26.2326  -39.8898 C.2       5 UNK         0.5017 
     38 O          24.7399  -25.5581  -40.9082 O.2       5 UNK        -0.5012 
     39 N          25.4907  -27.0870  -39.3970 N.am      6 UNK        -0.4439 
     40 CA         26.7669  -27.4810  -40.0071 C.3       6 UNK         0.0297 
     41 CB         27.7371  -26.2843  -40.1144 C.3       6 UNK        -0.2006 
     42 C          26.5551  -28.2206  -41.3434 C.2       6 UNK         0.4892 
     43 O          27.2381  -27.9354  -42.3290 O.2       6 UNK        -0.5089 
     44 N          25.6003  -29.1579  -41.3418 N.am      7 UNK        -0.4243 
     45 CA         25.2311  -30.0045  -42.4707 C.3       7 UNK         0.0196 
     46 CB         23.9748  -29.4303  -43.1449 C.3       7 UNK        -0.2007 
     47 C          24.9652  -31.4169  -41.9443 C.2       7 UNK         0.5020 
     48 O          24.5031  -31.5692  -40.8109 O.2       7 UNK        -0.5147 
     49 N          25.2253  -32.4291  -42.7787 N.am      8 UNK        -0.4734 
     50 CA         25.0834  -33.8536  -42.4521 C.3       8 UNK         0.0238 
     51 CB         26.0471  -34.6634  -43.3411 C.3       8 UNK        -0.1912 
     52 C          23.6263  -34.3548  -42.5481 C.2       8 UNK         0.5038 
     53 O          23.3764  -35.4051  -43.1433 O.2       8 UNK        -0.5046 
     54 N          22.6904  -33.5947  -41.9688 N.am      9 UNK        -0.4200 
     55 CA         21.2534  -33.9122  -41.9248 C.3       9 UNK         0.0839 
     56 C          20.8604  -34.9311  -40.8158 C.2       9 UNK         0.5513 
     57 N          21.7492  -35.3017  -39.9015 N.am      9 UNK        -0.7519 
     58 O          19.7258  -35.4006  -40.7905 O.2       9 UNK        -0.4960 
     59 C59        20.3786  -32.6345  -41.8421 C.3       10 UNK        -0.0876 
     60 S60        20.6644  -31.4948  -43.2404 S.3       10 UNK        -0.2414 
     61 C61        19.3799  -32.0324  -44.4177 C.3       10 UNK         0.0169 
     62 H62        17.2172  -21.5599  -48.7621 H         1 UNK         0.0903 
     63 H63        16.0157  -22.5536  -47.9355 H         1 UNK         0.0903 
     64 H64        16.8679  -21.2851  -47.0530 H         1 UNK         0.0903 
     65 H65        16.7829  -24.5941  -47.3913 H         1 UNK         0.3096 
     66 H66        19.5895  -25.2412  -47.4028 H         1 UNK         0.1121 
     67 H67        18.1834  -26.9412  -48.2713 H         1 UNK         0.0849 
     68 H68        18.7386  -27.5614  -46.7454 H         1 UNK         0.0849 
     69 H69        15.2061  -29.1305  -47.0554 H         1 UNK         0.0865 
     70 H70        16.8175  -29.2175  -47.7118 H         1 UNK         0.0865 
     71 H71        18.4167  -30.4945  -46.4558 H         1 UNK         0.1346 
     72 H72        17.6095  -31.5621  -42.3783 H         1 UNK         0.1412 
     73 H73        15.0444  -28.8076  -44.4207 H         1 UNK         0.1426 
     74 H74        14.9335  -30.9408  -41.7624 H         1 UNK         0.0716 
     75 H75        14.6123  -29.2675  -42.1481 H         1 UNK         0.0716 
     76 H76        17.0347  -27.1422  -40.3640 H         1 UNK         0.0695 
     77 H77        16.6127  -27.5518  -42.0020 H         1 UNK         0.0695 
     78 H78        18.7298  -28.9489  -42.1635 H         1 UNK         0.0983 
     79 H79        18.6926  -26.0639  -42.1117 H         1 UNK         0.3095 
     80 H80        20.3207  -24.8109  -43.0500 H         1 UNK         0.0454 
     81 H81        22.6751  -25.6078  -42.6365 H         1 UNK         0.0851 
     82 H82        22.5698  -24.5294  -44.0172 H         1 UNK         0.0851 
     83 H83        22.7378  -26.2675  -44.2586 H         1 UNK         0.0851 
     84 H84        20.8678  -25.9392  -45.7070 H         1 UNK         0.2976 
     85 H85        20.7328  -29.5219  -41.4355 H         1 UNK         0.3116 
     86 H86        22.2273  -30.3755  -40.0722 H         1 UNK         0.0646 
     87 H87        20.4023  -29.7576  -37.6925 H         1 UNK         0.0847 
     88 H88        20.2942  -31.2066  -38.6883 H         1 UNK         0.0847 
     89 H89        21.7309  -30.9033  -37.7281 H         1 UNK         0.0847 
     90 H90        21.6301  -27.1495  -40.0804 H         1 UNK         0.3040 
     91 H91        23.4688  -26.1899  -38.0575 H         1 UNK         0.1015 
     92 H92        23.0592  -23.9965  -39.1914 H         1 UNK         0.0786 
     93 H93        21.5584  -24.8212  -38.8035 H         1 UNK         0.0786 
     94 H94        22.1542  -24.8079  -40.4607 H         1 UNK         0.0786 
     95 H95        25.1959  -27.6443  -38.6016 H         1 UNK         0.3172 
     96 H96        27.2180  -28.2056  -39.3275 H         1 UNK         0.0595 
     97 H97        27.3900  -25.5394  -40.8310 H         1 UNK         0.0839 
     98 H98        28.7233  -26.6128  -40.4444 H         1 UNK         0.0839 
     99 H99        27.8664  -25.7899  -39.1518 H         1 UNK         0.0839 
    100 H100       25.1316  -29.3861  -40.4740 H         1 UNK         0.2998 
    101 H101       26.0490  -30.0476  -43.1934 H         1 UNK         0.0822 
    102 H102       23.6659  -30.0411  -43.9940 H         1 UNK         0.0787 
    103 H103       24.1488  -28.4202  -43.5159 H         1 UNK         0.0787 
    104 H104       23.1334  -29.3879  -42.4525 H         1 UNK         0.0787 
    105 H105       25.5499  -32.2163  -43.7118 H         1 UNK         0.3055 
    106 H106       25.3924  -34.0038  -41.4149 H         1 UNK         0.1106 
    107 H107       27.0768  -34.3258  -43.2219 H         1 UNK         0.0828 
    108 H108       26.0267  -35.7224  -43.0800 H         1 UNK         0.0828 
    109 H109       25.7864  -34.5827  -44.3972 H         1 UNK         0.0828 
    110 H110       22.9931  -32.7569  -41.4856 H         1 UNK         0.2931 
    111 H111       20.9993  -34.4023  -42.8668 H         1 UNK         0.0412 
    112 H112       22.6822  -34.9224  -39.9097 H         1 UNK         0.3472 
    113 H113       21.4803  -35.9661  -39.1925 H         1 UNK         0.3472 
    114 H114       20.5834  -32.1006  -40.9149 H         1 UNK         0.0970 
    115 H115       19.3212  -32.8985  -41.8048 H         1 UNK         0.0970 
    116 H116       19.8286  -32.0575  -45.4117 H         1 UNK         0.0612 
    117 H117       19.0709  -33.0562  -44.2029 H         1 UNK         0.0612 
@<TRIPOS>BOND
     1    1    2 1    
     2    1   62 1    
     3    1   63 1    
     4    1   64 1    
     5    2    3 2    
     6    2    4 am   BACKBONE|DICT|INTERRES
     7    4    5 1    
     8    4   65 1    
     9    5    6 1    
    10    5   25 1    
    11    5   66 1    
    12    6    7 1    
    13    6   67 1    
    14    6   68 1    
    15    7    8 1    
    16    8    9 1    
    17    8   69 1    
    18    8   70 1    
    19    9   10 ar   
    20    9   14 ar   
    21   10   11 ar   
    22   10   71 1    
    23   11   12 ar   
    24   11   61 1    
    25   12   13 ar   
    26   12   72 1    
    27   13   14 ar   
    28   13   15 1    
    29   14   73 1    
    30   15   16 1    
    31   15   74 1    
    32   15   75 1    
    33   16   17 1    
    34   17   18 1    
    35   17   76 1    
    36   17   77 1    
    37   18   19 1    
    38   18   27 1    
    39   18   78 1    
    40   19   20 am   BACKBONE|DICT|INTERRES
    41   19   79 1    
    42   20   21 2    
    43   20   22 1    
    44   22   23 1    
    45   22   24 1    
    46   22   80 1    
    47   23   81 1    
    48   23   82 1    
    49   23   83 1    
    50   24   25 am   BACKBONE|DICT|INTERRES
    51   24   84 1    
    52   25   26 2    
    53   27   28 2    
    54   27   29 am   BACKBONE|DICT|INTERRES
    55   29   30 1    
    56   29   85 1    
    57   30   31 1    
    58   30   32 1    
    59   30   86 1    
    60   31   87 1    
    61   31   88 1    
    62   31   89 1    
    63   32   33 2    
    64   32   34 am   BACKBONE|DICT|INTERRES
    65   34   35 1    
    66   34   90 1    
    67   35   36 1    
    68   35   37 1    
    69   35   91 1    
    70   36   92 1    
    71   36   93 1    
    72   36   94 1    
    73   37   38 2    
    74   37   39 am   BACKBONE|DICT|INTERRES
    75   39   40 1    
    76   39   95 1    
    77   40   41 1    
    78   40   42 1    
    79   40   96 1    
    80   41   97 1    
    81   41   98 1    
    82   41   99 1    
    83   42   43 2    
    84   42   44 am   BACKBONE|DICT|INTERRES
    85   44   45 1    
    86   44  100 1    
    87   45   46 1    
    88   45   47 1    
    89   45  101 1    
    90   46  102 1    
    91   46  103 1    
    92   46  104 1    
    93   47   48 2    
    94   47   49 am   BACKBONE|DICT|INTERRES
    95   49   50 1    
    96   49  105 1    
    97   50   51 1    
    98   50   52 1    
    99   50  106 1    
   100   51  107 1    
   101   51  108 1    
   102   51  109 1    
   103   52   53 2    
   104   52   54 am   BACKBONE|DICT|INTERRES
   105   54   55 1    
   106   54  110 1    
   107   55   56 1    
   108   55   59 1    
   109   55  111 1    
   110   56   57 am   BACKBONE|DICT|INTERRES
   111   56   58 2    
   112   57  112 1    
   113   57  113 1    
   114   59   60 1    
   115   59  114 1    
   116   59  115 1    
   117   60   61 1    
   118   61  116 1    
   119   61  117 1    
@<TRIPOS>SUBSTRUCTURE
     1 UNK         1 GROUP             0       ****    0 ROOT    
