@<TRIPOS>MOLECULE
3R8
117   119    1
SMALL
USER_CHARGES


@<TRIPOS>ATOM
      1 CA         12.0791  -24.6735  -46.1790 C.3       0 UNK        -0.2013 
      2 C          13.3175  -24.7764  -47.0564 C.2       0 UNK         0.4866 
      3 O          13.5523  -23.9023  -47.8908 O.2       0 UNK        -0.5176 
      4 N          14.1151  -25.8367  -46.8732 N.am      1 UNK        -0.4884 
      5 CA         15.3515  -26.0999  -47.6236 C.3       1 UNK         0.0853 
      6 C6         15.6947  -27.6134  -47.6407 C.3       10 UNK        -0.0849 
      7 S7         15.8963  -28.3543  -45.9814 S.3       10 UNK        -0.2776 
      8 C8         17.7115  -28.5571  -45.9181 C.3       10 UNK         0.0316 
      9 C9         18.2931  -28.8271  -44.5296 C.ar      10 UNK        -0.0863 
     10 C10        19.5816  -29.3626  -44.4372 C.ar      10 UNK        -0.1009 
     11 C11        20.1985  -29.5420  -43.1955 C.ar      10 UNK        -0.0712 
     12 C12        19.5193  -29.1773  -42.0297 C.ar      10 UNK        -0.0894 
     13 C13        18.2312  -28.6381  -42.1035 C.ar      10 UNK        -0.0745 
     14 C14        17.6184  -28.4845  -43.3511 C.ar      10 UNK        -0.0972 
     15 C15        17.5247  -28.1473  -40.8475 C.3       10 UNK         0.0209 
     16 S16        17.1864  -26.3539  -40.9207 S.3       10 UNK        -0.2568 
     17 C17        18.8691  -25.6522  -41.0264 C.3       10 UNK        -0.0983 
     18 CA         19.3759  -25.4758  -42.4838 C.3       3 UNK         0.0876 
     19 N          18.4782  -24.6505  -43.2952 N.am      3 UNK        -0.4424 
     20 C          18.4863  -24.6134  -44.6330 C.2       2 UNK         0.4918 
     21 O          19.2878  -25.2349  -45.3326 O.2       2 UNK        -0.4875 
     22 CA         17.3972  -23.7452  -45.2860 C.3       2 UNK         0.0481 
     23 CB         17.9972  -22.6277  -46.1631 C.3       2 UNK        -0.1831 
     24 N          16.4140  -24.5616  -46.0101 N.am      2 UNK        -0.4498 
     25 C          16.5507  -25.2342  -47.1662 C.2       1 UNK         0.5027 
     26 O          17.5541  -25.1982  -47.8794 O.2       1 UNK        -0.4969 
     27 C          20.8256  -24.9577  -42.4915 C.2       3 UNK         0.5005 
     28 O          21.0634  -23.7574  -42.6530 O.2       3 UNK        -0.5279 
     29 N          21.7595  -25.8855  -42.2649 N.am      4 UNK        -0.4463 
     30 CA         23.1865  -25.6555  -42.0812 C.3       4 UNK         0.0283 
     31 CB         23.9182  -25.8686  -43.4172 C.3       4 UNK        -0.1875 
     32 C          23.6770  -26.6478  -41.0218 C.2       4 UNK         0.4949 
     33 O          23.0425  -27.6867  -40.8187 O.2       4 UNK        -0.5039 
     34 N          24.8098  -26.3383  -40.3822 N.am      5 UNK        -0.4663 
     35 CA         25.4244  -27.1380  -39.3146 C.3       5 UNK         0.0242 
     36 CB         26.3055  -26.2147  -38.4512 C.3       5 UNK        -0.1982 
     37 C          26.1929  -28.3711  -39.8395 C.2       5 UNK         0.5017 
     38 O          27.3271  -28.6130  -39.4216 O.2       5 UNK        -0.5012 
     39 N          25.5709  -29.1273  -40.7512 N.am      6 UNK        -0.4439 
     40 CA         26.0893  -30.3810  -41.2917 C.3       6 UNK         0.0297 
     41 CB         25.5216  -30.6032  -42.7028 C.3       6 UNK        -0.2006 
     42 C          25.6964  -31.5349  -40.3616 C.2       6 UNK         0.4892 
     43 O          24.5106  -31.6926  -40.0630 O.2       6 UNK        -0.5089 
     44 N          26.6866  -32.3371  -39.9476 N.am      7 UNK        -0.4243 
     45 CA         26.5121  -33.4867  -39.0501 C.3       7 UNK         0.0196 
     46 CB         27.8903  -34.0502  -38.6687 C.3       7 UNK        -0.2007 
     47 C          25.6185  -34.5975  -39.6296 C.2       7 UNK         0.5020 
     48 O          24.9368  -35.2855  -38.8695 O.2       7 UNK        -0.5147 
     49 N          25.6041  -34.7260  -40.9641 N.am      8 UNK        -0.4734 
     50 CA         24.7551  -35.6565  -41.7151 C.3       8 UNK         0.0238 
     51 CB         25.1656  -35.6259  -43.1964 C.3       8 UNK        -0.1912 
     52 C          23.2456  -35.3827  -41.5724 C.2       8 UNK         0.5038 
     53 O          22.4538  -36.3074  -41.7601 O.2       8 UNK        -0.5046 
     54 N          22.8774  -34.1386  -41.2388 N.am      9 UNK        -0.4200 
     55 CA         21.4955  -33.7208  -40.9610 C.3       9 UNK         0.0839 
     56 C          21.0402  -34.0068  -39.4996 C.2       9 UNK         0.5513 
     57 N          21.8885  -34.5218  -38.6155 N.am      9 UNK        -0.7519 
     58 O          19.8834  -33.7685  -39.1624 O.2       9 UNK        -0.4960 
     59 C59        21.2522  -32.2395  -41.3516 C.3       10 UNK        -0.0876 
     60 S60        21.6353  -31.9077  -43.1051 S.3       10 UNK        -0.2414 
     61 C61        21.6155  -30.0906  -43.1258 C.3       10 UNK         0.0169 
     62 H62        11.1820  -24.6578  -46.7974 H         1 UNK         0.0903 
     63 H63        11.9984  -25.5113  -45.4865 H         1 UNK         0.0903 
     64 H64        12.1072  -23.7532  -45.5962 H         1 UNK         0.0903 
     65 H65        13.8792  -26.5319  -46.1774 H         1 UNK         0.3096 
     66 H66        15.1692  -25.8098  -48.6613 H         1 UNK         0.1121 
     67 H67        16.5851  -27.8002  -48.2446 H         1 UNK         0.0849 
     68 H68        14.8925  -28.1551  -48.1443 H         1 UNK         0.0849 
     69 H69        17.9885  -29.3657  -46.5963 H         1 UNK         0.0865 
     70 H70        18.1848  -27.6528  -46.3029 H         1 UNK         0.0865 
     71 H71        20.1199  -29.6224  -45.3389 H         1 UNK         0.1346 
     72 H72        20.0049  -29.2901  -41.0697 H         1 UNK         0.1412 
     73 H73        16.6354  -28.0375  -43.3923 H         1 UNK         0.1426 
     74 H74        18.1116  -28.3661  -39.9540 H         1 UNK         0.0716 
     75 H75        16.5808  -28.6827  -40.7371 H         1 UNK         0.0716 
     76 H76        19.5437  -26.2925  -40.4545 H         1 UNK         0.0695 
     77 H77        18.8607  -24.6898  -40.5113 H         1 UNK         0.0695 
     78 H78        19.4099  -26.4522  -42.9642 H         1 UNK         0.0983 
     79 H79        17.8019  -24.1012  -42.7864 H         1 UNK         0.3095 
     80 H80        16.8337  -23.2537  -44.4911 H         1 UNK         0.0454 
     81 H81        18.6382  -23.0221  -46.9518 H         1 UNK         0.0851 
     82 H82        18.6099  -21.9548  -45.5623 H         1 UNK         0.0851 
     83 H83        17.2175  -22.0273  -46.6315 H         1 UNK         0.0851 
     84 H84        15.5356  -24.6943  -45.5291 H         1 UNK         0.2976 
     85 H85        21.4793  -26.8378  -42.0614 H         1 UNK         0.3116 
     86 H86        23.3599  -24.6403  -41.7175 H         1 UNK         0.0646 
     87 H87        23.7814  -26.8830  -43.7946 H         1 UNK         0.0847 
     88 H88        24.9906  -25.7012  -43.3102 H         1 UNK         0.0847 
     89 H89        23.5576  -25.1777  -44.1796 H         1 UNK         0.0847 
     90 H90        25.2947  -25.4899  -40.6395 H         1 UNK         0.3040 
     91 H91        24.6290  -27.5239  -38.6724 H         1 UNK         0.1015 
     92 H92        25.7311  -25.3805  -38.0478 H         1 UNK         0.0786 
     93 H93        27.1399  -25.8044  -39.0215 H         1 UNK         0.0786 
     94 H94        26.7247  -26.7540  -37.6005 H         1 UNK         0.0786 
     95 H95        24.6092  -28.8884  -40.9732 H         1 UNK         0.3172 
     96 H96        27.1774  -30.3237  -41.3678 H         1 UNK         0.0595 
     97 H97        24.4356  -30.6909  -42.6921 H         1 UNK         0.0839 
     98 H98        25.9163  -31.5196  -43.1433 H         1 UNK         0.0839 
     99 H99        25.7844  -29.7827  -43.3707 H         1 UNK         0.0839 
    100 H100       27.6315  -32.1320  -40.2408 H         1 UNK         0.2998 
    101 H101       26.0269  -33.1238  -38.1413 H         1 UNK         0.0822 
    102 H102       28.5029  -33.2988  -38.1701 H         1 UNK         0.0787 
    103 H103       27.7909  -34.8918  -37.9815 H         1 UNK         0.0787 
    104 H104       28.4379  -34.4062  -39.5424 H         1 UNK         0.0787 
    105 H105       26.2008  -34.1165  -41.5044 H         1 UNK         0.3055 
    106 H106       24.9367  -36.6609  -41.3259 H         1 UNK         0.1106 
    107 H107       24.5723  -36.3313  -43.7803 H         1 UNK         0.0828 
    108 H108       25.0203  -34.6379  -43.6355 H         1 UNK         0.0828 
    109 H109       26.2121  -35.9027  -43.3259 H         1 UNK         0.0828 
    110 H110       23.5896  -33.4411  -41.0635 H         1 UNK         0.2931 
    111 H111       20.8337  -34.3196  -41.5898 H         1 UNK         0.0412 
    112 H112       22.8448  -34.7348  -38.8697 H         1 UNK         0.3472 
    113 H113       21.5685  -34.7035  -37.6774 H         1 UNK         0.3472 
    114 H114       20.2096  -31.9654  -41.1800 H         1 UNK         0.0970 
    115 H115       21.8529  -31.5798  -40.7227 H         1 UNK         0.0970 
    116 H116       22.1350  -29.7078  -42.2473 H         1 UNK         0.0612 
    117 H117       22.1863  -29.7441  -43.9886 H         1 UNK         0.0612 
@<TRIPOS>BOND
     1    1    2 1    
     2    1   62 1    
     3    1   63 1    
     4    1   64 1    
     5    2    3 2    
     6    2    4 am   BACKBONE|DICT|INTERRES
     7    4    5 1    
     8    4   65 1    
     9    5    6 1    
    10    5   25 1    
    11    5   66 1    
    12    6    7 1    
    13    6   67 1    
    14    6   68 1    
    15    7    8 1    
    16    8    9 1    
    17    8   69 1    
    18    8   70 1    
    19    9   10 ar   
    20    9   14 ar   
    21   10   11 ar   
    22   10   71 1    
    23   11   12 ar   
    24   11   61 1    
    25   12   13 ar   
    26   12   72 1    
    27   13   14 ar   
    28   13   15 1    
    29   14   73 1    
    30   15   16 1    
    31   15   74 1    
    32   15   75 1    
    33   16   17 1    
    34   17   18 1    
    35   17   76 1    
    36   17   77 1    
    37   18   19 1    
    38   18   27 1    
    39   18   78 1    
    40   19   20 am   BACKBONE|DICT|INTERRES
    41   19   79 1    
    42   20   21 2    
    43   20   22 1    
    44   22   23 1    
    45   22   24 1    
    46   22   80 1    
    47   23   81 1    
    48   23   82 1    
    49   23   83 1    
    50   24   25 am   BACKBONE|DICT|INTERRES
    51   24   84 1    
    52   25   26 2    
    53   27   28 2    
    54   27   29 am   BACKBONE|DICT|INTERRES
    55   29   30 1    
    56   29   85 1    
    57   30   31 1    
    58   30   32 1    
    59   30   86 1    
    60   31   87 1    
    61   31   88 1    
    62   31   89 1    
    63   32   33 2    
    64   32   34 am   BACKBONE|DICT|INTERRES
    65   34   35 1    
    66   34   90 1    
    67   35   36 1    
    68   35   37 1    
    69   35   91 1    
    70   36   92 1    
    71   36   93 1    
    72   36   94 1    
    73   37   38 2    
    74   37   39 am   BACKBONE|DICT|INTERRES
    75   39   40 1    
    76   39   95 1    
    77   40   41 1    
    78   40   42 1    
    79   40   96 1    
    80   41   97 1    
    81   41   98 1    
    82   41   99 1    
    83   42   43 2    
    84   42   44 am   BACKBONE|DICT|INTERRES
    85   44   45 1    
    86   44  100 1    
    87   45   46 1    
    88   45   47 1    
    89   45  101 1    
    90   46  102 1    
    91   46  103 1    
    92   46  104 1    
    93   47   48 2    
    94   47   49 am   BACKBONE|DICT|INTERRES
    95   49   50 1    
    96   49  105 1    
    97   50   51 1    
    98   50   52 1    
    99   50  106 1    
   100   51  107 1    
   101   51  108 1    
   102   51  109 1    
   103   52   53 2    
   104   52   54 am   BACKBONE|DICT|INTERRES
   105   54   55 1    
   106   54  110 1    
   107   55   56 1    
   108   55   59 1    
   109   55  111 1    
   110   56   57 am   BACKBONE|DICT|INTERRES
   111   56   58 2    
   112   57  112 1    
   113   57  113 1    
   114   59   60 1    
   115   59  114 1    
   116   59  115 1    
   117   60   61 1    
   118   61  116 1    
   119   61  117 1    
@<TRIPOS>SUBSTRUCTURE
     1 UNK         1 GROUP             0       ****    0 ROOT    
