@<TRIPOS>MOLECULE
3R8
117   119    1
SMALL
USER_CHARGES


@<TRIPOS>ATOM
      1 CA         16.0737  -23.7138  -42.6434 C.3       0 UNK        -0.2013 
      2 C          16.7254  -25.0653  -42.8899 C.2       0 UNK         0.4866 
      3 O          17.9516  -25.1527  -42.9558 O.2       0 UNK        -0.5176 
      4 N          15.9208  -26.1291  -43.0057 N.am      1 UNK        -0.4884 
      5 CA         16.3387  -27.5106  -43.2946 C.3       1 UNK         0.0853 
      6 C6         15.1976  -28.3057  -43.9803 C.3       10 UNK        -0.0849 
      7 S7         14.9339  -27.6846  -45.6786 S.3       10 UNK        -0.2776 
      8 C8         15.5127  -29.0670  -46.7223 C.3       10 UNK         0.0316 
      9 C9         16.8656  -29.6301  -46.2983 C.ar      10 UNK        -0.0863 
     10 C10        16.9387  -30.9140  -45.7508 C.ar      10 UNK        -0.1009 
     11 C11        18.1657  -31.4562  -45.3629 C.ar      10 UNK        -0.0712 
     12 C12        19.3336  -30.7080  -45.5392 C.ar      10 UNK        -0.0894 
     13 C13        19.2787  -29.4235  -46.0919 C.ar      10 UNK        -0.0745 
     14 C14        18.0402  -28.8892  -46.4688 C.ar      10 UNK        -0.0972 
     15 C15        20.5607  -28.6288  -46.3183 C.3       10 UNK         0.0209 
     16 S16        21.5077  -28.3452  -44.7873 S.3       10 UNK        -0.2568 
     17 C17        20.3803  -27.2388  -43.8736 C.3       10 UNK        -0.0983 
     18 CA         20.7375  -27.0640  -42.3733 C.3       3 UNK         0.0876 
     19 N          20.7172  -28.3507  -41.6768 N.am      3 UNK        -0.4424 
     20 C          19.9024  -28.8248  -40.7239 C.2       2 UNK         0.4918 
     21 O          20.1373  -29.9125  -40.2048 O.2       2 UNK        -0.4875 
     22 CA         18.6513  -28.0530  -40.2544 C.3       2 UNK         0.0481 
     23 CB         19.0168  -26.9258  -39.2730 C.3       2 UNK        -0.1831 
     24 N          17.8446  -27.5348  -41.3581 N.am      2 UNK        -0.4498 
     25 C          16.9374  -28.2256  -42.0587 C.2       1 UNK         0.5027 
     26 O          16.5751  -29.3637  -41.7597 O.2       1 UNK        -0.4969 
     27 C          22.1051  -26.3869  -42.1514 C.2       3 UNK         0.5005 
     28 O          22.9215  -26.8793  -41.3663 O.2       3 UNK        -0.5279 
     29 N          22.3394  -25.2730  -42.8608 N.am      4 UNK        -0.4463 
     30 CA         23.5653  -24.4661  -42.8154 C.3       4 UNK         0.0283 
     31 CB         23.3943  -23.2378  -43.7235 C.3       4 UNK        -0.1875 
     32 C          24.8552  -25.2246  -43.1825 C.2       4 UNK         0.4949 
     33 O          25.9350  -24.8044  -42.7658 O.2       4 UNK        -0.5039 
     34 N          24.7345  -26.3457  -43.9074 N.am      5 UNK        -0.4663 
     35 CA         25.8183  -27.2761  -44.2386 C.3       5 UNK         0.0242 
     36 CB         25.3890  -28.1197  -45.4542 C.3       5 UNK        -0.1982 
     37 C          26.2401  -28.1466  -43.0329 C.2       5 UNK         0.5017 
     38 O          26.2838  -29.3713  -43.1455 O.2       5 UNK        -0.5012 
     39 N          26.5366  -27.4954  -41.8996 N.am      6 UNK        -0.4439 
     40 CA         26.9952  -28.0642  -40.6268 C.3       6 UNK         0.0297 
     41 CB         28.4330  -28.6081  -40.7710 C.3       6 UNK        -0.2006 
     42 C          26.0223  -29.0954  -40.0164 C.2       6 UNK         0.4892 
     43 O          26.4641  -30.1455  -39.5460 O.2       6 UNK        -0.5089 
     44 N          24.7198  -28.7676  -40.0223 N.am      7 UNK        -0.4243 
     45 CA         23.6110  -29.5591  -39.4716 C.3       7 UNK         0.0196 
     46 CB         23.7262  -29.6940  -37.9379 C.3       7 UNK        -0.2007 
     47 C          23.4196  -30.9111  -40.1866 C.2       7 UNK         0.5020 
     48 O          23.1671  -31.9262  -39.5352 O.2       7 UNK        -0.5147 
     49 N          23.5305  -30.8968  -41.5240 N.am      8 UNK        -0.4734 
     50 CA         23.4604  -32.0716  -42.4055 C.3       8 UNK         0.0238 
     51 CB         23.6719  -31.6252  -43.8622 C.3       8 UNK        -0.1912 
     52 C          22.1755  -32.9161  -42.3079 C.2       8 UNK         0.5038 
     53 O          22.2185  -34.0955  -42.6611 O.2       8 UNK        -0.5046 
     54 N          21.0714  -32.3132  -41.8509 N.am      9 UNK        -0.4200 
     55 CA         19.7796  -32.9765  -41.6327 C.3       9 UNK         0.0839 
     56 C          19.5868  -33.5055  -40.1808 C.2       9 UNK         0.5513 
     57 N          20.5459  -33.3494  -39.2745 N.am      9 UNK        -0.7519 
     58 O          18.5524  -34.0911  -39.8718 O.2       9 UNK        -0.4960 
     59 C59        18.6070  -32.0713  -42.1099 C.3       10 UNK        -0.0876 
     60 S60        17.4149  -32.9739  -43.1513 S.3       10 UNK        -0.2414 
     61 C61        18.2233  -32.8619  -44.7808 C.3       10 UNK         0.0169 
     62 H62        16.4212  -23.2968  -41.6986 H         1 UNK         0.0903 
     63 H63        16.3395  -23.0201  -43.4405 H         1 UNK         0.0903 
     64 H64        14.9869  -23.7855  -42.6044 H         1 UNK         0.0903 
     65 H65        14.9230  -25.9953  -42.9205 H         1 UNK         0.3096 
     66 H66        17.1585  -27.4621  -44.0125 H         1 UNK         0.1121 
     67 H67        15.4123  -29.3740  -44.0195 H         1 UNK         0.0849 
     68 H68        14.2685  -28.2144  -43.4154 H         1 UNK         0.0849 
     69 H69        14.7522  -29.8496  -46.7125 H         1 UNK         0.0865 
     70 H70        15.5758  -28.7248  -47.7563 H         1 UNK         0.0865 
     71 H71        16.0375  -31.4975  -45.6185 H         1 UNK         0.1346 
     72 H72        20.2893  -31.1244  -45.2514 H         1 UNK         0.1412 
     73 H73        17.9862  -27.8991  -46.9009 H         1 UNK         0.1426 
     74 H74        20.3468  -27.6654  -46.7837 H         1 UNK         0.0716 
     75 H75        21.1910  -29.1751  -47.0211 H         1 UNK         0.0716 
     76 H76        19.3798  -27.6595  -43.9436 H         1 UNK         0.0695 
     77 H77        20.3262  -26.2784  -44.3884 H         1 UNK         0.0695 
     78 H78        20.0273  -26.3713  -41.9314 H         1 UNK         0.0983 
     79 H79        21.5263  -28.9053  -41.9036 H         1 UNK         0.3095 
     80 H80        18.0356  -28.7617  -39.6961 H         1 UNK         0.0454 
     81 H81        19.5999  -27.3159  -38.4376 H         1 UNK         0.0851 
     82 H82        18.1218  -26.4679  -38.8517 H         1 UNK         0.0851 
     83 H83        19.6066  -26.1351  -39.7343 H         1 UNK         0.0851 
     84 H84        18.0572  -26.6009  -41.6960 H         1 UNK         0.2976 
     85 H85        21.6160  -24.9422  -43.4837 H         1 UNK         0.3116 
     86 H86        23.6837  -24.1167  -41.7877 H         1 UNK         0.0646 
     87 H87        23.2410  -23.5235  -44.7650 H         1 UNK         0.0847 
     88 H88        22.5469  -22.6265  -43.4127 H         1 UNK         0.0847 
     89 H89        24.2788  -22.5999  -43.6887 H         1 UNK         0.0847 
     90 H90        23.8039  -26.6315  -44.1773 H         1 UNK         0.3040 
     91 H91        26.6960  -26.6952  -44.5309 H         1 UNK         0.1015 
     92 H92        26.1963  -28.7776  -45.7789 H         1 UNK         0.0786 
     93 H93        25.1265  -27.4893  -46.3039 H         1 UNK         0.0786 
     94 H94        24.5287  -28.7495  -45.2251 H         1 UNK         0.0786 
     95 H95        26.4447  -26.4830  -41.9291 H         1 UNK         0.3172 
     96 H96        27.0305  -27.2330  -39.9210 H         1 UNK         0.0595 
     97 H97        28.4734  -29.4710  -41.4367 H         1 UNK         0.0839 
     98 H98        28.8317  -28.9235  -39.8059 H         1 UNK         0.0839 
     99 H99        29.1081  -27.8485  -41.1650 H         1 UNK         0.0839 
    100 H100       24.4366  -27.9010  -40.4719 H         1 UNK         0.2998 
    101 H101       22.7075  -28.9831  -39.6674 H         1 UNK         0.0822 
    102 H102       22.8303  -30.1559  -37.5209 H         1 UNK         0.0787 
    103 H103       23.8389  -28.7203  -37.4613 H         1 UNK         0.0787 
    104 H104       24.5750  -30.3127  -37.6456 H         1 UNK         0.0787 
    105 H105       23.8164  -30.0320  -41.9609 H         1 UNK         0.3055 
    106 H106       24.2867  -32.7287  -42.1259 H         1 UNK         0.1106 
    107 H107       24.6518  -31.1728  -44.0044 H         1 UNK         0.0828 
    108 H108       23.6157  -32.4737  -44.5458 H         1 UNK         0.0828 
    109 H109       22.9172  -30.9053  -44.1779 H         1 UNK         0.0828 
    110 H110       21.1353  -31.3686  -41.4966 H         1 UNK         0.2931 
    111 H111       19.7735  -33.8784  -42.2471 H         1 UNK         0.0412 
    112 H112       20.4028  -33.7054  -38.3431 H         1 UNK         0.3472 
    113 H113       21.4093  -32.8655  -39.4992 H         1 UNK         0.3472 
    114 H114       18.0686  -31.6330  -41.2672 H         1 UNK         0.0970 
    115 H115       18.9703  -31.2139  -42.6782 H         1 UNK         0.0970 
    116 H116       19.2547  -33.2083  -44.6958 H         1 UNK         0.0612 
    117 H117       17.7251  -33.5493  -45.4658 H         1 UNK         0.0612 
@<TRIPOS>BOND
     1    1    2 1    
     2    1   62 1    
     3    1   63 1    
     4    1   64 1    
     5    2    3 2    
     6    2    4 am   BACKBONE|DICT|INTERRES
     7    4    5 1    
     8    4   65 1    
     9    5    6 1    
    10    5   25 1    
    11    5   66 1    
    12    6    7 1    
    13    6   67 1    
    14    6   68 1    
    15    7    8 1    
    16    8    9 1    
    17    8   69 1    
    18    8   70 1    
    19    9   10 ar   
    20    9   14 ar   
    21   10   11 ar   
    22   10   71 1    
    23   11   12 ar   
    24   11   61 1    
    25   12   13 ar   
    26   12   72 1    
    27   13   14 ar   
    28   13   15 1    
    29   14   73 1    
    30   15   16 1    
    31   15   74 1    
    32   15   75 1    
    33   16   17 1    
    34   17   18 1    
    35   17   76 1    
    36   17   77 1    
    37   18   19 1    
    38   18   27 1    
    39   18   78 1    
    40   19   20 am   BACKBONE|DICT|INTERRES
    41   19   79 1    
    42   20   21 2    
    43   20   22 1    
    44   22   23 1    
    45   22   24 1    
    46   22   80 1    
    47   23   81 1    
    48   23   82 1    
    49   23   83 1    
    50   24   25 am   BACKBONE|DICT|INTERRES
    51   24   84 1    
    52   25   26 2    
    53   27   28 2    
    54   27   29 am   BACKBONE|DICT|INTERRES
    55   29   30 1    
    56   29   85 1    
    57   30   31 1    
    58   30   32 1    
    59   30   86 1    
    60   31   87 1    
    61   31   88 1    
    62   31   89 1    
    63   32   33 2    
    64   32   34 am   BACKBONE|DICT|INTERRES
    65   34   35 1    
    66   34   90 1    
    67   35   36 1    
    68   35   37 1    
    69   35   91 1    
    70   36   92 1    
    71   36   93 1    
    72   36   94 1    
    73   37   38 2    
    74   37   39 am   BACKBONE|DICT|INTERRES
    75   39   40 1    
    76   39   95 1    
    77   40   41 1    
    78   40   42 1    
    79   40   96 1    
    80   41   97 1    
    81   41   98 1    
    82   41   99 1    
    83   42   43 2    
    84   42   44 am   BACKBONE|DICT|INTERRES
    85   44   45 1    
    86   44  100 1    
    87   45   46 1    
    88   45   47 1    
    89   45  101 1    
    90   46  102 1    
    91   46  103 1    
    92   46  104 1    
    93   47   48 2    
    94   47   49 am   BACKBONE|DICT|INTERRES
    95   49   50 1    
    96   49  105 1    
    97   50   51 1    
    98   50   52 1    
    99   50  106 1    
   100   51  107 1    
   101   51  108 1    
   102   51  109 1    
   103   52   53 2    
   104   52   54 am   BACKBONE|DICT|INTERRES
   105   54   55 1    
   106   54  110 1    
   107   55   56 1    
   108   55   59 1    
   109   55  111 1    
   110   56   57 am   BACKBONE|DICT|INTERRES
   111   56   58 2    
   112   57  112 1    
   113   57  113 1    
   114   59   60 1    
   115   59  114 1    
   116   59  115 1    
   117   60   61 1    
   118   61  116 1    
   119   61  117 1    
@<TRIPOS>SUBSTRUCTURE
     1 UNK         1 GROUP             0       ****    0 ROOT    
