@<TRIPOS>MOLECULE
3R8
117   119    1
SMALL
USER_CHARGES


@<TRIPOS>ATOM
      1 CA         14.2392  -25.9165  -48.3989 C.3       0 UNK        -0.2013 
      2 C          15.3149  -26.9529  -48.1112 C.2       0 UNK         0.4866 
      3 O          15.8479  -27.5570  -49.0422 O.2       0 UNK        -0.5176 
      4 N          15.6379  -27.1643  -46.8284 N.am      1 UNK        -0.4884 
      5 CA         16.6392  -28.1365  -46.3668 C.3       1 UNK         0.0853 
      6 C6         16.5149  -28.4130  -44.8495 C.3       10 UNK        -0.0849 
      7 S7         14.9382  -29.2125  -44.4015 S.3       10 UNK        -0.2776 
      8 C8         14.7703  -28.7437  -42.6441 C.3       10 UNK         0.0316 
      9 C9         16.0501  -28.9685  -41.8454 C.ar      10 UNK        -0.0863 
     10 C10        16.6204  -30.2429  -41.7611 C.ar      10 UNK        -0.1009 
     11 C11        17.8218  -30.4384  -41.0738 C.ar      10 UNK        -0.0712 
     12 C12        18.4325  -29.3578  -40.4324 C.ar      10 UNK        -0.0894 
     13 C13        17.8657  -28.0827  -40.4967 C.ar      10 UNK        -0.0745 
     14 C14        16.6760  -27.8929  -41.2062 C.ar      10 UNK        -0.0972 
     15 C15        18.5415  -26.9148  -39.7937 C.3       10 UNK         0.0209 
     16 S16        20.1447  -26.4966  -40.5466 S.3       10 UNK        -0.2568 
     17 C17        19.6371  -25.7494  -42.1330 C.3       10 UNK        -0.0983 
     18 CA         20.6268  -26.0572  -43.2847 C.3       3 UNK         0.0876 
     19 N          20.0169  -25.7756  -44.5845 N.am      3 UNK        -0.4424 
     20 C          20.5553  -26.0518  -45.7802 C.2       2 UNK         0.4918 
     21 O          21.6689  -26.5546  -45.9403 O.2       2 UNK        -0.4875 
     22 CA         19.6451  -25.7610  -46.9912 C.3       2 UNK         0.0481 
     23 CB         20.2935  -26.1306  -48.3422 C.3       2 UNK        -0.1831 
     24 N          18.3314  -26.4045  -46.8409 N.am      2 UNK        -0.4498 
     25 C          18.0889  -27.7188  -46.6901 C.2       1 UNK         0.5027 
     26 O          18.9535  -28.5931  -46.7609 O.2       1 UNK        -0.4969 
     27 C          21.9607  -25.3040  -43.0922 C.2       3 UNK         0.5005 
     28 O          22.0388  -24.1066  -43.3808 O.2       3 UNK        -0.5279 
     29 N          22.9575  -26.0197  -42.5636 N.am      4 UNK        -0.4463 
     30 CA         24.2584  -25.5065  -42.1342 C.3       4 UNK         0.0283 
     31 CB         25.3391  -26.0385  -43.0928 C.3       4 UNK        -0.1875 
     32 C          24.5557  -25.9092  -40.6762 C.2       4 UNK         0.4949 
     33 O          25.6944  -25.7550  -40.2340 O.2       4 UNK        -0.5039 
     34 N          23.5438  -26.4395  -39.9671 N.am      5 UNK        -0.4663 
     35 CA         23.5974  -27.0303  -38.6226 C.3       5 UNK         0.0242 
     36 CB         23.9101  -25.9553  -37.5598 C.3       5 UNK        -0.1982 
     37 C          24.5318  -28.2560  -38.5380 C.2       5 UNK         0.5017 
     38 O          25.1554  -28.4840  -37.4992 O.2       5 UNK        -0.5012 
     39 N          24.6152  -29.0178  -39.6361 N.am      6 UNK        -0.4439 
     40 CA         25.4294  -30.2258  -39.7621 C.3       6 UNK         0.0297 
     41 CB         26.0036  -30.2795  -41.1892 C.3       6 UNK        -0.2006 
     42 C          24.5903  -31.4789  -39.4721 C.2       6 UNK         0.4892 
     43 O          23.3588  -31.4138  -39.4597 O.2       6 UNK        -0.5089 
     44 N          25.2741  -32.6198  -39.3039 N.am      7 UNK        -0.4243 
     45 CA         24.6587  -33.9450  -39.1465 C.3       7 UNK         0.0196 
     46 CB         25.7429  -34.9711  -38.7799 C.3       7 UNK        -0.2007 
     47 C          23.8781  -34.4065  -40.3927 C.2       7 UNK         0.5020 
     48 O          22.8954  -35.1344  -40.2577 O.2       7 UNK        -0.5147 
     49 N          24.3046  -33.9393  -41.5736 N.am      8 UNK        -0.4734 
     50 CA         23.6213  -34.1113  -42.8593 C.3       8 UNK         0.0238 
     51 CB         24.6709  -34.4445  -43.9364 C.3       8 UNK        -0.1912 
     52 C          22.7911  -32.8632  -43.2259 C.2       8 UNK         0.5038 
     53 O          22.6358  -32.5622  -44.4111 O.2       8 UNK        -0.5046 
     54 N          22.3019  -32.1431  -42.2067 N.am      9 UNK        -0.4200 
     55 CA         21.5602  -30.8737  -42.2619 C.3       9 UNK         0.0839 
     56 C          22.4584  -29.6774  -42.6686 C.2       9 UNK         0.5513 
     57 N          23.0794  -29.7102  -43.8383 N.am      9 UNK        -0.7519 
     58 O          22.6118  -28.7227  -41.9109 O.2       9 UNK        -0.4960 
     59 C59        20.2520  -30.9192  -43.1010 C.3       10 UNK        -0.0876 
     60 S60        19.1335  -32.3016  -42.6711 S.3       10 UNK        -0.2414 
     61 C61        18.4765  -31.8105  -41.0432 C.3       10 UNK         0.0169 
     62 H62        13.8538  -25.4632  -47.4858 H         1 UNK         0.0903 
     63 H63        14.6415  -25.1228  -49.0280 H         1 UNK         0.0903 
     64 H64        13.4048  -26.3788  -48.9256 H         1 UNK         0.0903 
     65 H65        15.1447  -26.6645  -46.1016 H         1 UNK         0.3096 
     66 H66        16.4637  -29.0750  -46.8983 H         1 UNK         0.1121 
     67 H67        17.3154  -29.0744  -44.5090 H         1 UNK         0.0849 
     68 H68        16.6255  -27.4859  -44.2834 H         1 UNK         0.0849 
     69 H69        14.4597  -27.6990  -42.5912 H         1 UNK         0.0865 
     70 H70        13.9628  -29.3249  -42.1967 H         1 UNK         0.0865 
     71 H71        16.1490  -31.0768  -42.2636 H         1 UNK         0.1346 
     72 H72        19.3608  -29.5008  -39.8962 H         1 UNK         0.1412 
     73 H73        16.2407  -26.9045  -41.2650 H         1 UNK         0.1426 
     74 H74        18.7033  -27.1765  -38.7471 H         1 UNK         0.0716 
     75 H75        17.9021  -26.0306  -39.7929 H         1 UNK         0.0716 
     76 H76        19.5111  -24.6736  -41.9951 H         1 UNK         0.0695 
     77 H77        18.6503  -26.1354  -42.3910 H         1 UNK         0.0695 
     78 H78        20.8301  -27.1301  -43.2803 H         1 UNK         0.0983 
     79 H79        19.1088  -25.3374  -44.5617 H         1 UNK         0.3095 
     80 H80        19.4669  -24.6847  -46.9962 H         1 UNK         0.0454 
     81 H81        20.5421  -27.1906  -48.4005 H         1 UNK         0.0851 
     82 H82        21.2188  -25.5736  -48.4939 H         1 UNK         0.0851 
     83 H83        19.6329  -25.8955  -49.1765 H         1 UNK         0.0851 
     84 H84        17.5384  -25.7812  -46.7777 H         1 UNK         0.2976 
     85 H85        22.7944  -27.0071  -42.3637 H         1 UNK         0.3116 
     86 H86        24.2659  -24.4153  -42.1675 H         1 UNK         0.0646 
     87 H87        25.4146  -27.1257  -43.0489 H         1 UNK         0.0847 
     88 H88        26.3204  -25.6322  -42.8445 H         1 UNK         0.0847 
     89 H89        25.1261  -25.7579  -44.1244 H         1 UNK         0.0847 
     90 H90        22.6418  -26.5036  -40.4218 H         1 UNK         0.3040 
     91 H91        22.5945  -27.4097  -38.4190 H         1 UNK         0.1015 
     92 H92        24.9272  -25.5741  -37.6552 H         1 UNK         0.0786 
     93 H93        23.8088  -26.3602  -36.5522 H         1 UNK         0.0786 
     94 H94        23.2258  -25.1105  -37.6377 H         1 UNK         0.0786 
     95 H95        23.9974  -28.8061  -40.4127 H         1 UNK         0.3172 
     96 H96        26.2600  -30.1910  -39.0539 H         1 UNK         0.0595 
     97 H97        26.7030  -31.1081  -41.3042 H         1 UNK         0.0839 
     98 H98        26.5492  -29.3666  -41.4298 H         1 UNK         0.0839 
     99 H99        25.2233  -30.4069  -41.9395 H         1 UNK         0.0839 
    100 H100       26.2839  -32.5888  -39.3188 H         1 UNK         0.2998 
    101 H101       23.9477  -33.8863  -38.3194 H         1 UNK         0.0822 
    102 H102       25.3083  -35.9609  -38.6318 H         1 UNK         0.0787 
    103 H103       26.4973  -35.0606  -39.5626 H         1 UNK         0.0787 
    104 H104       26.2492  -34.7004  -37.8531 H         1 UNK         0.0787 
    105 H105       25.1188  -33.3419  -41.5774 H         1 UNK         0.3055 
    106 H106       22.9207  -34.9475  -42.8016 H         1 UNK         0.1106 
    107 H107       24.1966  -34.6563  -44.8957 H         1 UNK         0.0828 
    108 H108       25.3667  -33.6191  -44.0915 H         1 UNK         0.0828 
    109 H109       25.2509  -35.3268  -43.6652 H         1 UNK         0.0828 
    110 H110       22.5353  -32.4405  -41.2684 H         1 UNK         0.2931 
    111 H111       21.2641  -30.6853  -41.2294 H         1 UNK         0.0412 
    112 H112       22.9799  -30.5316  -44.4232 H         1 UNK         0.3472 
    113 H113       23.6665  -28.9464  -44.1299 H         1 UNK         0.3472 
    114 H114       19.7062  -29.9789  -43.0066 H         1 UNK         0.0970 
    115 H115       20.4848  -31.0089  -44.1633 H         1 UNK         0.0970 
    116 H116       19.2837  -31.8418  -40.3098 H         1 UNK         0.0612 
    117 H117       17.7435  -32.5515  -40.7218 H         1 UNK         0.0612 
@<TRIPOS>BOND
     1    1    2 1    
     2    1   62 1    
     3    1   63 1    
     4    1   64 1    
     5    2    3 2    
     6    2    4 am   BACKBONE|DICT|INTERRES
     7    4    5 1    
     8    4   65 1    
     9    5    6 1    
    10    5   25 1    
    11    5   66 1    
    12    6    7 1    
    13    6   67 1    
    14    6   68 1    
    15    7    8 1    
    16    8    9 1    
    17    8   69 1    
    18    8   70 1    
    19    9   10 ar   
    20    9   14 ar   
    21   10   11 ar   
    22   10   71 1    
    23   11   12 ar   
    24   11   61 1    
    25   12   13 ar   
    26   12   72 1    
    27   13   14 ar   
    28   13   15 1    
    29   14   73 1    
    30   15   16 1    
    31   15   74 1    
    32   15   75 1    
    33   16   17 1    
    34   17   18 1    
    35   17   76 1    
    36   17   77 1    
    37   18   19 1    
    38   18   27 1    
    39   18   78 1    
    40   19   20 am   BACKBONE|DICT|INTERRES
    41   19   79 1    
    42   20   21 2    
    43   20   22 1    
    44   22   23 1    
    45   22   24 1    
    46   22   80 1    
    47   23   81 1    
    48   23   82 1    
    49   23   83 1    
    50   24   25 am   BACKBONE|DICT|INTERRES
    51   24   84 1    
    52   25   26 2    
    53   27   28 2    
    54   27   29 am   BACKBONE|DICT|INTERRES
    55   29   30 1    
    56   29   85 1    
    57   30   31 1    
    58   30   32 1    
    59   30   86 1    
    60   31   87 1    
    61   31   88 1    
    62   31   89 1    
    63   32   33 2    
    64   32   34 am   BACKBONE|DICT|INTERRES
    65   34   35 1    
    66   34   90 1    
    67   35   36 1    
    68   35   37 1    
    69   35   91 1    
    70   36   92 1    
    71   36   93 1    
    72   36   94 1    
    73   37   38 2    
    74   37   39 am   BACKBONE|DICT|INTERRES
    75   39   40 1    
    76   39   95 1    
    77   40   41 1    
    78   40   42 1    
    79   40   96 1    
    80   41   97 1    
    81   41   98 1    
    82   41   99 1    
    83   42   43 2    
    84   42   44 am   BACKBONE|DICT|INTERRES
    85   44   45 1    
    86   44  100 1    
    87   45   46 1    
    88   45   47 1    
    89   45  101 1    
    90   46  102 1    
    91   46  103 1    
    92   46  104 1    
    93   47   48 2    
    94   47   49 am   BACKBONE|DICT|INTERRES
    95   49   50 1    
    96   49  105 1    
    97   50   51 1    
    98   50   52 1    
    99   50  106 1    
   100   51  107 1    
   101   51  108 1    
   102   51  109 1    
   103   52   53 2    
   104   52   54 am   BACKBONE|DICT|INTERRES
   105   54   55 1    
   106   54  110 1    
   107   55   56 1    
   108   55   59 1    
   109   55  111 1    
   110   56   57 am   BACKBONE|DICT|INTERRES
   111   56   58 2    
   112   57  112 1    
   113   57  113 1    
   114   59   60 1    
   115   59  114 1    
   116   59  115 1    
   117   60   61 1    
   118   61  116 1    
   119   61  117 1    
@<TRIPOS>SUBSTRUCTURE
     1 UNK         1 GROUP             0       ****    0 ROOT    
