@<TRIPOS>MOLECULE
3R8
117   119    1
SMALL
USER_CHARGES


@<TRIPOS>ATOM
      1 CA         15.8911  -25.3702  -43.4789 C.3       0 UNK        -0.2013 
      2 C          16.9666  -25.2433  -44.5471 C.2       0 UNK         0.4866 
      3 O          17.5496  -24.1712  -44.7090 O.2       0 UNK        -0.5176 
      4 N          17.2534  -26.3327  -45.2702 N.am      1 UNK        -0.4884 
      5 CA         18.1577  -26.3829  -46.4300 C.3       1 UNK         0.0853 
      6 C6         17.7544  -27.4990  -47.4383 C.3       10 UNK        -0.0849 
      7 S7         15.9438  -27.6199  -47.6889 S.3       10 UNK        -0.2776 
      8 C8         15.5604  -29.3681  -47.3158 C.3       10 UNK         0.0316 
      9 C9         16.2381  -29.9202  -46.0628 C.ar      10 UNK        -0.0863 
     10 C10        17.2743  -30.8501  -46.1993 C.ar      10 UNK        -0.1009 
     11 C11        17.8667  -31.4291  -45.0760 C.ar      10 UNK        -0.0712 
     12 C12        17.4073  -31.0781  -43.8039 C.ar      10 UNK        -0.0894 
     13 C13        16.4005  -30.1208  -43.6428 C.ar      10 UNK        -0.0745 
     14 C14        15.8110  -29.5513  -44.7805 C.ar      10 UNK        -0.0972 
     15 C15        15.9084  -29.7514  -42.2440 C.3       10 UNK         0.0209 
     16 S16        17.2530  -29.4251  -41.0434 S.3       10 UNK        -0.2568 
     17 C17        17.8591  -27.7979  -41.5882 C.3       10 UNK        -0.0983 
     18 CA         19.4056  -27.7201  -41.6628 C.3       3 UNK         0.0876 
     19 N          19.8238  -26.8099  -42.7268 N.am      3 UNK        -0.4424 
     20 C          21.0755  -26.6196  -43.1640 C.2       2 UNK         0.4918 
     21 O          22.0524  -27.2267  -42.7245 O.2       2 UNK        -0.4875 
     22 CA         21.2424  -25.5635  -44.2777 C.3       2 UNK         0.0481 
     23 CB         22.5615  -25.7133  -45.0628 C.3       2 UNK        -0.1831 
     24 N          20.0700  -25.5226  -45.1645 N.am      2 UNK        -0.4498 
     25 C          19.6231  -26.5107  -45.9559 C.2       1 UNK         0.5027 
     26 O          20.2803  -27.5153  -46.2313 O.2       1 UNK        -0.4969 
     27 C          20.0458  -27.2904  -40.3274 C.2       3 UNK         0.5005 
     28 O          20.0081  -26.1026  -39.9959 O.2       3 UNK        -0.5279 
     29 N          20.6870  -28.2394  -39.6337 N.am      4 UNK        -0.4463 
     30 CA         21.5499  -28.0976  -38.4538 C.3       4 UNK         0.0283 
     31 CB         20.8354  -27.4019  -37.2789 C.3       4 UNK        -0.1875 
     32 C          22.9089  -27.4417  -38.7598 C.2       4 UNK         0.4949 
     33 O          23.9227  -27.9104  -38.2442 O.2       4 UNK        -0.5039 
     34 N          22.9232  -26.4006  -39.6033 N.am      5 UNK        -0.4663 
     35 CA         24.1139  -25.6516  -40.0190 C.3       5 UNK         0.0242 
     36 CB         23.6869  -24.4411  -40.8649 C.3       5 UNK        -0.1982 
     37 C          25.1501  -26.5034  -40.7730 C.2       5 UNK         0.5017 
     38 O          26.3447  -26.3781  -40.5025 O.2       5 UNK        -0.5012 
     39 N          24.6777  -27.3673  -41.6823 N.am      6 UNK        -0.4439 
     40 CA         25.5035  -28.3103  -42.4439 C.3       6 UNK         0.0297 
     41 CB         24.7730  -28.6844  -43.7447 C.3       6 UNK        -0.2006 
     42 C          25.8718  -29.5821  -41.6580 C.2       6 UNK         0.4892 
     43 O          26.6564  -30.3832  -42.1676 O.2       6 UNK        -0.5089 
     44 N          25.2807  -29.7742  -40.4684 N.am      7 UNK        -0.4243 
     45 CA         25.4063  -30.9056  -39.5363 C.3       7 UNK         0.0196 
     46 CB         26.8558  -31.0727  -39.0408 C.3       7 UNK        -0.2007 
     47 C          24.8394  -32.2404  -40.0560 C.2       7 UNK         0.5020 
     48 O          24.1678  -32.9390  -39.2972 O.2       7 UNK        -0.5147 
     49 N          25.1045  -32.5750  -41.3254 N.am      8 UNK        -0.4734 
     50 CA         24.5870  -33.7611  -42.0148 C.3       8 UNK         0.0238 
     51 CB         25.3302  -33.9446  -43.3479 C.3       8 UNK        -0.1912 
     52 C          23.0677  -33.6932  -42.2419 C.2       8 UNK         0.5038 
     53 O          22.3860  -34.7069  -42.0847 O.2       8 UNK        -0.5046 
     54 N          22.5734  -32.4958  -42.5780 N.am      9 UNK        -0.4200 
     55 CA         21.1479  -32.1585  -42.5943 C.3       9 UNK         0.0839 
     56 C          20.7125  -31.7251  -41.1755 C.2       9 UNK         0.5513 
     57 N          19.7252  -32.3855  -40.5889 N.am      9 UNK        -0.7519 
     58 O          21.2364  -30.7596  -40.6281 O.2       9 UNK        -0.4960 
     59 C59        20.8350  -31.0491  -43.6342 C.3       10 UNK        -0.0876 
     60 S60        20.6402  -31.7162  -45.3187 S.3       10 UNK        -0.2414 
     61 C61        18.9742  -32.4620  -45.2415 C.3       10 UNK         0.0169 
     62 H62        15.4484  -26.3658  -43.4593 H         1 UNK         0.0903 
     63 H63        16.3091  -25.1610  -42.4947 H         1 UNK         0.0903 
     64 H64        15.0936  -24.6521  -43.6675 H         1 UNK         0.0903 
     65 H65        16.7552  -27.1947  -45.0980 H         1 UNK         0.3096 
     66 H66        18.0797  -25.4315  -46.9620 H         1 UNK         0.1121 
     67 H67        18.2200  -27.3056  -48.4061 H         1 UNK         0.0849 
     68 H68        18.1395  -28.4685  -47.1270 H         1 UNK         0.0849 
     69 H69        14.4796  -29.4719  -47.2102 H         1 UNK         0.0865 
     70 H70        15.8293  -29.9687  -48.1863 H         1 UNK         0.0865 
     71 H71        17.6147  -31.1374  -47.1850 H         1 UNK         0.1346 
     72 H72        17.8414  -31.5463  -42.9313 H         1 UNK         0.1412 
     73 H73        15.0019  -28.8415  -44.6727 H         1 UNK         0.1426 
     74 H74        15.3044  -30.5774  -41.8667 H         1 UNK         0.0716 
     75 H75        15.2492  -28.8827  -42.2801 H         1 UNK         0.0716 
     76 H76        17.4382  -27.6235  -42.5779 H         1 UNK         0.0695 
     77 H77        17.4397  -27.0200  -40.9469 H         1 UNK         0.0695 
     78 H78        19.7974  -28.7011  -41.9336 H         1 UNK         0.0983 
     79 H79        19.1009  -26.2321  -43.1239 H         1 UNK         0.3095 
     80 H80        21.2715  -24.5967  -43.7736 H         1 UNK         0.0454 
     81 H81        23.4207  -25.5773  -44.4050 H         1 UNK         0.0851 
     82 H82        22.6397  -24.9687  -45.8545 H         1 UNK         0.0851 
     83 H83        22.6565  -26.6994  -45.5175 H         1 UNK         0.0851 
     84 H84        19.4222  -24.7556  -45.0019 H         1 UNK         0.2976 
     85 H85        20.7216  -29.1764  -40.0379 H         1 UNK         0.3116 
     86 H86        21.7657  -29.1202  -38.1392 H         1 UNK         0.0646 
     87 H87        20.6358  -26.3496  -37.4818 H         1 UNK         0.0847 
     88 H88        19.8866  -27.8862  -37.0484 H         1 UNK         0.0847 
     89 H89        21.4481  -27.4427  -36.3775 H         1 UNK         0.0847 
     90 H90        22.0268  -26.0837  -39.9585 H         1 UNK         0.3040 
     91 H91        24.5976  -25.2805  -39.1127 H         1 UNK         0.1015 
     92 H92        24.5529  -23.8473  -41.1611 H         1 UNK         0.0786 
     93 H93        23.0195  -23.7832  -40.3079 H         1 UNK         0.0786 
     94 H94        23.1734  -24.7450  -41.7773 H         1 UNK         0.0786 
     95 H95        23.6786  -27.3684  -41.8860 H         1 UNK         0.3172 
     96 H96        26.4395  -27.8174  -42.7149 H         1 UNK         0.0595 
     97 H97        23.8164  -29.1681  -43.5468 H         1 UNK         0.0839 
     98 H98        25.3675  -29.3710  -44.3490 H         1 UNK         0.0839 
     99 H99        24.5832  -27.8041  -44.3572 H         1 UNK         0.0839 
    100 H100       24.6598  -29.0416  -40.1495 H         1 UNK         0.2998 
    101 H101       24.7989  -30.6310  -38.6720 H         1 UNK         0.0822 
    102 H102       26.9160  -31.8433  -38.2712 H         1 UNK         0.0787 
    103 H103       27.2327  -30.1479  -38.6038 H         1 UNK         0.0787 
    104 H104       27.5330  -31.3652  -39.8437 H         1 UNK         0.0787 
    105 H105       25.7039  -31.9433  -41.8528 H         1 UNK         0.3055 
    106 H106       24.7868  -34.6317  -41.3858 H         1 UNK         0.1106 
    107 H107       26.4008  -34.0753  -43.1897 H         1 UNK         0.0828 
    108 H108       24.9714  -34.8292  -43.8760 H         1 UNK         0.0828 
    109 H109       25.1916  -33.0897  -44.0111 H         1 UNK         0.0828 
    110 H110       23.2146  -31.7202  -42.6384 H         1 UNK         0.2931 
    111 H111       20.5798  -33.0520  -42.8575 H         1 UNK         0.0412 
    112 H112       19.4208  -32.0982  -39.6723 H         1 UNK         0.3472 
    113 H113       19.2979  -33.1857  -41.0282 H         1 UNK         0.3472 
    114 H114       19.9300  -30.4994  -43.3842 H         1 UNK         0.0970 
    115 H115       21.6215  -30.2927  -43.6452 H         1 UNK         0.0970 
    116 H116       18.9297  -33.1937  -44.4346 H         1 UNK         0.0612 
    117 H117       18.8100  -33.0271  -46.1603 H         1 UNK         0.0612 
@<TRIPOS>BOND
     1    1    2 1    
     2    1   62 1    
     3    1   63 1    
     4    1   64 1    
     5    2    3 2    
     6    2    4 am   BACKBONE|DICT|INTERRES
     7    4    5 1    
     8    4   65 1    
     9    5    6 1    
    10    5   25 1    
    11    5   66 1    
    12    6    7 1    
    13    6   67 1    
    14    6   68 1    
    15    7    8 1    
    16    8    9 1    
    17    8   69 1    
    18    8   70 1    
    19    9   10 ar   
    20    9   14 ar   
    21   10   11 ar   
    22   10   71 1    
    23   11   12 ar   
    24   11   61 1    
    25   12   13 ar   
    26   12   72 1    
    27   13   14 ar   
    28   13   15 1    
    29   14   73 1    
    30   15   16 1    
    31   15   74 1    
    32   15   75 1    
    33   16   17 1    
    34   17   18 1    
    35   17   76 1    
    36   17   77 1    
    37   18   19 1    
    38   18   27 1    
    39   18   78 1    
    40   19   20 am   BACKBONE|DICT|INTERRES
    41   19   79 1    
    42   20   21 2    
    43   20   22 1    
    44   22   23 1    
    45   22   24 1    
    46   22   80 1    
    47   23   81 1    
    48   23   82 1    
    49   23   83 1    
    50   24   25 am   BACKBONE|DICT|INTERRES
    51   24   84 1    
    52   25   26 2    
    53   27   28 2    
    54   27   29 am   BACKBONE|DICT|INTERRES
    55   29   30 1    
    56   29   85 1    
    57   30   31 1    
    58   30   32 1    
    59   30   86 1    
    60   31   87 1    
    61   31   88 1    
    62   31   89 1    
    63   32   33 2    
    64   32   34 am   BACKBONE|DICT|INTERRES
    65   34   35 1    
    66   34   90 1    
    67   35   36 1    
    68   35   37 1    
    69   35   91 1    
    70   36   92 1    
    71   36   93 1    
    72   36   94 1    
    73   37   38 2    
    74   37   39 am   BACKBONE|DICT|INTERRES
    75   39   40 1    
    76   39   95 1    
    77   40   41 1    
    78   40   42 1    
    79   40   96 1    
    80   41   97 1    
    81   41   98 1    
    82   41   99 1    
    83   42   43 2    
    84   42   44 am   BACKBONE|DICT|INTERRES
    85   44   45 1    
    86   44  100 1    
    87   45   46 1    
    88   45   47 1    
    89   45  101 1    
    90   46  102 1    
    91   46  103 1    
    92   46  104 1    
    93   47   48 2    
    94   47   49 am   BACKBONE|DICT|INTERRES
    95   49   50 1    
    96   49  105 1    
    97   50   51 1    
    98   50   52 1    
    99   50  106 1    
   100   51  107 1    
   101   51  108 1    
   102   51  109 1    
   103   52   53 2    
   104   52   54 am   BACKBONE|DICT|INTERRES
   105   54   55 1    
   106   54  110 1    
   107   55   56 1    
   108   55   59 1    
   109   55  111 1    
   110   56   57 am   BACKBONE|DICT|INTERRES
   111   56   58 2    
   112   57  112 1    
   113   57  113 1    
   114   59   60 1    
   115   59  114 1    
   116   59  115 1    
   117   60   61 1    
   118   61  116 1    
   119   61  117 1    
@<TRIPOS>SUBSTRUCTURE
     1 UNK         1 GROUP             0       ****    0 ROOT    
