@<TRIPOS>MOLECULE
3R8
117   119    1
SMALL
USER_CHARGES


@<TRIPOS>ATOM
      1 CA         17.8898  -22.6594  -45.8355 C.3       0 UNK        -0.2013 
      2 C          16.4673  -23.0635  -45.4571 C.2       0 UNK         0.4866 
      3 O          15.7356  -22.2470  -44.9017 O.2       0 UNK        -0.5176 
      4 N          16.0234  -24.2985  -45.7328 N.am      1 UNK        -0.4884 
      5 CA         16.7763  -25.4031  -46.3463 C.3       1 UNK         0.0853 
      6 C6         15.8241  -26.4881  -46.9156 C.3       10 UNK        -0.0849 
      7 S7         14.6966  -27.2260  -45.6743 S.3       10 UNK        -0.2776 
      8 C8         14.9855  -29.0138  -45.8897 C.3       10 UNK         0.0316 
      9 C9         16.2618  -29.4996  -45.2120 C.ar      10 UNK        -0.0863 
     10 C10        16.2856  -29.7119  -43.8295 C.ar      10 UNK        -0.1009 
     11 C11        17.4320  -30.2124  -43.2013 C.ar      10 UNK        -0.0712 
     12 C12        18.5564  -30.5114  -43.9758 C.ar      10 UNK        -0.0894 
     13 C13        18.5533  -30.2929  -45.3559 C.ar      10 UNK        -0.0745 
     14 C14        17.4031  -29.7848  -45.9682 C.ar      10 UNK        -0.0972 
     15 C15        19.7813  -30.6315  -46.1906 C.3       10 UNK         0.0209 
     16 S16        20.9925  -29.2701  -46.2221 S.3       10 UNK        -0.2568 
     17 C17        21.8312  -29.4685  -44.6134 C.3       10 UNK        -0.0983 
     18 CA         21.6322  -28.2919  -43.6224 C.3       3 UNK         0.0876 
     19 N          20.2325  -27.8559  -43.5270 N.am      3 UNK        -0.4424 
     20 C          19.8149  -26.6646  -43.0806 C.2       2 UNK         0.4918 
     21 O          20.5709  -25.7618  -42.7186 O.2       2 UNK        -0.4875 
     22 CA         18.2897  -26.4958  -42.9533 C.3       2 UNK         0.0481 
     23 CB         17.9213  -25.7430  -41.6628 C.3       2 UNK        -0.1831 
     24 N          17.6189  -25.8506  -44.0844 N.am      2 UNK        -0.4498 
     25 C          17.8172  -26.0353  -45.3996 C.2       1 UNK         0.5027 
     26 O          18.7424  -26.6758  -45.8922 O.2       1 UNK        -0.4969 
     27 C          22.2376  -28.6473  -42.2421 C.2       3 UNK         0.5005 
     28 O          23.4214  -28.9833  -42.1599 O.2       3 UNK        -0.5279 
     29 N          21.4269  -28.5706  -41.1739 N.am      4 UNK        -0.4463 
     30 CA         21.7934  -28.8080  -39.7742 C.3       4 UNK         0.0283 
     31 CB         20.5407  -28.6801  -38.8929 C.3       4 UNK        -0.1875 
     32 C          22.9084  -27.8837  -39.2545 C.2       4 UNK         0.4949 
     33 O          23.6401  -28.2837  -38.3511 O.2       4 UNK        -0.5039 
     34 N          23.0711  -26.7043  -39.8725 N.am      5 UNK        -0.4663 
     35 CA         24.1888  -25.7818  -39.6424 C.3       5 UNK         0.0242 
     36 CB         23.9354  -24.4836  -40.4254 C.3       5 UNK        -0.1982 
     37 C          25.5655  -26.3728  -40.0102 C.2       5 UNK         0.5017 
     38 O          26.5687  -25.9602  -39.4281 O.2       5 UNK        -0.5012 
     39 N          25.5837  -27.3370  -40.9415 N.am      6 UNK        -0.4439 
     40 CA         26.7552  -28.1258  -41.3298 C.3       6 UNK         0.0297 
     41 CB         26.8260  -28.1622  -42.8674 C.3       6 UNK        -0.2006 
     42 C          26.7005  -29.5552  -40.7528 C.2       6 UNK         0.4892 
     43 O          27.5454  -30.3744  -41.1152 O.2       6 UNK        -0.5089 
     44 N          25.6998  -29.8420  -39.9017 N.am      7 UNK        -0.4243 
     45 CA         25.3419  -31.1470  -39.3270 C.3       7 UNK         0.0196 
     46 CB         26.4547  -31.6604  -38.3890 C.3       7 UNK        -0.2007 
     47 C          24.9214  -32.1998  -40.3750 C.2       7 UNK         0.5020 
     48 O          24.9300  -33.3941  -40.0744 O.2       7 UNK        -0.5147 
     49 N          24.5431  -31.7543  -41.5809 N.am      8 UNK        -0.4734 
     50 CA         24.2446  -32.6158  -42.7291 C.3       8 UNK         0.0238 
     51 CB         24.7467  -31.9255  -44.0077 C.3       8 UNK        -0.1912 
     52 C          22.7641  -33.0273  -42.8275 C.2       8 UNK         0.5038 
     53 O          22.4192  -33.8029  -43.7197 O.2       8 UNK        -0.5046 
     54 N          21.9213  -32.5337  -41.9091 N.am      9 UNK        -0.4200 
     55 CA         20.5356  -32.9962  -41.7167 C.3       9 UNK         0.0839 
     56 C          20.4338  -34.4302  -41.1097 C.2       9 UNK         0.5513 
     57 N          21.4703  -34.9500  -40.4604 N.am      9 UNK        -0.7519 
     58 O          19.4082  -35.0911  -41.2461 O.2       9 UNK        -0.4960 
     59 C59        19.7158  -31.9601  -40.9001 C.3       10 UNK        -0.0876 
     60 S60        17.9079  -32.0748  -41.1587 S.3       10 UNK        -0.2414 
     61 C61        17.4565  -30.3873  -41.6857 C.3       10 UNK         0.0169 
     62 H62        18.0778  -22.8200  -46.8964 H         1 UNK         0.0903 
     63 H63        18.0494  -21.6003  -45.6334 H         1 UNK         0.0903 
     64 H64        18.6237  -23.2182  -45.2559 H         1 UNK         0.0903 
     65 H65        15.0732  -24.5343  -45.4795 H         1 UNK         0.3096 
     66 H66        17.3367  -25.0022  -47.1930 H         1 UNK         0.1121 
     67 H67        15.2073  -26.0499  -47.7019 H         1 UNK         0.0849 
     68 H68        16.3992  -27.2740  -47.4090 H         1 UNK         0.0849 
     69 H69        14.1358  -29.5529  -45.4678 H         1 UNK         0.0865 
     70 H70        14.9915  -29.2592  -46.9529 H         1 UNK         0.0865 
     71 H71        15.4057  -29.4830  -43.2434 H         1 UNK         0.1346 
     72 H72        19.4389  -30.9123  -43.5028 H         1 UNK         0.1412 
     73 H73        17.3943  -29.6235  -47.0375 H         1 UNK         0.1426 
     74 H74        20.2534  -31.5434  -45.8213 H         1 UNK         0.0716 
     75 H75        19.4805  -30.8471  -47.2169 H         1 UNK         0.0716 
     76 H76        21.5463  -30.4209  -44.1655 H         1 UNK         0.0695 
     77 H77        22.8915  -29.5547  -44.8453 H         1 UNK         0.0695 
     78 H78        22.2089  -27.4452  -44.0013 H         1 UNK         0.0983 
     79 H79        19.5456  -28.4948  -43.9067 H         1 UNK         0.3095 
     80 H80        17.8556  -27.4914  -42.8711 H         1 UNK         0.0454 
     81 H81        16.8462  -25.7611  -41.4837 H         1 UNK         0.0851 
     82 H82        18.3982  -26.1956  -40.7923 H         1 UNK         0.0851 
     83 H83        18.2375  -24.6997  -41.7011 H         1 UNK         0.0851 
     84 H84        16.8191  -25.2838  -43.8422 H         1 UNK         0.2976 
     85 H85        20.4788  -28.2712  -41.3422 H         1 UNK         0.3116 
     86 H86        22.1621  -29.8329  -39.7011 H         1 UNK         0.0646 
     87 H87        20.7797  -28.8760  -37.8464 H         1 UNK         0.0847 
     88 H88        19.7688  -29.3929  -39.1815 H         1 UNK         0.0847 
     89 H89        20.1103  -27.6791  -38.9442 H         1 UNK         0.0847 
     90 H90        22.4152  -26.4498  -40.5980 H         1 UNK         0.3040 
     91 H91        24.2126  -25.5446  -38.5763 H         1 UNK         0.1015 
     92 H92        23.0058  -24.0067  -40.1136 H         1 UNK         0.0786 
     93 H93        23.8761  -24.6645  -41.4996 H         1 UNK         0.0786 
     94 H94        24.7383  -23.7638  -40.2592 H         1 UNK         0.0786 
     95 H95        24.7053  -27.6323  -41.3569 H         1 UNK         0.3172 
     96 H96        27.6695  -27.6608  -40.9560 H         1 UNK         0.0595 
     97 H97        25.9601  -28.6654  -43.2998 H         1 UNK         0.0839 
     98 H98        27.7153  -28.6939  -43.2084 H         1 UNK         0.0839 
     99 H99        26.8730  -27.1568  -43.2859 H         1 UNK         0.0839 
    100 H100       25.0887  -29.0820  -39.6264 H         1 UNK         0.2998 
    101 H101       24.4567  -30.9704  -38.7145 H         1 UNK         0.0822 
    102 H102       26.7286  -30.9075  -37.6499 H         1 UNK         0.0787 
    103 H103       26.1287  -32.5453  -37.8410 H         1 UNK         0.0787 
    104 H104       27.3551  -31.9345  -38.9394 H         1 UNK         0.0787 
    105 H105       24.4962  -30.7530  -41.7408 H         1 UNK         0.3055 
    106 H106       24.8015  -33.5507  -42.6304 H         1 UNK         0.1106 
    107 H107       24.4133  -32.4437  -44.9080 H         1 UNK         0.0828 
    108 H108       24.4063  -30.8954  -44.0689 H         1 UNK         0.0828 
    109 H109       25.8364  -31.9062  -44.0333 H         1 UNK         0.0828 
    110 H110       22.3019  -31.9209  -41.2049 H         1 UNK         0.2931 
    111 H111       20.0904  -33.0563  -42.7119 H         1 UNK         0.0412 
    112 H112       21.3939  -35.8809  -40.0810 H         1 UNK         0.3472 
    113 H113       22.3285  -34.4324  -40.3499 H         1 UNK         0.3472 
    114 H114       20.0321  -30.9546  -41.1717 H         1 UNK         0.0970 
    115 H115       19.9254  -32.0518  -39.8326 H         1 UNK         0.0970 
    116 H116       16.4713  -30.1697  -41.2706 H         1 UNK         0.0612 
    117 H117       18.1323  -29.6551  -41.2432 H         1 UNK         0.0612 
@<TRIPOS>BOND
     1    1    2 1    
     2    1   62 1    
     3    1   63 1    
     4    1   64 1    
     5    2    3 2    
     6    2    4 am   BACKBONE|DICT|INTERRES
     7    4    5 1    
     8    4   65 1    
     9    5    6 1    
    10    5   25 1    
    11    5   66 1    
    12    6    7 1    
    13    6   67 1    
    14    6   68 1    
    15    7    8 1    
    16    8    9 1    
    17    8   69 1    
    18    8   70 1    
    19    9   10 ar   
    20    9   14 ar   
    21   10   11 ar   
    22   10   71 1    
    23   11   12 ar   
    24   11   61 1    
    25   12   13 ar   
    26   12   72 1    
    27   13   14 ar   
    28   13   15 1    
    29   14   73 1    
    30   15   16 1    
    31   15   74 1    
    32   15   75 1    
    33   16   17 1    
    34   17   18 1    
    35   17   76 1    
    36   17   77 1    
    37   18   19 1    
    38   18   27 1    
    39   18   78 1    
    40   19   20 am   BACKBONE|DICT|INTERRES
    41   19   79 1    
    42   20   21 2    
    43   20   22 1    
    44   22   23 1    
    45   22   24 1    
    46   22   80 1    
    47   23   81 1    
    48   23   82 1    
    49   23   83 1    
    50   24   25 am   BACKBONE|DICT|INTERRES
    51   24   84 1    
    52   25   26 2    
    53   27   28 2    
    54   27   29 am   BACKBONE|DICT|INTERRES
    55   29   30 1    
    56   29   85 1    
    57   30   31 1    
    58   30   32 1    
    59   30   86 1    
    60   31   87 1    
    61   31   88 1    
    62   31   89 1    
    63   32   33 2    
    64   32   34 am   BACKBONE|DICT|INTERRES
    65   34   35 1    
    66   34   90 1    
    67   35   36 1    
    68   35   37 1    
    69   35   91 1    
    70   36   92 1    
    71   36   93 1    
    72   36   94 1    
    73   37   38 2    
    74   37   39 am   BACKBONE|DICT|INTERRES
    75   39   40 1    
    76   39   95 1    
    77   40   41 1    
    78   40   42 1    
    79   40   96 1    
    80   41   97 1    
    81   41   98 1    
    82   41   99 1    
    83   42   43 2    
    84   42   44 am   BACKBONE|DICT|INTERRES
    85   44   45 1    
    86   44  100 1    
    87   45   46 1    
    88   45   47 1    
    89   45  101 1    
    90   46  102 1    
    91   46  103 1    
    92   46  104 1    
    93   47   48 2    
    94   47   49 am   BACKBONE|DICT|INTERRES
    95   49   50 1    
    96   49  105 1    
    97   50   51 1    
    98   50   52 1    
    99   50  106 1    
   100   51  107 1    
   101   51  108 1    
   102   51  109 1    
   103   52   53 2    
   104   52   54 am   BACKBONE|DICT|INTERRES
   105   54   55 1    
   106   54  110 1    
   107   55   56 1    
   108   55   59 1    
   109   55  111 1    
   110   56   57 am   BACKBONE|DICT|INTERRES
   111   56   58 2    
   112   57  112 1    
   113   57  113 1    
   114   59   60 1    
   115   59  114 1    
   116   59  115 1    
   117   60   61 1    
   118   61  116 1    
   119   61  117 1    
@<TRIPOS>SUBSTRUCTURE
     1 UNK         1 GROUP             0       ****    0 ROOT    
