@<TRIPOS>MOLECULE
3R8
117   119    1
SMALL
USER_CHARGES


@<TRIPOS>ATOM
      1 CA         20.4441  -24.2073  -39.7402 C.3       0 UNK        -0.2013 
      2 C          19.2481  -24.6314  -40.5797 C.2       0 UNK         0.4866 
      3 O          18.2013  -23.9842  -40.5315 O.2       0 UNK        -0.5176 
      4 N          19.3978  -25.7154  -41.3474 N.am      1 UNK        -0.4884 
      5 CA         18.4177  -26.2159  -42.3118 C.3       1 UNK         0.0853 
      6 C6         18.6415  -27.7304  -42.5455 C.3       10 UNK        -0.0849 
      7 S7         17.1572  -28.6097  -43.1365 S.3       10 UNK        -0.2776 
      8 C8         17.7144  -30.3414  -43.0065 C.3       10 UNK         0.0316 
      9 C9         18.9989  -30.5824  -43.7869 C.ar      10 UNK        -0.0863 
     10 C10        20.2051  -30.7954  -43.1120 C.ar      10 UNK        -0.1009 
     11 C11        21.3925  -31.0057  -43.8227 C.ar      10 UNK        -0.0712 
     12 C12        21.3658  -30.9646  -45.2197 C.ar      10 UNK        -0.0894 
     13 C13        20.1697  -30.7331  -45.9052 C.ar      10 UNK        -0.0745 
     14 C14        18.9851  -30.5640  -45.1838 C.ar      10 UNK        -0.0972 
     15 C15        20.1637  -30.6409  -47.4245 C.3       10 UNK         0.0209 
     16 S16        19.7306  -28.9707  -48.0132 S.3       10 UNK        -0.2568 
     17 C17        21.0525  -27.9467  -47.2767 C.3       10 UNK        -0.0983 
     18 CA         20.6964  -26.4384  -47.2797 C.3       3 UNK         0.0876 
     19 N          19.4378  -26.1813  -46.5703 N.am      3 UNK        -0.4424 
     20 C          18.6297  -25.1338  -46.7758 C.2       2 UNK         0.4918 
     21 O          18.8296  -24.2746  -47.6343 O.2       2 UNK        -0.4875 
     22 CA         17.4056  -25.0002  -45.8471 C.3       2 UNK         0.0481 
     23 CB         16.1493  -25.5420  -46.5469 C.3       2 UNK        -0.1831 
     24 N          17.5428  -25.6523  -44.5367 N.am      2 UNK        -0.4498 
     25 C          18.4994  -25.4100  -43.6289 C.2       1 UNK         0.5027 
     26 O          19.4318  -24.6243  -43.8250 O.2       1 UNK        -0.4969 
     27 C          21.8767  -25.5888  -46.7444 C.2       3 UNK         0.5005 
     28 O          22.9802  -25.7131  -47.2784 O.2       3 UNK        -0.5279 
     29 N          21.6438  -24.7545  -45.7153 N.am      4 UNK        -0.4463 
     30 CA         22.6117  -23.8988  -45.0150 C.3       4 UNK         0.0283 
     31 CB         23.2455  -22.8567  -45.9620 C.3       4 UNK        -0.1875 
     32 C          23.6473  -24.7155  -44.2196 C.2       4 UNK         0.4949 
     33 O          24.8351  -24.3881  -44.2154 O.2       4 UNK        -0.5039 
     34 N          23.1631  -25.7646  -43.5494 N.am      5 UNK        -0.4663 
     35 CA         23.9147  -26.6698  -42.6865 C.3       5 UNK         0.0242 
     36 CB         24.6016  -27.7488  -43.5444 C.3       5 UNK        -0.1982 
     37 C          22.9331  -27.2946  -41.6879 C.2       5 UNK         0.5017 
     38 O          21.7214  -27.2211  -41.9050 O.2       5 UNK        -0.5012 
     39 N          23.4561  -27.9045  -40.6218 N.am      6 UNK        -0.4439 
     40 CA         22.6884  -28.6507  -39.6287 C.3       6 UNK         0.0297 
     41 CB         21.9559  -27.6963  -38.6663 C.3       6 UNK        -0.2006 
     42 C          23.6421  -29.5762  -38.8684 C.2       6 UNK         0.4892 
     43 O          24.8008  -29.2099  -38.6565 O.2       6 UNK        -0.5089 
     44 N          23.1196  -30.7390  -38.4710 N.am      7 UNK        -0.4243 
     45 CA         23.7565  -31.8426  -37.7534 C.3       7 UNK         0.0196 
     46 CB         25.0306  -32.3474  -38.4780 C.3       7 UNK        -0.2007 
     47 C          22.6803  -32.9363  -37.6229 C.2       7 UNK         0.5020 
     48 O          21.4872  -32.6179  -37.6368 O.2       7 UNK        -0.5147 
     49 N          23.0949  -34.2108  -37.5731 N.am      8 UNK        -0.4734 
     50 CA         22.2178  -35.3931  -37.6022 C.3       8 UNK         0.0238 
     51 CB         23.0676  -36.6536  -37.3713 C.3       8 UNK        -0.1912 
     52 C          21.3822  -35.5330  -38.8937 C.2       8 UNK         0.5038 
     53 O          20.4007  -36.2767  -38.9011 O.2       8 UNK        -0.5046 
     54 N          21.7742  -34.8012  -39.9439 N.am      9 UNK        -0.4200 
     55 CA         21.0146  -34.5589  -41.1771 C.3       9 UNK         0.0839 
     56 C          19.6550  -33.8217  -40.9769 C.2       9 UNK         0.5513 
     57 N          19.4319  -33.1213  -39.8691 N.am      9 UNK        -0.7519 
     58 O          18.7843  -33.9023  -41.8386 O.2       9 UNK        -0.4960 
     59 C59        21.9026  -33.8425  -42.2314 C.3       10 UNK        -0.0876 
     60 S60        22.6114  -32.2718  -41.6094 S.3       10 UNK        -0.2414 
     61 C61        22.7218  -31.2455  -43.1115 C.3       10 UNK         0.0169 
     62 H62        21.3483  -24.7475  -40.0211 H         1 UNK         0.0903 
     63 H63        20.6362  -23.1427  -39.8707 H         1 UNK         0.0903 
     64 H64        20.2477  -24.3928  -38.6846 H         1 UNK         0.0903 
     65 H65        20.2980  -26.1904  -41.3878 H         1 UNK         0.3096 
     66 H66        17.4214  -26.0655  -41.8894 H         1 UNK         0.1121 
     67 H67        18.9382  -28.2092  -41.6102 H         1 UNK         0.0849 
     68 H68        19.4693  -27.9020  -43.2370 H         1 UNK         0.0849 
     69 H69        17.8468  -30.5999  -41.9546 H         1 UNK         0.0865 
     70 H70        16.9315  -30.9999  -43.3852 H         1 UNK         0.0865 
     71 H71        20.2189  -30.7978  -42.0310 H         1 UNK         0.1346 
     72 H72        22.2832  -31.0989  -45.7765 H         1 UNK         0.1412 
     73 H73        18.0579  -30.3805  -45.7097 H         1 UNK         0.1426 
     74 H74        19.4420  -31.3551  -47.8233 H         1 UNK         0.0716 
     75 H75        21.1340  -30.9211  -47.8375 H         1 UNK         0.0716 
     76 H76        21.2484  -28.2769  -46.2555 H         1 UNK         0.0695 
     77 H77        21.9679  -28.1329  -47.8417 H         1 UNK         0.0695 
     78 H78        20.5613  -26.1369  -48.3209 H         1 UNK         0.0983 
     79 H79        19.1790  -26.8562  -45.8662 H         1 UNK         0.3095 
     80 H80        17.2590  -23.9344  -45.6613 H         1 UNK         0.0454 
     81 H81        15.9997  -25.0578  -47.5131 H         1 UNK         0.0851 
     82 H82        16.2201  -26.6153  -46.7284 H         1 UNK         0.0851 
     83 H83        15.2526  -25.3589  -45.9546 H         1 UNK         0.0851 
     84 H84        16.8479  -26.3518  -44.3100 H         1 UNK         0.2976 
     85 H85        20.7105  -24.7435  -45.3129 H         1 UNK         0.3116 
     86 H86        22.0340  -23.3471  -44.2717 H         1 UNK         0.0646 
     87 H87        23.8404  -22.1347  -45.4016 H         1 UNK         0.0847 
     88 H88        22.4834  -22.2967  -46.5036 H         1 UNK         0.0847 
     89 H89        23.9080  -23.3188  -46.6942 H         1 UNK         0.0847 
     90 H90        22.1656  -25.9410  -43.5547 H         1 UNK         0.3040 
     91 H91        24.6625  -26.1027  -42.1276 H         1 UNK         0.1015 
     92 H92        25.3220  -27.3069  -44.2331 H         1 UNK         0.0786 
     93 H93        23.8775  -28.3092  -44.1373 H         1 UNK         0.0786 
     94 H94        25.1450  -28.4633  -42.9250 H         1 UNK         0.0786 
     95 H95        24.4599  -27.9492  -40.4915 H         1 UNK         0.3172 
     96 H96        21.9536  -29.2688  -40.1508 H         1 UNK         0.0595 
     97 H97        21.4507  -28.2501  -37.8739 H         1 UNK         0.0839 
     98 H98        21.1928  -27.1166  -39.1839 H         1 UNK         0.0839 
     99 H99        22.6454  -26.9987  -38.1896 H         1 UNK         0.0839 
    100 H100       22.1398  -30.9226  -38.6564 H         1 UNK         0.2998 
    101 H101       24.0156  -31.5004  -36.7502 H         1 UNK         0.0822 
    102 H102       25.7792  -31.5633  -38.5821 H         1 UNK         0.0787 
    103 H103       25.5177  -33.1493  -37.9229 H         1 UNK         0.0787 
    104 H104       24.8066  -32.7214  -39.4776 H         1 UNK         0.0787 
    105 H105       24.0894  -34.3890  -37.5731 H         1 UNK         0.3055 
    106 H106       21.5080  -35.2993  -36.7773 H         1 UNK         0.1106 
    107 H107       23.8095  -36.7908  -38.1590 H         1 UNK         0.0828 
    108 H108       23.5926  -36.6106  -36.4169 H         1 UNK         0.0828 
    109 H109       22.4432  -37.5482  -37.3535 H         1 UNK         0.0828 
    110 H110       22.5911  -34.2210  -39.8286 H         1 UNK         0.2931 
    111 H111       20.7639  -35.5416  -41.5808 H         1 UNK         0.0412 
    112 H112       18.5431  -32.6642  -39.7470 H         1 UNK         0.3472 
    113 H113       20.1413  -33.0451  -39.1499 H         1 UNK         0.3472 
    114 H114       21.3375  -33.6663  -43.1483 H         1 UNK         0.0970 
    115 H115       22.7291  -34.4936  -42.5192 H         1 UNK         0.0970 
    116 H116       23.4391  -31.7121  -43.7884 H         1 UNK         0.0612 
    117 H117       23.1409  -30.2795  -42.8310 H         1 UNK         0.0612 
@<TRIPOS>BOND
     1    1    2 1    
     2    1   62 1    
     3    1   63 1    
     4    1   64 1    
     5    2    3 2    
     6    2    4 am   BACKBONE|DICT|INTERRES
     7    4    5 1    
     8    4   65 1    
     9    5    6 1    
    10    5   25 1    
    11    5   66 1    
    12    6    7 1    
    13    6   67 1    
    14    6   68 1    
    15    7    8 1    
    16    8    9 1    
    17    8   69 1    
    18    8   70 1    
    19    9   10 ar   
    20    9   14 ar   
    21   10   11 ar   
    22   10   71 1    
    23   11   12 ar   
    24   11   61 1    
    25   12   13 ar   
    26   12   72 1    
    27   13   14 ar   
    28   13   15 1    
    29   14   73 1    
    30   15   16 1    
    31   15   74 1    
    32   15   75 1    
    33   16   17 1    
    34   17   18 1    
    35   17   76 1    
    36   17   77 1    
    37   18   19 1    
    38   18   27 1    
    39   18   78 1    
    40   19   20 am   BACKBONE|DICT|INTERRES
    41   19   79 1    
    42   20   21 2    
    43   20   22 1    
    44   22   23 1    
    45   22   24 1    
    46   22   80 1    
    47   23   81 1    
    48   23   82 1    
    49   23   83 1    
    50   24   25 am   BACKBONE|DICT|INTERRES
    51   24   84 1    
    52   25   26 2    
    53   27   28 2    
    54   27   29 am   BACKBONE|DICT|INTERRES
    55   29   30 1    
    56   29   85 1    
    57   30   31 1    
    58   30   32 1    
    59   30   86 1    
    60   31   87 1    
    61   31   88 1    
    62   31   89 1    
    63   32   33 2    
    64   32   34 am   BACKBONE|DICT|INTERRES
    65   34   35 1    
    66   34   90 1    
    67   35   36 1    
    68   35   37 1    
    69   35   91 1    
    70   36   92 1    
    71   36   93 1    
    72   36   94 1    
    73   37   38 2    
    74   37   39 am   BACKBONE|DICT|INTERRES
    75   39   40 1    
    76   39   95 1    
    77   40   41 1    
    78   40   42 1    
    79   40   96 1    
    80   41   97 1    
    81   41   98 1    
    82   41   99 1    
    83   42   43 2    
    84   42   44 am   BACKBONE|DICT|INTERRES
    85   44   45 1    
    86   44  100 1    
    87   45   46 1    
    88   45   47 1    
    89   45  101 1    
    90   46  102 1    
    91   46  103 1    
    92   46  104 1    
    93   47   48 2    
    94   47   49 am   BACKBONE|DICT|INTERRES
    95   49   50 1    
    96   49  105 1    
    97   50   51 1    
    98   50   52 1    
    99   50  106 1    
   100   51  107 1    
   101   51  108 1    
   102   51  109 1    
   103   52   53 2    
   104   52   54 am   BACKBONE|DICT|INTERRES
   105   54   55 1    
   106   54  110 1    
   107   55   56 1    
   108   55   59 1    
   109   55  111 1    
   110   56   57 am   BACKBONE|DICT|INTERRES
   111   56   58 2    
   112   57  112 1    
   113   57  113 1    
   114   59   60 1    
   115   59  114 1    
   116   59  115 1    
   117   60   61 1    
   118   61  116 1    
   119   61  117 1    
@<TRIPOS>SUBSTRUCTURE
     1 UNK         1 GROUP             0       ****    0 ROOT    
