@<TRIPOS>MOLECULE
3R8
117   119    1
SMALL
USER_CHARGES


@<TRIPOS>ATOM
      1 CA         19.4438  -23.1306  -44.8553 C.3       0 UNK        -0.2013 
      2 C          19.2648  -24.4746  -45.5453 C.2       0 UNK         0.4866 
      3 O          19.9547  -24.7536  -46.5256 O.2       0 UNK        -0.5176 
      4 N          18.3377  -25.3031  -45.0460 N.am      1 UNK        -0.4884 
      5 CA         18.0390  -26.6513  -45.5489 C.3       1 UNK         0.0853 
      6 C6         16.7256  -27.2180  -44.9484 C.3       10 UNK        -0.0849 
      7 S7         16.6041  -27.0676  -43.1268 S.3       10 UNK        -0.2776 
      8 C8         15.6109  -28.5310  -42.6993 C.3       10 UNK         0.0316 
      9 C9         16.4806  -29.7595  -42.4789 C.ar      10 UNK        -0.0863 
     10 C10        16.6880  -30.6804  -43.5107 C.ar      10 UNK        -0.1009 
     11 C11        17.4670  -31.8222  -43.2971 C.ar      10 UNK        -0.0712 
     12 C12        18.0327  -32.0421  -42.0373 C.ar      10 UNK        -0.0894 
     13 C13        17.8212  -31.1356  -40.9946 C.ar      10 UNK        -0.0745 
     14 C14        17.0495  -29.9929  -41.2231 C.ar      10 UNK        -0.0972 
     15 C15        18.3878  -31.4236  -39.6124 C.3       10 UNK         0.0209 
     16 S16        20.1119  -30.8710  -39.4496 S.3       10 UNK        -0.2568 
     17 C17        19.9077  -29.0962  -39.0685 C.3       10 UNK        -0.0983 
     18 CA         20.8411  -28.2155  -39.9303 C.3       3 UNK         0.0876 
     19 N          20.5677  -28.3694  -41.3673 N.am      3 UNK        -0.4424 
     20 C          21.3761  -27.9598  -42.3538 C.2       2 UNK         0.4918 
     21 O          22.3682  -27.2551  -42.1792 O.2       2 UNK        -0.4875 
     22 CA         20.9880  -28.3724  -43.7709 C.3       2 UNK         0.0481 
     23 CB         20.7990  -29.8965  -43.8707 C.3       2 UNK        -0.1831 
     24 N          19.7911  -27.6351  -44.1608 N.am      2 UNK        -0.4498 
     25 C          19.2253  -27.6214  -45.3729 C.2       1 UNK         0.5027 
     26 O          19.6154  -28.2886  -46.3320 O.2       1 UNK        -0.4969 
     27 C          20.8729  -26.7533  -39.4299 C.2       3 UNK         0.5005 
     28 O          21.3619  -26.5026  -38.3276 O.2       3 UNK        -0.5279 
     29 N          20.3850  -25.8099  -40.2463 N.am      4 UNK        -0.4463 
     30 CA         20.5146  -24.3689  -40.0273 C.3       4 UNK         0.0283 
     31 CB         19.4906  -23.6397  -40.9120 C.3       4 UNK        -0.1875 
     32 C          21.9348  -23.8310  -40.3013 C.2       4 UNK         0.4949 
     33 O          22.2633  -22.7576  -39.7953 O.2       4 UNK        -0.5039 
     34 N          22.7352  -24.5508  -41.1026 N.am      5 UNK        -0.4663 
     35 CA         24.0751  -24.1375  -41.5364 C.3       5 UNK         0.0242 
     36 CB         24.0575  -23.9099  -43.0578 C.3       5 UNK        -0.1982 
     37 C          25.1630  -25.1575  -41.1626 C.2       5 UNK         0.5017 
     38 O          26.2669  -24.7484  -40.8006 O.2       5 UNK        -0.5012 
     39 N          24.8467  -26.4527  -41.2628 N.am      6 UNK        -0.4439 
     40 CA         25.7257  -27.5810  -40.9660 C.3       6 UNK         0.0297 
     41 CB         26.3822  -28.0787  -42.2713 C.3       6 UNK        -0.2006 
     42 C          24.8950  -28.6372  -40.2209 C.2       6 UNK         0.4892 
     43 O          24.3108  -28.3041  -39.1893 O.2       6 UNK        -0.5089 
     44 N          24.8326  -29.8699  -40.7386 N.am      7 UNK        -0.4243 
     45 CA         23.9947  -30.9551  -40.2344 C.3       7 UNK         0.0196 
     46 CB         24.6056  -31.5755  -38.9633 C.3       7 UNK        -0.2007 
     47 C          23.8339  -32.0115  -41.3320 C.2       7 UNK         0.5020 
     48 O          24.8214  -32.3277  -41.9986 O.2       7 UNK        -0.5147 
     49 N          22.6117  -32.5531  -41.4467 N.am      8 UNK        -0.4734 
     50 CA         22.1496  -33.6266  -42.3430 C.3       8 UNK         0.0238 
     51 CB         22.9398  -34.9279  -42.0976 C.3       8 UNK        -0.1912 
     52 C          22.1407  -33.2665  -43.8434 C.2       8 UNK         0.5038 
     53 O          22.9994  -32.5245  -44.3222 O.2       8 UNK        -0.5046 
     54 N          21.1660  -33.8314  -44.5671 N.am      9 UNK        -0.4200 
     55 CA         21.0073  -33.6798  -46.0258 C.3       9 UNK         0.0839 
     56 C          21.7727  -34.7529  -46.8546 C.2       9 UNK         0.5513 
     57 N          22.4482  -35.7180  -46.2416 N.am      9 UNK        -0.7519 
     58 O          21.7637  -34.7027  -48.0819 O.2       9 UNK        -0.4960 
     59 C59        19.5117  -33.6027  -46.4377 C.3       10 UNK        -0.0876 
     60 S60        18.6963  -32.1218  -45.7528 S.3       10 UNK        -0.2414 
     61 C61        17.6837  -32.8282  -44.4182 C.3       10 UNK         0.0169 
     62 H62        18.6758  -22.9525  -44.1029 H         1 UNK         0.0903 
     63 H63        20.4185  -23.0846  -44.3698 H         1 UNK         0.0903 
     64 H64        19.3898  -22.3241  -45.5861 H         1 UNK         0.0903 
     65 H65        17.7882  -25.0176  -44.2469 H         1 UNK         0.3096 
     66 H66        17.8854  -26.5588  -46.6268 H         1 UNK         0.1121 
     67 H67        15.8775  -26.6794  -45.3739 H         1 UNK         0.0849 
     68 H68        16.5872  -28.2576  -45.2500 H         1 UNK         0.0849 
     69 H69        15.0488  -28.3162  -41.7891 H         1 UNK         0.0865 
     70 H70        14.8640  -28.7171  -43.4728 H         1 UNK         0.0865 
     71 H71        16.2433  -30.5147  -44.4822 H         1 UNK         0.1346 
     72 H72        18.6258  -32.9283  -41.8598 H         1 UNK         0.1412 
     73 H73        16.8723  -29.2923  -40.4185 H         1 UNK         0.1426 
     74 H74        18.3494  -32.4973  -39.4224 H         1 UNK         0.0716 
     75 H75        17.7745  -30.9618  -38.8369 H         1 UNK         0.0716 
     76 H76        20.1278  -28.9683  -38.0068 H         1 UNK         0.0695 
     77 H77        18.8688  -28.7930  -39.2019 H         1 UNK         0.0695 
     78 H78        21.8543  -28.5799  -39.7712 H         1 UNK         0.0983 
     79 H79        19.7668  -28.9400  -41.6004 H         1 UNK         0.3095 
     80 H80        21.8044  -28.0792  -44.4339 H         1 UNK         0.0454 
     81 H81        21.6018  -30.4210  -43.3531 H         1 UNK         0.0851 
     82 H82        19.8559  -30.2237  -43.4349 H         1 UNK         0.0851 
     83 H83        20.8214  -30.2303  -44.9075 H         1 UNK         0.0851 
     84 H84        19.3832  -27.0388  -43.4555 H         1 UNK         0.2976 
     85 H85        19.9720  -26.1055  -41.1168 H         1 UNK         0.3116 
     86 H86        20.2766  -24.1540  -38.9832 H         1 UNK         0.0646 
     87 H87        19.5390  -22.5607  -40.7580 H         1 UNK         0.0847 
     88 H88        18.4715  -23.9521  -40.6830 H         1 UNK         0.0847 
     89 H89        19.6710  -23.8256  -41.9704 H         1 UNK         0.0847 
     90 H90        22.4019  -25.4424  -41.4529 H         1 UNK         0.3040 
     91 H91        24.3548  -23.1951  -41.0601 H         1 UNK         0.1015 
     92 H92        23.3541  -23.1232  -43.3310 H         1 UNK         0.0786 
     93 H93        23.7744  -24.8142  -43.5986 H         1 UNK         0.0786 
     94 H94        25.0406  -23.6055  -43.4199 H         1 UNK         0.0786 
     95 H95        23.9059  -26.7106  -41.5581 H         1 UNK         0.3172 
     96 H96        26.5143  -27.2677  -40.2788 H         1 UNK         0.0595 
     97 H97        27.0636  -28.9094  -42.0831 H         1 UNK         0.0839 
     98 H98        26.9712  -27.2876  -42.7359 H         1 UNK         0.0839 
     99 H99        25.6413  -28.4061  -43.0022 H         1 UNK         0.0839 
    100 H100       25.3337  -30.0860  -41.5913 H         1 UNK         0.2998 
    101 H101       23.0117  -30.5507  -39.9932 H         1 UNK         0.0822 
    102 H102       25.6101  -31.9585  -39.1473 H         1 UNK         0.0787 
    103 H103       24.6668  -30.8500  -38.1521 H         1 UNK         0.0787 
    104 H104       23.9979  -32.4075  -38.6051 H         1 UNK         0.0787 
    105 H105       21.8921  -32.1844  -40.8378 H         1 UNK         0.3055 
    106 H106       21.1145  -33.8107  -42.0502 H         1 UNK         0.1106 
    107 H107       23.9798  -34.8378  -42.4134 H         1 UNK         0.0828 
    108 H108       22.9331  -35.2040  -41.0432 H         1 UNK         0.0828 
    109 H109       22.5064  -35.7617  -42.6508 H         1 UNK         0.0828 
    110 H110       20.5137  -34.4566  -44.1183 H         1 UNK         0.2931 
    111 H111       21.4580  -32.7297  -46.3203 H         1 UNK         0.0412 
    112 H112       22.9422  -36.4011  -46.7949 H         1 UNK         0.3472 
    113 H113       22.4794  -35.7657  -45.2367 H         1 UNK         0.3472 
    114 H114       18.9758  -34.5067  -46.1436 H         1 UNK         0.0970 
    115 H115       19.4160  -33.5395  -47.5233 H         1 UNK         0.0970 
    116 H116       16.7210  -33.1414  -44.8245 H         1 UNK         0.0612 
    117 H117       18.1633  -33.7270  -44.0286 H         1 UNK         0.0612 
@<TRIPOS>BOND
     1    1    2 1    
     2    1   62 1    
     3    1   63 1    
     4    1   64 1    
     5    2    3 2    
     6    2    4 am   BACKBONE|DICT|INTERRES
     7    4    5 1    
     8    4   65 1    
     9    5    6 1    
    10    5   25 1    
    11    5   66 1    
    12    6    7 1    
    13    6   67 1    
    14    6   68 1    
    15    7    8 1    
    16    8    9 1    
    17    8   69 1    
    18    8   70 1    
    19    9   10 ar   
    20    9   14 ar   
    21   10   11 ar   
    22   10   71 1    
    23   11   12 ar   
    24   11   61 1    
    25   12   13 ar   
    26   12   72 1    
    27   13   14 ar   
    28   13   15 1    
    29   14   73 1    
    30   15   16 1    
    31   15   74 1    
    32   15   75 1    
    33   16   17 1    
    34   17   18 1    
    35   17   76 1    
    36   17   77 1    
    37   18   19 1    
    38   18   27 1    
    39   18   78 1    
    40   19   20 am   BACKBONE|DICT|INTERRES
    41   19   79 1    
    42   20   21 2    
    43   20   22 1    
    44   22   23 1    
    45   22   24 1    
    46   22   80 1    
    47   23   81 1    
    48   23   82 1    
    49   23   83 1    
    50   24   25 am   BACKBONE|DICT|INTERRES
    51   24   84 1    
    52   25   26 2    
    53   27   28 2    
    54   27   29 am   BACKBONE|DICT|INTERRES
    55   29   30 1    
    56   29   85 1    
    57   30   31 1    
    58   30   32 1    
    59   30   86 1    
    60   31   87 1    
    61   31   88 1    
    62   31   89 1    
    63   32   33 2    
    64   32   34 am   BACKBONE|DICT|INTERRES
    65   34   35 1    
    66   34   90 1    
    67   35   36 1    
    68   35   37 1    
    69   35   91 1    
    70   36   92 1    
    71   36   93 1    
    72   36   94 1    
    73   37   38 2    
    74   37   39 am   BACKBONE|DICT|INTERRES
    75   39   40 1    
    76   39   95 1    
    77   40   41 1    
    78   40   42 1    
    79   40   96 1    
    80   41   97 1    
    81   41   98 1    
    82   41   99 1    
    83   42   43 2    
    84   42   44 am   BACKBONE|DICT|INTERRES
    85   44   45 1    
    86   44  100 1    
    87   45   46 1    
    88   45   47 1    
    89   45  101 1    
    90   46  102 1    
    91   46  103 1    
    92   46  104 1    
    93   47   48 2    
    94   47   49 am   BACKBONE|DICT|INTERRES
    95   49   50 1    
    96   49  105 1    
    97   50   51 1    
    98   50   52 1    
    99   50  106 1    
   100   51  107 1    
   101   51  108 1    
   102   51  109 1    
   103   52   53 2    
   104   52   54 am   BACKBONE|DICT|INTERRES
   105   54   55 1    
   106   54  110 1    
   107   55   56 1    
   108   55   59 1    
   109   55  111 1    
   110   56   57 am   BACKBONE|DICT|INTERRES
   111   56   58 2    
   112   57  112 1    
   113   57  113 1    
   114   59   60 1    
   115   59  114 1    
   116   59  115 1    
   117   60   61 1    
   118   61  116 1    
   119   61  117 1    
@<TRIPOS>SUBSTRUCTURE
     1 UNK         1 GROUP             0       ****    0 ROOT    
