@<TRIPOS>MOLECULE
3R8
117   119    1
SMALL
USER_CHARGES


@<TRIPOS>ATOM
      1 CA         21.6078  -25.3746  -40.3854 C.3       0 UNK        -0.2013 
      2 C          20.1464  -25.7735  -40.5244 C.2       0 UNK         0.4866 
      3 O          19.2651  -24.9885  -40.1757 O.2       0 UNK        -0.5176 
      4 N          19.8879  -26.9927  -41.0162 N.am      1 UNK        -0.4884 
      5 CA         18.5539  -27.5672  -41.2301 C.3       1 UNK         0.0853 
      6 C6         18.6704  -29.0690  -41.5877 C.3       10 UNK        -0.0849 
      7 S7         17.0934  -29.9874  -41.5026 S.3       10 UNK        -0.2776 
      8 C8         16.5808  -30.1450  -43.2493 C.3       10 UNK         0.0316 
      9 C9         17.6569  -30.7570  -44.1379 C.ar      10 UNK        -0.0863 
     10 C10        17.8906  -32.1356  -44.1454 C.ar      10 UNK        -0.1009 
     11 C11        18.8995  -32.6786  -44.9515 C.ar      10 UNK        -0.0712 
     12 C12        19.6796  -31.8306  -45.7478 C.ar      10 UNK        -0.0894 
     13 C13        19.4498  -30.4520  -45.7478 C.ar      10 UNK        -0.0745 
     14 C14        18.4254  -29.9306  -44.9594 C.ar      10 UNK        -0.0972 
     15 C15        20.2871  -29.5063  -46.5940 C.3       10 UNK         0.0209 
     16 S16        21.4999  -28.6024  -45.5746 S.3       10 UNK        -0.2568 
     17 C17        21.7808  -27.1080  -46.5974 C.3       10 UNK        -0.0983 
     18 CA         21.4986  -25.7546  -45.8778 C.3       3 UNK         0.0876 
     19 N          20.2331  -25.7161  -45.1585 N.am      3 UNK        -0.4424 
     20 C          18.9990  -25.7852  -45.6630 C.2       2 UNK         0.4918 
     21 O          18.7510  -25.8211  -46.8686 O.2       2 UNK        -0.4875 
     22 CA         17.8647  -25.8723  -44.6265 C.3       2 UNK         0.0481 
     23 CB         16.5498  -26.4232  -45.2217 C.3       2 UNK        -0.1831 
     24 N          18.3281  -26.6714  -43.4878 N.am      2 UNK        -0.4498 
     25 C          17.7564  -26.7673  -42.2827 C.2       1 UNK         0.5027 
     26 O          16.6863  -26.2384  -41.9785 O.2       1 UNK        -0.4969 
     27 C          22.5842  -25.3971  -44.8489 C.2       3 UNK         0.5005 
     28 O          22.3302  -25.4610  -43.6415 O.2       3 UNK        -0.5279 
     29 N          23.7753  -25.0314  -45.3363 N.am      4 UNK        -0.4463 
     30 CA         24.9273  -24.6487  -44.5120 C.3       4 UNK         0.0283 
     31 CB         25.8842  -23.8000  -45.3679 C.3       4 UNK        -0.1875 
     32 C          25.6756  -25.8421  -43.8831 C.2       4 UNK         0.4949 
     33 O          26.6284  -25.6147  -43.1375 O.2       4 UNK        -0.5039 
     34 N          25.2703  -27.0766  -44.2165 N.am      5 UNK        -0.4663 
     35 CA         25.9075  -28.3258  -43.7975 C.3       5 UNK         0.0242 
     36 CB         25.2637  -29.5069  -44.5448 C.3       5 UNK        -0.1982 
     37 C          25.8907  -28.5439  -42.2754 C.2       5 UNK         0.5017 
     38 O          26.9610  -28.6133  -41.6696 O.2       5 UNK        -0.5012 
     39 N          24.6897  -28.6492  -41.6925 N.am      6 UNK        -0.4439 
     40 CA         24.4455  -28.9129  -40.2744 C.3       6 UNK         0.0297 
     41 CB         24.9964  -30.2989  -39.8676 C.3       6 UNK        -0.2006 
     42 C          22.9388  -28.8459  -39.9957 C.2       6 UNK         0.4892 
     43 O          22.1347  -28.8075  -40.9326 O.2       6 UNK        -0.5089 
     44 N          22.5891  -28.8529  -38.7031 N.am      7 UNK        -0.4243 
     45 CA         21.2309  -29.0795  -38.2061 C.3       7 UNK         0.0196 
     46 CB         21.1550  -28.6352  -36.7368 C.3       7 UNK        -0.2007 
     47 C          20.8419  -30.5620  -38.3468 C.2       7 UNK         0.5020 
     48 O          21.7218  -31.4234  -38.4102 O.2       7 UNK        -0.5147 
     49 N          19.5309  -30.8322  -38.4041 N.am      8 UNK        -0.4734 
     50 CA         18.8711  -32.1319  -38.6323 C.3       8 UNK         0.0238 
     51 CB         19.2365  -33.1656  -37.5483 C.3       8 UNK        -0.1912 
     52 C          19.0709  -32.7080  -40.0486 C.2       8 UNK         0.5038 
     53 O          18.0983  -33.1806  -40.6360 O.2       8 UNK        -0.5046 
     54 N          20.2979  -32.6284  -40.5716 N.am      9 UNK        -0.4200 
     55 CA         20.6996  -32.8846  -41.9557 C.3       9 UNK         0.0839 
     56 C          22.1893  -32.4949  -42.1051 C.2       9 UNK         0.5513 
     57 N          22.5124  -31.5787  -43.0068 N.am      9 UNK        -0.7519 
     58 O          23.0552  -33.0430  -41.4273 O.2       9 UNK        -0.4960 
     59 C59        20.4135  -34.3407  -42.4263 C.3       10 UNK        -0.0876 
     60 S60        20.7477  -34.6169  -44.2010 S.3       10 UNK        -0.2414 
     61 C61        19.1515  -34.1804  -44.9631 C.3       10 UNK         0.0169 
     62 H62        22.2629  -26.0322  -40.9561 H         1 UNK         0.0903 
     63 H63        21.7578  -24.3603  -40.7540 H         1 UNK         0.0903 
     64 H64        21.9108  -25.4098  -39.3394 H         1 UNK         0.0903 
     65 H65        20.6734  -27.6064  -41.2251 H         1 UNK         0.3096 
     66 H66        18.0131  -27.4832  -40.2847 H         1 UNK         0.1121 
     67 H67        19.1642  -29.2079  -42.5471 H         1 UNK         0.0849 
     68 H68        19.3378  -29.5540  -40.8761 H         1 UNK         0.0849 
     69 H69        15.6823  -30.7620  -43.2953 H         1 UNK         0.0865 
     70 H70        16.2874  -29.1630  -43.6234 H         1 UNK         0.0865 
     71 H71        17.2997  -32.7808  -43.5090 H         1 UNK         0.1346 
     72 H72        20.4682  -32.2463  -46.3603 H         1 UNK         0.1412 
     73 H73        18.2503  -28.8675  -44.9681 H         1 UNK         0.1426 
     74 H74        19.6184  -28.8021  -47.0916 H         1 UNK         0.0716 
     75 H75        20.8111  -30.0477  -47.3830 H         1 UNK         0.0716 
     76 H76        22.8042  -27.1427  -46.9746 H         1 UNK         0.0695 
     77 H77        21.1568  -27.1629  -47.4900 H         1 UNK         0.0695 
     78 H78        21.4802  -24.9550  -46.6214 H         1 UNK         0.0983 
     79 H79        20.3733  -25.6159  -44.1595 H         1 UNK         0.3095 
     80 H80        17.6827  -24.8563  -44.2714 H         1 UNK         0.0454 
     81 H81        16.1862  -25.7728  -46.0180 H         1 UNK         0.0851 
     82 H82        16.6768  -27.4149  -45.6535 H         1 UNK         0.0851 
     83 H83        15.7571  -26.4807  -44.4767 H         1 UNK         0.0851 
     84 H84        19.2114  -27.1434  -43.6275 H         1 UNK         0.2976 
     85 H85        23.9110  -25.0081  -46.3376 H         1 UNK         0.3116 
     86 H86        24.5719  -24.0261  -43.6879 H         1 UNK         0.0646 
     87 H87        26.7297  -23.4448  -44.7769 H         1 UNK         0.0847 
     88 H88        25.3839  -22.9187  -45.7696 H         1 UNK         0.0847 
     89 H89        26.2902  -24.3689  -46.2052 H         1 UNK         0.0847 
     90 H90        24.4681  -27.1585  -44.8229 H         1 UNK         0.3040 
     91 H91        26.9557  -28.2732  -44.1006 H         1 UNK         0.1015 
     92 H92        25.4190  -29.4246  -45.6207 H         1 UNK         0.0786 
     93 H93        24.1893  -29.5638  -44.3697 H         1 UNK         0.0786 
     94 H94        25.7001  -30.4555  -44.2287 H         1 UNK         0.0786 
     95 H95        23.8447  -28.5506  -42.2435 H         1 UNK         0.3172 
     96 H96        24.9356  -28.1340  -39.6872 H         1 UNK         0.0595 
     97 H97        26.0832  -30.3413  -39.9293 H         1 UNK         0.0839 
     98 H98        24.5967  -31.0872  -40.5047 H         1 UNK         0.0839 
     99 H99        24.7345  -30.5537  -38.8401 H         1 UNK         0.0839 
    100 H100       23.3239  -28.9096  -38.0131 H         1 UNK         0.2998 
    101 H101       20.5356  -28.4762  -38.7910 H         1 UNK         0.0822 
    102 H102       21.4175  -27.5826  -36.6272 H         1 UNK         0.0787 
    103 H103       20.1462  -28.7583  -36.3406 H         1 UNK         0.0787 
    104 H104       21.8264  -29.2169  -36.1036 H         1 UNK         0.0787 
    105 H105       18.8930  -30.0502  -38.3413 H         1 UNK         0.3055 
    106 H106       17.8019  -31.9325  -38.5382 H         1 UNK         0.1106 
    107 H107       20.2854  -33.4590  -37.5947 H         1 UNK         0.0828 
    108 H108       19.0399  -32.7785  -36.5487 H         1 UNK         0.0828 
    109 H109       18.6444  -34.0741  -37.6662 H         1 UNK         0.0828 
    110 H110       21.0344  -32.2572  -39.9753 H         1 UNK         0.2931 
    111 H111       20.1112  -32.1963  -42.5609 H         1 UNK         0.0412 
    112 H112       23.4813  -31.3365  -43.1240 H         1 UNK         0.3472 
    113 H113       21.8063  -31.1374  -43.5755 H         1 UNK         0.3472 
    114 H114       19.3768  -34.6176  -42.2401 H         1 UNK         0.0970 
    115 H115       21.0135  -35.0461  -41.8489 H         1 UNK         0.0970 
    116 H116       18.3469  -34.7184  -44.4595 H         1 UNK         0.0612 
    117 H117       19.1519  -34.5299  -45.9964 H         1 UNK         0.0612 
@<TRIPOS>BOND
     1    1    2 1    
     2    1   62 1    
     3    1   63 1    
     4    1   64 1    
     5    2    3 2    
     6    2    4 am   BACKBONE|DICT|INTERRES
     7    4    5 1    
     8    4   65 1    
     9    5    6 1    
    10    5   25 1    
    11    5   66 1    
    12    6    7 1    
    13    6   67 1    
    14    6   68 1    
    15    7    8 1    
    16    8    9 1    
    17    8   69 1    
    18    8   70 1    
    19    9   10 ar   
    20    9   14 ar   
    21   10   11 ar   
    22   10   71 1    
    23   11   12 ar   
    24   11   61 1    
    25   12   13 ar   
    26   12   72 1    
    27   13   14 ar   
    28   13   15 1    
    29   14   73 1    
    30   15   16 1    
    31   15   74 1    
    32   15   75 1    
    33   16   17 1    
    34   17   18 1    
    35   17   76 1    
    36   17   77 1    
    37   18   19 1    
    38   18   27 1    
    39   18   78 1    
    40   19   20 am   BACKBONE|DICT|INTERRES
    41   19   79 1    
    42   20   21 2    
    43   20   22 1    
    44   22   23 1    
    45   22   24 1    
    46   22   80 1    
    47   23   81 1    
    48   23   82 1    
    49   23   83 1    
    50   24   25 am   BACKBONE|DICT|INTERRES
    51   24   84 1    
    52   25   26 2    
    53   27   28 2    
    54   27   29 am   BACKBONE|DICT|INTERRES
    55   29   30 1    
    56   29   85 1    
    57   30   31 1    
    58   30   32 1    
    59   30   86 1    
    60   31   87 1    
    61   31   88 1    
    62   31   89 1    
    63   32   33 2    
    64   32   34 am   BACKBONE|DICT|INTERRES
    65   34   35 1    
    66   34   90 1    
    67   35   36 1    
    68   35   37 1    
    69   35   91 1    
    70   36   92 1    
    71   36   93 1    
    72   36   94 1    
    73   37   38 2    
    74   37   39 am   BACKBONE|DICT|INTERRES
    75   39   40 1    
    76   39   95 1    
    77   40   41 1    
    78   40   42 1    
    79   40   96 1    
    80   41   97 1    
    81   41   98 1    
    82   41   99 1    
    83   42   43 2    
    84   42   44 am   BACKBONE|DICT|INTERRES
    85   44   45 1    
    86   44  100 1    
    87   45   46 1    
    88   45   47 1    
    89   45  101 1    
    90   46  102 1    
    91   46  103 1    
    92   46  104 1    
    93   47   48 2    
    94   47   49 am   BACKBONE|DICT|INTERRES
    95   49   50 1    
    96   49  105 1    
    97   50   51 1    
    98   50   52 1    
    99   50  106 1    
   100   51  107 1    
   101   51  108 1    
   102   51  109 1    
   103   52   53 2    
   104   52   54 am   BACKBONE|DICT|INTERRES
   105   54   55 1    
   106   54  110 1    
   107   55   56 1    
   108   55   59 1    
   109   55  111 1    
   110   56   57 am   BACKBONE|DICT|INTERRES
   111   56   58 2    
   112   57  112 1    
   113   57  113 1    
   114   59   60 1    
   115   59  114 1    
   116   59  115 1    
   117   60   61 1    
   118   61  116 1    
   119   61  117 1    
@<TRIPOS>SUBSTRUCTURE
     1 UNK         1 GROUP             0       ****    0 ROOT    
