@<TRIPOS>MOLECULE
3R8
117   119    1
SMALL
USER_CHARGES


@<TRIPOS>ATOM
      1 CA         15.4296  -22.7396  -46.3305 C.3       0 UNK        -0.2013 
      2 C          16.2583  -23.9494  -45.9234 C.2       0 UNK         0.4866 
      3 O          15.7696  -24.7873  -45.1655 O.2       0 UNK        -0.5176 
      4 N          17.4944  -24.0389  -46.4376 N.am      1 UNK        -0.4884 
      5 CA         18.5210  -25.0554  -46.1619 C.3       1 UNK         0.0853 
      6 C6         18.0091  -26.5139  -46.3049 C.3       10 UNK        -0.0849 
      7 S7         19.3477  -27.7237  -46.5938 S.3       10 UNK        -0.2776 
      8 C8         18.3900  -29.2253  -46.9841 C.3       10 UNK         0.0316 
      9 C9         18.2467  -30.1661  -45.7921 C.ar      10 UNK        -0.0863 
     10 C10        18.7785  -31.4593  -45.8554 C.ar      10 UNK        -0.1009 
     11 C11        18.5983  -32.3563  -44.7981 C.ar      10 UNK        -0.0712 
     12 C12        17.8977  -31.9451  -43.6614 C.ar      10 UNK        -0.0894 
     13 C13        17.3722  -30.6536  -43.5770 C.ar      10 UNK        -0.0745 
     14 C14        17.5406  -29.7735  -44.6494 C.ar      10 UNK        -0.0972 
     15 C15        16.5831  -30.2327  -42.3451 C.3       10 UNK         0.0209 
     16 S16        17.6650  -29.7231  -40.9711 S.3       10 UNK        -0.2568 
     17 C17        18.1625  -28.0376  -41.4658 C.3       10 UNK        -0.0983 
     18 CA         19.6965  -27.8891  -41.6102 C.3       3 UNK         0.0876 
     19 N          20.0395  -26.7009  -42.3969 N.am      3 UNK        -0.4424 
     20 C          21.2713  -26.3191  -42.7595 C.2       2 UNK         0.4918 
     21 O          22.2928  -26.9590  -42.4987 O.2       2 UNK        -0.4875 
     22 CA         21.3708  -25.0111  -43.5685 C.3       2 UNK         0.0481 
     23 CB         22.8132  -24.6870  -43.9970 C.3       2 UNK        -0.1831 
     24 N          20.5292  -25.0638  -44.7651 N.am      2 UNK        -0.4498 
     25 C          19.2130  -24.8222  -44.8018 C.2       1 UNK         0.5027 
     26 O          18.5651  -24.4809  -43.8093 O.2       1 UNK        -0.4969 
     27 C          20.4033  -27.8461  -40.2401 C.2       3 UNK         0.5005 
     28 O          20.2986  -26.8369  -39.5380 O.2       3 UNK        -0.5279 
     29 N          21.1606  -28.9042  -39.9227 N.am      4 UNK        -0.4463 
     30 CA         22.0432  -29.0970  -38.7637 C.3       4 UNK         0.0283 
     31 CB         21.2807  -28.9718  -37.4307 C.3       4 UNK        -0.1875 
     32 C          23.3061  -28.2139  -38.7733 C.2       4 UNK         0.4949 
     33 O          24.3582  -28.6784  -38.3351 O.2       4 UNK        -0.5039 
     34 N          23.1949  -26.9756  -39.2718 N.am      5 UNK        -0.4663 
     35 CA         24.2786  -25.9966  -39.3873 C.3       5 UNK         0.0242 
     36 CB         23.6876  -24.6316  -39.7748 C.3       5 UNK        -0.1982 
     37 C          25.3816  -26.4131  -40.3755 C.2       5 UNK         0.5017 
     38 O          26.5565  -26.1664  -40.0999 O.2       5 UNK        -0.5012 
     39 N          24.9893  -27.0417  -41.4902 N.am      6 UNK        -0.4439 
     40 CA         25.8951  -27.6109  -42.4908 C.3       6 UNK         0.0297 
     41 CB         26.1594  -26.6019  -43.6201 C.3       6 UNK        -0.2006 
     42 C          25.3517  -28.9355  -43.0398 C.2       6 UNK         0.4892 
     43 O          26.1233  -29.8843  -43.1873 O.2       6 UNK        -0.5089 
     44 N          24.0378  -29.0035  -43.2981 N.am      7 UNK        -0.4243 
     45 CA         23.3241  -30.2322  -43.6371 C.3       7 UNK         0.0196 
     46 CB         22.0598  -29.8905  -44.4468 C.3       7 UNK        -0.2007 
     47 C          23.0094  -30.9849  -42.3374 C.2       7 UNK         0.5020 
     48 O          21.9197  -30.8346  -41.7812 O.2       7 UNK        -0.5147 
     49 N          23.9978  -31.7488  -41.8518 N.am      8 UNK        -0.4734 
     50 CA         23.9855  -32.4882  -40.5804 C.3       8 UNK         0.0238 
     51 CB         25.3569  -33.1526  -40.3782 C.3       8 UNK        -0.1912 
     52 C          22.8574  -33.5283  -40.4401 C.2       8 UNK         0.5038 
     53 O          22.5425  -33.9291  -39.3190 O.2       8 UNK        -0.5046 
     54 N          22.2650  -33.9250  -41.5712 N.am      9 UNK        -0.4200 
     55 CA         21.0200  -34.6948  -41.6698 C.3       9 UNK         0.0839 
     56 C          19.7540  -33.9659  -41.1275 C.2       9 UNK         0.5513 
     57 N          19.7771  -32.6545  -40.9186 N.am      9 UNK        -0.7519 
     58 O          18.7358  -34.6094  -40.8877 O.2       9 UNK        -0.4960 
     59 C59        20.8117  -35.2189  -43.1155 C.3       10 UNK        -0.0876 
     60 S60        20.8615  -33.9010  -44.3887 S.3       10 UNK        -0.2414 
     61 C61        19.1189  -33.7820  -44.9008 C.3       10 UNK         0.0169 
     62 H62        15.9682  -22.0844  -47.0149 H         1 UNK         0.0903 
     63 H63        14.5121  -23.0617  -46.8223 H         1 UNK         0.0903 
     64 H64        15.1577  -22.1587  -45.4495 H         1 UNK         0.0903 
     65 H65        17.8075  -23.2915  -47.0428 H         1 UNK         0.3096 
     66 H66        19.2715  -24.8921  -46.9378 H         1 UNK         0.1121 
     67 H67        17.4318  -26.8051  -45.4280 H         1 UNK         0.0849 
     68 H68        17.3231  -26.5745  -47.1513 H         1 UNK         0.0849 
     69 H69        17.3994  -28.9610  -47.3564 H         1 UNK         0.0865 
     70 H70        18.8898  -29.7352  -47.8092 H         1 UNK         0.0865 
     71 H71        19.3159  -31.7805  -46.7372 H         1 UNK         0.1346 
     72 H72        17.7480  -32.6362  -42.8439 H         1 UNK         0.1412 
     73 H73        17.1068  -28.7874  -44.5954 H         1 UNK         0.1426 
     74 H74        15.9692  -31.0696  -42.0092 H         1 UNK         0.0716 
     75 H75        15.8861  -29.4281  -42.5848 H         1 UNK         0.0716 
     76 H76        17.7625  -27.3236  -40.7432 H         1 UNK         0.0695 
     77 H77        17.6787  -27.7972  -42.4132 H         1 UNK         0.0695 
     78 H78        20.0660  -28.7513  -42.1674 H         1 UNK         0.0983 
     79 H79        19.2739  -26.0844  -42.6417 H         1 UNK         0.3095 
     80 H80        21.0290  -24.2029  -42.9185 H         1 UNK         0.0454 
     81 H81        23.1979  -25.4317  -44.6936 H         1 UNK         0.0851 
     82 H82        23.4878  -24.6560  -43.1407 H         1 UNK         0.0851 
     83 H83        22.8707  -23.7140  -44.4848 H         1 UNK         0.0851 
     84 H84        20.9766  -25.4052  -45.6045 H         1 UNK         0.2976 
     85 H85        21.2445  -29.6425  -40.6224 H         1 UNK         0.3116 
     86 H86        22.3871  -30.1289  -38.8399 H         1 UNK         0.0646 
     87 H87        20.9373  -27.9535  -37.2476 H         1 UNK         0.0847 
     88 H88        21.9205  -29.2501  -36.5923 H         1 UNK         0.0847 
     89 H89        20.4118  -29.6293  -37.4080 H         1 UNK         0.0847 
     90 H90        22.2672  -26.6791  -39.5591 H         1 UNK         0.3040 
     91 H91        24.7443  -25.9010  -38.4039 H         1 UNK         0.1015 
     92 H92        22.9923  -24.2723  -39.0158 H         1 UNK         0.0786 
     93 H93        23.1515  -24.6774  -40.7227 H         1 UNK         0.0786 
     94 H94        24.4714  -23.8797  -39.8771 H         1 UNK         0.0786 
     95 H95        23.9925  -27.1704  -41.6400 H         1 UNK         0.3172 
     96 H96        26.8503  -27.8422  -42.0141 H         1 UNK         0.0595 
     97 H97        25.2514  -26.3679  -44.1732 H         1 UNK         0.0839 
     98 H98        26.8805  -27.0006  -44.3348 H         1 UNK         0.0839 
     99 H99        26.5685  -25.6687  -43.2327 H         1 UNK         0.0839 
    100 H100       23.4511  -28.1907  -43.1272 H         1 UNK         0.2998 
    101 H101       23.9543  -30.8686  -44.2623 H         1 UNK         0.0822 
    102 H102       22.3143  -29.4441  -45.4080 H         1 UNK         0.0787 
    103 H103       21.4726  -30.7867  -44.6507 H         1 UNK         0.0787 
    104 H104       21.4096  -29.1924  -43.9238 H         1 UNK         0.0787 
    105 H105       24.8728  -31.7526  -42.3608 H         1 UNK         0.3055 
    106 H106       23.8409  -31.7583  -39.7821 H         1 UNK         0.1106 
    107 H107       25.3985  -33.6840  -39.4262 H         1 UNK         0.0828 
    108 H108       25.5746  -33.8760  -41.1649 H         1 UNK         0.0828 
    109 H109       26.1588  -32.4139  -40.3680 H         1 UNK         0.0828 
    110 H110       22.5887  -33.5208  -42.4372 H         1 UNK         0.2931 
    111 H111       21.1489  -35.5698  -41.0299 H         1 UNK         0.0412 
    112 H112       20.5895  -32.1067  -41.1814 H         1 UNK         0.3472 
    113 H113       18.9538  -32.1912  -40.5696 H         1 UNK         0.3472 
    114 H114       19.8914  -35.8005  -43.1906 H         1 UNK         0.0970 
    115 H115       21.6082  -35.9255  -43.3532 H         1 UNK         0.0970 
    116 H116       18.4917  -34.4429  -44.3016 H         1 UNK         0.0612 
    117 H117       19.0311  -34.1360  -45.9290 H         1 UNK         0.0612 
@<TRIPOS>BOND
     1    1    2 1    
     2    1   62 1    
     3    1   63 1    
     4    1   64 1    
     5    2    3 2    
     6    2    4 am   BACKBONE|DICT|INTERRES
     7    4    5 1    
     8    4   65 1    
     9    5    6 1    
    10    5   25 1    
    11    5   66 1    
    12    6    7 1    
    13    6   67 1    
    14    6   68 1    
    15    7    8 1    
    16    8    9 1    
    17    8   69 1    
    18    8   70 1    
    19    9   10 ar   
    20    9   14 ar   
    21   10   11 ar   
    22   10   71 1    
    23   11   12 ar   
    24   11   61 1    
    25   12   13 ar   
    26   12   72 1    
    27   13   14 ar   
    28   13   15 1    
    29   14   73 1    
    30   15   16 1    
    31   15   74 1    
    32   15   75 1    
    33   16   17 1    
    34   17   18 1    
    35   17   76 1    
    36   17   77 1    
    37   18   19 1    
    38   18   27 1    
    39   18   78 1    
    40   19   20 am   BACKBONE|DICT|INTERRES
    41   19   79 1    
    42   20   21 2    
    43   20   22 1    
    44   22   23 1    
    45   22   24 1    
    46   22   80 1    
    47   23   81 1    
    48   23   82 1    
    49   23   83 1    
    50   24   25 am   BACKBONE|DICT|INTERRES
    51   24   84 1    
    52   25   26 2    
    53   27   28 2    
    54   27   29 am   BACKBONE|DICT|INTERRES
    55   29   30 1    
    56   29   85 1    
    57   30   31 1    
    58   30   32 1    
    59   30   86 1    
    60   31   87 1    
    61   31   88 1    
    62   31   89 1    
    63   32   33 2    
    64   32   34 am   BACKBONE|DICT|INTERRES
    65   34   35 1    
    66   34   90 1    
    67   35   36 1    
    68   35   37 1    
    69   35   91 1    
    70   36   92 1    
    71   36   93 1    
    72   36   94 1    
    73   37   38 2    
    74   37   39 am   BACKBONE|DICT|INTERRES
    75   39   40 1    
    76   39   95 1    
    77   40   41 1    
    78   40   42 1    
    79   40   96 1    
    80   41   97 1    
    81   41   98 1    
    82   41   99 1    
    83   42   43 2    
    84   42   44 am   BACKBONE|DICT|INTERRES
    85   44   45 1    
    86   44  100 1    
    87   45   46 1    
    88   45   47 1    
    89   45  101 1    
    90   46  102 1    
    91   46  103 1    
    92   46  104 1    
    93   47   48 2    
    94   47   49 am   BACKBONE|DICT|INTERRES
    95   49   50 1    
    96   49  105 1    
    97   50   51 1    
    98   50   52 1    
    99   50  106 1    
   100   51  107 1    
   101   51  108 1    
   102   51  109 1    
   103   52   53 2    
   104   52   54 am   BACKBONE|DICT|INTERRES
   105   54   55 1    
   106   54  110 1    
   107   55   56 1    
   108   55   59 1    
   109   55  111 1    
   110   56   57 am   BACKBONE|DICT|INTERRES
   111   56   58 2    
   112   57  112 1    
   113   57  113 1    
   114   59   60 1    
   115   59  114 1    
   116   59  115 1    
   117   60   61 1    
   118   61  116 1    
   119   61  117 1    
@<TRIPOS>SUBSTRUCTURE
     1 UNK         1 GROUP             0       ****    0 ROOT    
