@<TRIPOS>MOLECULE
3R8
117   119    1
SMALL
USER_CHARGES


@<TRIPOS>ATOM
      1 CA         14.4715  -25.5333  -45.7293 C.3       0 UNK        -0.2013 
      2 C          15.8675  -26.0063  -45.3541 C.2       0 UNK         0.4866 
      3 O          16.5282  -26.6671  -46.1562 O.2       0 UNK        -0.5176 
      4 N          16.3325  -25.6619  -44.1468 N.am      1 UNK        -0.4884 
      5 CA         17.6332  -26.0458  -43.5789 C.3       1 UNK         0.0853 
      6 C6         17.6149  -25.9912  -42.0294 C.3       10 UNK        -0.0849 
      7 S7         16.3767  -27.1105  -41.2916 S.3       10 UNK        -0.2776 
      8 C8         17.4359  -28.3209  -40.4385 C.3       10 UNK         0.0316 
      9 C9         17.8807  -29.4484  -41.3597 C.ar      10 UNK        -0.0863 
     10 C10        17.1653  -30.6480  -41.3704 C.ar      10 UNK        -0.1009 
     11 C11        17.5912  -31.7237  -42.1519 C.ar      10 UNK        -0.0712 
     12 C12        18.7303  -31.5854  -42.9491 C.ar      10 UNK        -0.0894 
     13 C13        19.4619  -30.3935  -42.9476 C.ar      10 UNK        -0.0745 
     14 C14        19.0266  -29.3246  -42.1540 C.ar      10 UNK        -0.0972 
     15 C15        20.7563  -30.3081  -43.7503 C.3       10 UNK         0.0209 
     16 S16        20.8482  -28.8358  -44.8178 S.3       10 UNK        -0.2568 
     17 C17        22.2311  -27.9369  -44.0381 C.3       10 UNK        -0.0983 
     18 CA         22.7542  -26.7687  -44.9132 C.3       3 UNK         0.0876 
     19 N          21.7176  -25.7662  -45.1312 N.am      3 UNK        -0.4424 
     20 C          21.2017  -25.4163  -46.3125 C.2       2 UNK         0.4918 
     21 O          21.6261  -25.8219  -47.3962 O.2       2 UNK        -0.4875 
     22 CA         19.9645  -24.4982  -46.2558 C.3       2 UNK         0.0481 
     23 CB         19.4392  -24.1180  -47.6522 C.3       2 UNK        -0.1831 
     24 N          18.8832  -25.1383  -45.5009 N.am      2 UNK        -0.4498 
     25 C          18.7932  -25.2075  -44.1667 C.2       1 UNK         0.5027 
     26 O          19.5970  -24.6474  -43.4176 O.2       1 UNK        -0.4969 
     27 C          23.9371  -26.0842  -44.2159 C.2       3 UNK         0.5005 
     28 O          23.7318  -25.4132  -43.2016 O.2       3 UNK        -0.5279 
     29 N          25.1598  -26.3123  -44.7174 N.am      4 UNK        -0.4463 
     30 CA         26.4079  -25.8190  -44.1163 C.3       4 UNK         0.0283 
     31 CB         27.5770  -26.0725  -45.0815 C.3       4 UNK        -0.1875 
     32 C          26.7055  -26.4375  -42.7367 C.2       4 UNK         0.4949 
     33 O          27.3490  -25.7962  -41.9068 O.2       4 UNK        -0.5039 
     34 N          26.2023  -27.6584  -42.5108 N.am      5 UNK        -0.4663 
     35 CA         26.2578  -28.3797  -41.2374 C.3       5 UNK         0.0242 
     36 CB         26.1452  -29.8857  -41.5315 C.3       5 UNK        -0.1982 
     37 C          25.1677  -27.9466  -40.2361 C.2       5 UNK         0.5017 
     38 O          25.1342  -28.4880  -39.1311 O.2       5 UNK        -0.5012 
     39 N          24.2744  -27.0274  -40.6366 N.am      6 UNK        -0.4439 
     40 CA         23.0919  -26.5172  -39.9278 C.3       6 UNK         0.0297 
     41 CB         23.4488  -25.8907  -38.5655 C.3       6 UNK        -0.2006 
     42 C          21.9499  -27.5405  -39.7985 C.2       6 UNK         0.4892 
     43 O          20.8102  -27.1939  -40.1031 O.2       6 UNK        -0.5089 
     44 N          22.2644  -28.7716  -39.3830 N.am      7 UNK        -0.4243 
     45 CA         21.3503  -29.9065  -39.3116 C.3       7 UNK         0.0196 
     46 CB         20.6853  -29.9727  -37.9264 C.3       7 UNK        -0.2007 
     47 C          22.1490  -31.1745  -39.6231 C.2       7 UNK         0.5020 
     48 O          23.1517  -31.4312  -38.9545 O.2       7 UNK        -0.5147 
     49 N          21.7066  -31.9342  -40.6306 N.am      8 UNK        -0.4734 
     50 CA         22.3643  -33.1451  -41.1230 C.3       8 UNK         0.0238 
     51 CB         23.7004  -32.8004  -41.8192 C.3       8 UNK        -0.1912 
     52 C          21.3998  -33.8783  -42.0628 C.2       8 UNK         0.5038 
     53 O          21.5517  -33.7924  -43.2826 O.2       8 UNK        -0.5046 
     54 N          20.3926  -34.5440  -41.4848 N.am      9 UNK        -0.4200 
     55 CA         19.3724  -35.3032  -42.2320 C.3       9 UNK         0.0839 
     56 C          19.8700  -36.6493  -42.8367 C.2       9 UNK         0.5513 
     57 N          21.0457  -37.1502  -42.4765 N.am      9 UNK        -0.7519 
     58 O          19.1740  -37.2482  -43.6525 O.2       9 UNK        -0.4960 
     59 C59        18.0699  -35.5202  -41.4151 C.3       10 UNK        -0.0876 
     60 S60        17.3915  -34.0101  -40.6466 S.3       10 UNK        -0.2414 
     61 C61        16.8408  -33.0444  -42.0894 C.3       10 UNK         0.0169 
     62 H62        14.5154  -24.9001  -46.6150 H         1 UNK         0.0903 
     63 H63        13.8340  -26.3883  -45.9526 H         1 UNK         0.0903 
     64 H64        14.0044  -24.9628  -44.9267 H         1 UNK         0.0903 
     65 H65        15.7479  -25.1082  -43.5365 H         1 UNK         0.3096 
     66 H66        17.8368  -27.0809  -43.8653 H         1 UNK         0.1121 
     67 H67        18.5992  -26.2356  -41.6256 H         1 UNK         0.0849 
     68 H68        17.4008  -24.9769  -41.6874 H         1 UNK         0.0849 
     69 H69        18.2984  -27.8281  -39.9901 H         1 UNK         0.0865 
     70 H70        16.8732  -28.7334  -39.5996 H         1 UNK         0.0865 
     71 H71        16.2898  -30.7582  -40.7448 H         1 UNK         0.1346 
     72 H72        19.0665  -32.4193  -43.5489 H         1 UNK         0.1412 
     73 H73        19.5981  -28.4072  -42.1314 H         1 UNK         0.1426 
     74 H74        20.8713  -31.1876  -44.3860 H         1 UNK         0.0716 
     75 H75        21.5974  -30.3287  -43.0569 H         1 UNK         0.0716 
     76 H76        21.8955  -27.5770  -43.0629 H         1 UNK         0.0695 
     77 H77        23.0365  -28.6488  -43.8463 H         1 UNK         0.0695 
     78 H78        23.0964  -27.1747  -45.8678 H         1 UNK         0.0983 
     79 H79        21.3228  -25.3512  -44.2937 H         1 UNK         0.3095 
     80 H80        20.2598  -23.5773  -45.7486 H         1 UNK         0.0454 
     81 H81        20.2115  -23.6173  -48.2375 H         1 UNK         0.0851 
     82 H82        19.1181  -24.9948  -48.2160 H         1 UNK         0.0851 
     83 H83        18.5923  -23.4351  -47.5845 H         1 UNK         0.0851 
     84 H84        18.1904  -25.6566  -46.0345 H         1 UNK         0.2976 
     85 H85        25.2518  -26.8704  -45.5552 H         1 UNK         0.3116 
     86 H86        26.3090  -24.7403  -43.9763 H         1 UNK         0.0646 
     87 H87        28.5121  -25.6908  -44.6691 H         1 UNK         0.0847 
     88 H88        27.4202  -25.5719  -46.0371 H         1 UNK         0.0847 
     89 H89        27.7189  -27.1362  -45.2770 H         1 UNK         0.0847 
     90 H90        25.7094  -28.1128  -43.2654 H         1 UNK         0.3040 
     91 H91        27.2236  -28.1913  -40.7629 H         1 UNK         0.1015 
     92 H92        26.9439  -30.2229  -42.1925 H         1 UNK         0.0786 
     93 H93        25.1924  -30.1324  -42.0008 H         1 UNK         0.0786 
     94 H94        26.2182  -30.4734  -40.6150 H         1 UNK         0.0786 
     95 H95        24.3913  -26.6404  -41.5665 H         1 UNK         0.3172 
     96 H96        22.7123  -25.7115  -40.5587 H         1 UNK         0.0595 
     97 H97        24.2228  -25.1304  -38.6695 H         1 UNK         0.0839 
     98 H98        23.8003  -26.6329  -37.8485 H         1 UNK         0.0839 
     99 H99        22.5766  -25.4072  -38.1238 H         1 UNK         0.0839 
    100 H100       23.2377  -28.9729  -39.1639 H         1 UNK         0.2998 
    101 H101       20.5702  -29.7917  -40.0620 H         1 UNK         0.0822 
    102 H102       20.0954  -29.0774  -37.7289 H         1 UNK         0.0787 
    103 H103       20.0113  -30.8276  -37.8589 H         1 UNK         0.0787 
    104 H104       21.4234  -30.0710  -37.1294 H         1 UNK         0.0787 
    105 H105       20.8521  -31.6765  -41.1085 H         1 UNK         0.3055 
    106 H106       22.5758  -33.8052  -40.2787 H         1 UNK         0.1106 
    107 H107       23.5646  -32.0657  -42.6136 H         1 UNK         0.0828 
    108 H108       24.4301  -32.4030  -41.1145 H         1 UNK         0.0828 
    109 H109       24.1469  -33.6882  -42.2690 H         1 UNK         0.0828 
    110 H110       20.3065  -34.5489  -40.4789 H         1 UNK         0.2931 
    111 H111       19.0999  -34.6967  -43.0964 H         1 UNK         0.0412 
    112 H112       21.6245  -36.6711  -41.8059 H         1 UNK         0.3472 
    113 H113       21.3553  -38.0211  -42.8793 H         1 UNK         0.3472 
    114 H114       18.2470  -36.2418  -40.6154 H         1 UNK         0.0970 
    115 H115       17.2927  -35.9588  -42.0443 H         1 UNK         0.0970 
    116 H116       15.7693  -32.8586  -42.0025 H         1 UNK         0.0612 
    117 H117       16.9770  -33.6089  -43.0126 H         1 UNK         0.0612 
@<TRIPOS>BOND
     1    1    2 1    
     2    1   62 1    
     3    1   63 1    
     4    1   64 1    
     5    2    3 2    
     6    2    4 am   BACKBONE|DICT|INTERRES
     7    4    5 1    
     8    4   65 1    
     9    5    6 1    
    10    5   25 1    
    11    5   66 1    
    12    6    7 1    
    13    6   67 1    
    14    6   68 1    
    15    7    8 1    
    16    8    9 1    
    17    8   69 1    
    18    8   70 1    
    19    9   10 ar   
    20    9   14 ar   
    21   10   11 ar   
    22   10   71 1    
    23   11   12 ar   
    24   11   61 1    
    25   12   13 ar   
    26   12   72 1    
    27   13   14 ar   
    28   13   15 1    
    29   14   73 1    
    30   15   16 1    
    31   15   74 1    
    32   15   75 1    
    33   16   17 1    
    34   17   18 1    
    35   17   76 1    
    36   17   77 1    
    37   18   19 1    
    38   18   27 1    
    39   18   78 1    
    40   19   20 am   BACKBONE|DICT|INTERRES
    41   19   79 1    
    42   20   21 2    
    43   20   22 1    
    44   22   23 1    
    45   22   24 1    
    46   22   80 1    
    47   23   81 1    
    48   23   82 1    
    49   23   83 1    
    50   24   25 am   BACKBONE|DICT|INTERRES
    51   24   84 1    
    52   25   26 2    
    53   27   28 2    
    54   27   29 am   BACKBONE|DICT|INTERRES
    55   29   30 1    
    56   29   85 1    
    57   30   31 1    
    58   30   32 1    
    59   30   86 1    
    60   31   87 1    
    61   31   88 1    
    62   31   89 1    
    63   32   33 2    
    64   32   34 am   BACKBONE|DICT|INTERRES
    65   34   35 1    
    66   34   90 1    
    67   35   36 1    
    68   35   37 1    
    69   35   91 1    
    70   36   92 1    
    71   36   93 1    
    72   36   94 1    
    73   37   38 2    
    74   37   39 am   BACKBONE|DICT|INTERRES
    75   39   40 1    
    76   39   95 1    
    77   40   41 1    
    78   40   42 1    
    79   40   96 1    
    80   41   97 1    
    81   41   98 1    
    82   41   99 1    
    83   42   43 2    
    84   42   44 am   BACKBONE|DICT|INTERRES
    85   44   45 1    
    86   44  100 1    
    87   45   46 1    
    88   45   47 1    
    89   45  101 1    
    90   46  102 1    
    91   46  103 1    
    92   46  104 1    
    93   47   48 2    
    94   47   49 am   BACKBONE|DICT|INTERRES
    95   49   50 1    
    96   49  105 1    
    97   50   51 1    
    98   50   52 1    
    99   50  106 1    
   100   51  107 1    
   101   51  108 1    
   102   51  109 1    
   103   52   53 2    
   104   52   54 am   BACKBONE|DICT|INTERRES
   105   54   55 1    
   106   54  110 1    
   107   55   56 1    
   108   55   59 1    
   109   55  111 1    
   110   56   57 am   BACKBONE|DICT|INTERRES
   111   56   58 2    
   112   57  112 1    
   113   57  113 1    
   114   59   60 1    
   115   59  114 1    
   116   59  115 1    
   117   60   61 1    
   118   61  116 1    
   119   61  117 1    
@<TRIPOS>SUBSTRUCTURE
     1 UNK         1 GROUP             0       ****    0 ROOT    
