@<TRIPOS>MOLECULE
3R8
117   119    1
SMALL
USER_CHARGES


@<TRIPOS>ATOM
      1 CA         14.9559  -22.4577  -44.8989 C.3       0 UNK        -0.2013 
      2 C          16.1037  -23.4537  -44.8384 C.2       0 UNK         0.4866 
      3 O          16.8582  -23.5815  -45.8036 O.2       0 UNK        -0.5176 
      4 N          16.2549  -24.1552  -43.7079 N.am      1 UNK        -0.4884 
      5 CA         17.2819  -25.1776  -43.4622 C.3       1 UNK         0.0853 
      6 C6         16.8291  -26.1943  -42.3838 C.3       10 UNK        -0.0849 
      7 S7         15.3585  -27.1289  -42.9264 S.3       10 UNK        -0.2776 
      8 C8         15.8340  -28.8480  -42.5311 C.3       10 UNK         0.0316 
      9 C9         17.0112  -29.4239  -43.3232 C.ar      10 UNK        -0.0863 
     10 C10        17.6765  -30.5353  -42.7965 C.ar      10 UNK        -0.1009 
     11 C11        18.7376  -31.1388  -43.4820 C.ar      10 UNK        -0.0712 
     12 C12        19.1359  -30.6071  -44.7129 C.ar      10 UNK        -0.0894 
     13 C13        18.4730  -29.5073  -45.2673 C.ar      10 UNK        -0.0745 
     14 C14        17.4105  -28.9230  -44.5699 C.ar      10 UNK        -0.0972 
     15 C15        18.8568  -28.9978  -46.6527 C.3       10 UNK         0.0209 
     16 S16        19.5759  -27.3246  -46.6278 S.3       10 UNK        -0.2568 
     17 C17        21.1819  -27.6327  -45.8192 C.3       10 UNK        -0.0983 
     18 CA         22.0165  -26.3435  -45.5814 C.3       3 UNK         0.0876 
     19 N          21.2000  -25.2853  -44.9857 N.am      3 UNK        -0.4424 
     20 C          21.5747  -24.0402  -44.6647 C.2       2 UNK         0.4918 
     21 O          22.7092  -23.5968  -44.8485 O.2       2 UNK        -0.4875 
     22 CA         20.4876  -23.1176  -44.0725 C.3       2 UNK         0.0481 
     23 CB         20.4148  -21.7857  -44.8392 C.3       2 UNK        -0.1831 
     24 N          19.1572  -23.7348  -44.0845 N.am      2 UNK        -0.4498 
     25 C          18.6503  -24.5367  -43.1400 C.2       1 UNK         0.5027 
     26 O          19.2205  -24.7785  -42.0757 O.2       1 UNK        -0.4969 
     27 C          23.2327  -26.6836  -44.6990 C.2       3 UNK         0.5005 
     28 O          23.1016  -26.7077  -43.4735 O.2       3 UNK        -0.5279 
     29 N          24.3678  -27.0304  -45.3225 N.am      4 UNK        -0.4463 
     30 CA         25.5782  -27.4897  -44.6253 C.3       4 UNK         0.0283 
     31 CB         26.7203  -27.6673  -45.6385 C.3       4 UNK        -0.1875 
     32 C          25.3641  -28.7871  -43.8212 C.2       4 UNK         0.4949 
     33 O          26.0047  -28.9776  -42.7877 O.2       4 UNK        -0.5039 
     34 N          24.4442  -29.6373  -44.2973 N.am      5 UNK        -0.4663 
     35 CA         24.0275  -30.8720  -43.6355 C.3       5 UNK         0.0242 
     36 CB         23.3334  -31.7815  -44.6623 C.3       5 UNK        -0.1982 
     37 C          23.1034  -30.6472  -42.4274 C.2       5 UNK         0.5017 
     38 O          23.0482  -31.5269  -41.5696 O.2       5 UNK        -0.5012 
     39 N          22.4003  -29.5032  -42.3587 N.am      6 UNK        -0.4439 
     40 CA         21.3402  -29.2272  -41.3739 C.3       6 UNK         0.0297 
     41 CB         20.5696  -27.9537  -41.7597 C.3       6 UNK        -0.2006 
     42 C          21.8027  -29.1669  -39.9058 C.2       6 UNK         0.4892 
     43 O          20.9602  -29.1869  -39.0078 O.2       6 UNK        -0.5089 
     44 N          23.1220  -29.1194  -39.6812 N.am      7 UNK        -0.4243 
     45 CA         23.7578  -29.2183  -38.3688 C.3       7 UNK         0.0196 
     46 CB         25.2392  -28.8306  -38.5078 C.3       7 UNK        -0.2007 
     47 C          23.6263  -30.6075  -37.7119 C.2       7 UNK         0.5020 
     48 O          23.7888  -30.6938  -36.4939 O.2       7 UNK        -0.5147 
     49 N          23.3564  -31.6636  -38.4958 N.am      8 UNK        -0.4734 
     50 CA         23.2435  -33.0379  -37.9904 C.3       8 UNK         0.0238 
     51 CB         24.6397  -33.6824  -37.9046 C.3       8 UNK        -0.1912 
     52 C          22.2913  -33.9264  -38.8049 C.2       8 UNK         0.5038 
     53 O          21.6363  -34.7855  -38.2122 O.2       8 UNK        -0.5046 
     54 N          22.2354  -33.7266  -40.1280 N.am      9 UNK        -0.4200 
     55 CA         21.4893  -34.5347  -41.1063 C.3       9 UNK         0.0839 
     56 C          21.9561  -36.0237  -41.1608 C.2       9 UNK         0.5513 
     57 N          21.1512  -36.9352  -41.6923 N.am      9 UNK        -0.7519 
     58 O          23.0755  -36.3599  -40.7782 O.2       9 UNK        -0.4960 
     59 C59        19.9472  -34.3474  -40.9959 C.3       10 UNK        -0.0876 
     60 S60        19.4262  -32.6053  -41.1517 S.3       10 UNK        -0.2414 
     61 C61        19.4118  -32.4128  -42.9689 C.3       10 UNK         0.0169 
     62 H62        14.2873  -22.7067  -45.7225 H         1 UNK         0.0903 
     63 H63        14.3723  -22.4512  -43.9785 H         1 UNK         0.0903 
     64 H64        15.3407  -21.4517  -45.0643 H         1 UNK         0.0903 
     65 H65        15.6130  -23.9994  -42.9432 H         1 UNK         0.3096 
     66 H66        17.4298  -25.7388  -44.3882 H         1 UNK         0.1121 
     67 H67        17.6323  -26.9002  -42.1644 H         1 UNK         0.0849 
     68 H68        16.6021  -25.6903  -41.4426 H         1 UNK         0.0849 
     69 H69        16.0491  -28.9018  -41.4625 H         1 UNK         0.0865 
     70 H70        14.9669  -29.4877  -42.6999 H         1 UNK         0.0865 
     71 H71        17.3419  -30.9476  -41.8550 H         1 UNK         0.1346 
     72 H72        19.9393  -31.0780  -45.2620 H         1 UNK         0.1412 
     73 H73        16.8870  -28.0905  -45.0175 H         1 UNK         0.1426 
     74 H74        19.5565  -29.6786  -47.1400 H         1 UNK         0.0716 
     75 H75        17.9645  -28.9822  -47.2801 H         1 UNK         0.0716 
     76 H76        20.9817  -28.1443  -44.8768 H         1 UNK         0.0695 
     77 H77        21.7432  -28.3383  -46.4345 H         1 UNK         0.0695 
     78 H78        22.3740  -25.9683  -46.5424 H         1 UNK         0.0983 
     79 H79        20.2420  -25.5411  -44.8086 H         1 UNK         0.3095 
     80 H80        20.7733  -22.9002  -43.0415 H         1 UNK         0.0454 
     81 H81        20.1618  -21.9383  -45.8891 H         1 UNK         0.0851 
     82 H82        19.6672  -21.1201  -44.4075 H         1 UNK         0.0851 
     83 H83        21.3696  -21.2593  -44.8065 H         1 UNK         0.0851 
     84 H84        18.5844  -23.5776  -44.9105 H         1 UNK         0.2976 
     85 H85        24.4087  -26.9962  -46.3318 H         1 UNK         0.3116 
     86 H86        25.8683  -26.7109  -43.9166 H         1 UNK         0.0646 
     87 H87        27.6369  -27.9857  -45.1397 H         1 UNK         0.0847 
     88 H88        26.9440  -26.7333  -46.1543 H         1 UNK         0.0847 
     89 H89        26.4820  -28.4199  -46.3911 H         1 UNK         0.0847 
     90 H90        23.9857  -29.4064  -45.1662 H         1 UNK         0.3040 
     91 H91        24.9191  -31.3867  -43.2696 H         1 UNK         0.1015 
     92 H92        24.0001  -32.0277  -45.4890 H         1 UNK         0.0786 
     93 H93        22.4399  -31.3145  -45.0780 H         1 UNK         0.0786 
     94 H94        23.0265  -32.7238  -44.2057 H         1 UNK         0.0786 
     95 H95        22.5922  -28.7685  -43.0287 H         1 UNK         0.3172 
     96 H96        20.6345  -30.0542  -41.4340 H         1 UNK         0.0595 
     97 H97        19.7561  -27.7645  -41.0582 H         1 UNK         0.0839 
     98 H98        20.1161  -28.0426  -42.7459 H         1 UNK         0.0839 
     99 H99        21.2079  -27.0704  -41.7518 H         1 UNK         0.0839 
    100 H100       23.7343  -29.1022  -40.4842 H         1 UNK         0.2998 
    101 H101       23.2743  -28.4980  -37.7053 H         1 UNK         0.0822 
    102 H102       25.3504  -27.8175  -38.8950 H         1 UNK         0.0787 
    103 H103       25.7447  -28.8638  -37.5415 H         1 UNK         0.0787 
    104 H104       25.7716  -29.5070  -39.1781 H         1 UNK         0.0787 
    105 H105       23.2047  -31.5124  -39.4872 H         1 UNK         0.3055 
    106 H106       22.8235  -33.0047  -36.9820 H         1 UNK         0.1106 
    107 H107       24.5753  -34.7108  -37.5458 H         1 UNK         0.0828 
    108 H108       25.1307  -33.7064  -38.8781 H         1 UNK         0.0828 
    109 H109       25.2874  -33.1411  -37.2149 H         1 UNK         0.0828 
    110 H110       22.7754  -32.9763  -40.5487 H         1 UNK         0.2931 
    111 H111       21.7906  -34.1325  -42.0739 H         1 UNK         0.0412 
    112 H112       21.4680  -37.8912  -41.7445 H         1 UNK         0.3472 
    113 H113       20.2384  -36.6937  -42.0433 H         1 UNK         0.3472 
    114 H114       19.5883  -34.7285  -40.0386 H         1 UNK         0.0970 
    115 H115       19.4214  -34.9198  -41.7605 H         1 UNK         0.0970 
    116 H116       20.4442  -32.4507  -43.3193 H         1 UNK         0.0612 
    117 H117       18.8967  -33.2647  -43.4142 H         1 UNK         0.0612 
@<TRIPOS>BOND
     1    1    2 1    
     2    1   62 1    
     3    1   63 1    
     4    1   64 1    
     5    2    3 2    
     6    2    4 am   BACKBONE|DICT|INTERRES
     7    4    5 1    
     8    4   65 1    
     9    5    6 1    
    10    5   25 1    
    11    5   66 1    
    12    6    7 1    
    13    6   67 1    
    14    6   68 1    
    15    7    8 1    
    16    8    9 1    
    17    8   69 1    
    18    8   70 1    
    19    9   10 ar   
    20    9   14 ar   
    21   10   11 ar   
    22   10   71 1    
    23   11   12 ar   
    24   11   61 1    
    25   12   13 ar   
    26   12   72 1    
    27   13   14 ar   
    28   13   15 1    
    29   14   73 1    
    30   15   16 1    
    31   15   74 1    
    32   15   75 1    
    33   16   17 1    
    34   17   18 1    
    35   17   76 1    
    36   17   77 1    
    37   18   19 1    
    38   18   27 1    
    39   18   78 1    
    40   19   20 am   BACKBONE|DICT|INTERRES
    41   19   79 1    
    42   20   21 2    
    43   20   22 1    
    44   22   23 1    
    45   22   24 1    
    46   22   80 1    
    47   23   81 1    
    48   23   82 1    
    49   23   83 1    
    50   24   25 am   BACKBONE|DICT|INTERRES
    51   24   84 1    
    52   25   26 2    
    53   27   28 2    
    54   27   29 am   BACKBONE|DICT|INTERRES
    55   29   30 1    
    56   29   85 1    
    57   30   31 1    
    58   30   32 1    
    59   30   86 1    
    60   31   87 1    
    61   31   88 1    
    62   31   89 1    
    63   32   33 2    
    64   32   34 am   BACKBONE|DICT|INTERRES
    65   34   35 1    
    66   34   90 1    
    67   35   36 1    
    68   35   37 1    
    69   35   91 1    
    70   36   92 1    
    71   36   93 1    
    72   36   94 1    
    73   37   38 2    
    74   37   39 am   BACKBONE|DICT|INTERRES
    75   39   40 1    
    76   39   95 1    
    77   40   41 1    
    78   40   42 1    
    79   40   96 1    
    80   41   97 1    
    81   41   98 1    
    82   41   99 1    
    83   42   43 2    
    84   42   44 am   BACKBONE|DICT|INTERRES
    85   44   45 1    
    86   44  100 1    
    87   45   46 1    
    88   45   47 1    
    89   45  101 1    
    90   46  102 1    
    91   46  103 1    
    92   46  104 1    
    93   47   48 2    
    94   47   49 am   BACKBONE|DICT|INTERRES
    95   49   50 1    
    96   49  105 1    
    97   50   51 1    
    98   50   52 1    
    99   50  106 1    
   100   51  107 1    
   101   51  108 1    
   102   51  109 1    
   103   52   53 2    
   104   52   54 am   BACKBONE|DICT|INTERRES
   105   54   55 1    
   106   54  110 1    
   107   55   56 1    
   108   55   59 1    
   109   55  111 1    
   110   56   57 am   BACKBONE|DICT|INTERRES
   111   56   58 2    
   112   57  112 1    
   113   57  113 1    
   114   59   60 1    
   115   59  114 1    
   116   59  115 1    
   117   60   61 1    
   118   61  116 1    
   119   61  117 1    
@<TRIPOS>SUBSTRUCTURE
     1 UNK         1 GROUP             0       ****    0 ROOT    
