@<TRIPOS>MOLECULE
3R8
117   119    1
SMALL
USER_CHARGES


@<TRIPOS>ATOM
      1 CA         15.3290  -23.8795  -40.5436 C.3       0 UNK        -0.2013 
      2 C          15.8554  -24.0234  -41.9638 C.2       0 UNK         0.4866 
      3 O          15.6943  -23.1086  -42.7726 O.2       0 UNK        -0.5176 
      4 N          16.4744  -25.1682  -42.2764 N.am      1 UNK        -0.4884 
      5 CA         17.0859  -25.4620  -43.5763 C.3       1 UNK         0.0853 
      6 C6         17.4432  -26.9626  -43.7151 C.3       10 UNK        -0.0849 
      7 S7         15.9845  -28.0567  -43.6456 S.3       10 UNK        -0.2776 
      8 C8         16.3126  -29.2046  -45.0246 C.3       10 UNK         0.0316 
      9 C9         17.5288  -30.0817  -44.7547 C.ar      10 UNK        -0.0863 
     10 C10        17.4112  -31.2180  -43.9487 C.ar      10 UNK        -0.1009 
     11 C11        18.5247  -32.0229  -43.6893 C.ar      10 UNK        -0.0712 
     12 C12        19.7671  -31.6767  -44.2311 C.ar      10 UNK        -0.0894 
     13 C13        19.8956  -30.5491  -45.0481 C.ar      10 UNK        -0.0745 
     14 C14        18.7697  -29.7642  -45.3161 C.ar      10 UNK        -0.0972 
     15 C15        21.2430  -30.1928  -45.6648 C.3       10 UNK         0.0209 
     16 S16        22.3905  -29.4286  -44.4718 S.3       10 UNK        -0.2568 
     17 C17        21.5714  -27.8410  -44.1058 C.3       10 UNK        -0.0983 
     18 CA         22.0586  -26.6706  -44.9932 C.3       3 UNK         0.0876 
     19 N          21.1440  -25.5395  -44.8756 N.am      3 UNK        -0.4424 
     20 C          20.9162  -24.6209  -45.8192 C.2       2 UNK         0.4918 
     21 O          21.4740  -24.6208  -46.9178 O.2       2 UNK        -0.4875 
     22 CA         19.8450  -23.5600  -45.4862 C.3       2 UNK         0.0481 
     23 CB         19.5367  -22.6343  -46.6776 C.3       2 UNK        -0.1831 
     24 N          18.5998  -24.1960  -45.0387 N.am      2 UNK        -0.4498 
     25 C          18.3588  -24.6191  -43.7902 C.2       1 UNK         0.5027 
     26 O          19.1442  -24.4482  -42.8543 O.2       1 UNK        -0.4969 
     27 C          23.4796  -26.2228  -44.6093 C.2       3 UNK         0.5005 
     28 O          23.6463  -25.5281  -43.6034 O.2       3 UNK        -0.5279 
     29 N          24.4855  -26.6794  -45.3686 N.am      4 UNK        -0.4463 
     30 CA         25.9087  -26.4430  -45.0931 C.3       4 UNK         0.0283 
     31 CB         26.7467  -26.9262  -46.2875 C.3       4 UNK        -0.1875 
     32 C          26.3976  -27.1061  -43.7912 C.2       4 UNK         0.4949 
     33 O          27.3352  -26.6052  -43.1713 O.2       4 UNK        -0.5039 
     34 N          25.7369  -28.2003  -43.3907 N.am      5 UNK        -0.4663 
     35 CA         25.9708  -28.9194  -42.1370 C.3       5 UNK         0.0242 
     36 CB         25.7809  -30.4248  -42.3986 C.3       5 UNK        -0.1982 
     37 C          25.0453  -28.4438  -40.9999 C.2       5 UNK         0.5017 
     38 O          25.0139  -29.0938  -39.9541 O.2       5 UNK        -0.5012 
     39 N          24.2694  -27.3690  -41.2234 N.am      6 UNK        -0.4439 
     40 CA         23.2145  -26.7924  -40.3719 C.3       6 UNK         0.0297 
     41 CB         23.7505  -26.3649  -38.9916 C.3       6 UNK        -0.2006 
     42 C          21.9635  -27.6822  -40.2408 C.2       6 UNK         0.4892 
     43 O          20.8489  -27.1763  -40.3694 O.2       6 UNK        -0.5089 
     44 N          22.1701  -28.9841  -40.0335 N.am      7 UNK        -0.4243 
     45 CA         21.1681  -30.0386  -40.0643 C.3       7 UNK         0.0196 
     46 CB         20.3325  -30.0478  -38.7657 C.3       7 UNK        -0.2007 
     47 C          21.9111  -31.3496  -40.3381 C.2       7 UNK         0.5020 
     48 O          22.1030  -31.6996  -41.5012 O.2       7 UNK        -0.5147 
     49 N          22.3355  -32.0332  -39.2627 N.am      8 UNK        -0.4734 
     50 CA         23.0318  -33.3310  -39.2566 C.3       8 UNK         0.0238 
     51 CB         24.4380  -33.2006  -39.8816 C.3       8 UNK        -0.1912 
     52 C          22.1945  -34.4620  -39.8917 C.2       8 UNK         0.5038 
     53 O          22.7444  -35.3505  -40.5455 O.2       8 UNK        -0.5046 
     54 N          20.8721  -34.3884  -39.6953 N.am      9 UNK        -0.4200 
     55 CA         19.8651  -35.2613  -40.3171 C.3       9 UNK         0.0839 
     56 C          19.7708  -36.6927  -39.7140 C.2       9 UNK         0.5513 
     57 N          20.4299  -36.9940  -38.6016 N.am      9 UNK        -0.7519 
     58 O          19.0877  -37.5479  -40.2712 O.2       9 UNK        -0.4960 
     59 C59        18.4688  -34.5811  -40.3620 C.3       10 UNK        -0.0876 
     60 S60        18.5039  -32.8968  -41.0695 S.3       10 UNK        -0.2414 
     61 C61        18.3796  -33.2763  -42.8409 C.3       10 UNK         0.0169 
     62 H62        14.2518  -23.7158  -40.5572 H         1 UNK         0.0903 
     63 H63        15.5295  -24.7661  -39.9423 H         1 UNK         0.0903 
     64 H64        15.7977  -23.0256  -40.0549 H         1 UNK         0.0903 
     65 H65        16.5872  -25.8839  -41.5727 H         1 UNK         0.3096 
     66 H66        16.3638  -25.2003  -44.3534 H         1 UNK         0.1121 
     67 H67        18.1413  -27.2731  -42.9342 H         1 UNK         0.0849 
     68 H68        17.9579  -27.1291  -44.6621 H         1 UNK         0.0849 
     69 H69        16.4382  -28.6405  -45.9502 H         1 UNK         0.0865 
     70 H70        15.4352  -29.8356  -45.1740 H         1 UNK         0.0865 
     71 H71        16.4523  -31.4748  -43.5190 H         1 UNK         0.1346 
     72 H72        20.6361  -32.2854  -44.0189 H         1 UNK         0.1412 
     73 H73        18.8642  -28.8979  -45.9562 H         1 UNK         0.1426 
     74 H74        21.1135  -29.5233  -46.5165 H         1 UNK         0.0716 
     75 H75        21.7053  -31.0983  -46.0603 H         1 UNK         0.0716 
     76 H76        21.7232  -27.6136  -43.0514 H         1 UNK         0.0695 
     77 H77        20.4953  -27.9687  -44.2130 H         1 UNK         0.0695 
     78 H78        22.0579  -27.0025  -46.0342 H         1 UNK         0.0983 
     79 H79        20.6944  -25.4130  -43.9767 H         1 UNK         0.3095 
     80 H80        20.2436  -22.9388  -44.6814 H         1 UNK         0.0454 
     81 H81        19.1506  -23.1893  -47.5335 H         1 UNK         0.0851 
     82 H82        20.4343  -22.1095  -47.0074 H         1 UNK         0.0851 
     83 H83        18.8014  -21.8752  -46.4102 H         1 UNK         0.0851 
     84 H84        17.9267  -24.4067  -45.7625 H         1 UNK         0.2976 
     85 H85        24.2702  -27.2550  -46.1710 H         1 UNK         0.3116 
     86 H86        26.0543  -25.3658  -44.9867 H         1 UNK         0.0646 
     87 H87        26.6305  -27.9973  -46.4576 H         1 UNK         0.0847 
     88 H88        27.8082  -26.7374  -46.1202 H         1 UNK         0.0847 
     89 H89        26.4693  -26.4067  -47.2049 H         1 UNK         0.0847 
     90 H90        24.9758  -28.5372  -43.9647 H         1 UNK         0.3040 
     91 H91        26.9985  -28.7579  -41.8041 H         1 UNK         0.1015 
     92 H92        26.4195  -30.7717  -43.2111 H         1 UNK         0.0786 
     93 H93        24.7477  -30.6635  -42.6566 H         1 UNK         0.0786 
     94 H94        26.0386  -31.0119  -41.5162 H         1 UNK         0.0786 
     95 H95        24.3630  -26.9117  -42.1238 H         1 UNK         0.3172 
     96 H96        22.8957  -25.8853  -40.8883 H         1 UNK         0.0595 
     97 H97        24.0581  -27.2175  -38.3858 H         1 UNK         0.0839 
     98 H98        22.9832  -25.8321  -38.4285 H         1 UNK         0.0839 
     99 H99        24.6051  -25.6954  -39.0881 H         1 UNK         0.0839 
    100 H100       23.1371  -29.2915  -39.9512 H         1 UNK         0.2998 
    101 H101       20.4978  -29.8668  -40.9102 H         1 UNK         0.0822 
    102 H102       19.7068  -29.1576  -38.6997 H         1 UNK         0.0787 
    103 H103       19.6632  -30.9087  -38.7363 H         1 UNK         0.0787 
    104 H104       20.9557  -30.0747  -37.8714 H         1 UNK         0.0787 
    105 H105       22.1355  -31.6409  -38.3526 H         1 UNK         0.3055 
    106 H106       23.1635  -33.6083  -38.2094 H         1 UNK         0.1106 
    107 H107       25.0139  -34.1166  -39.7444 H         1 UNK         0.0828 
    108 H108       25.0037  -32.3902  -39.4217 H         1 UNK         0.0828 
    109 H109       24.3883  -33.0073  -40.9536 H         1 UNK         0.0828 
    110 H110       20.5113  -33.6191  -39.1522 H         1 UNK         0.2931 
    111 H111       20.1786  -35.4068  -41.3526 H         1 UNK         0.0412 
    112 H112       20.9965  -36.3007  -38.1400 H         1 UNK         0.3472 
    113 H113       20.3629  -37.9262  -38.2234 H         1 UNK         0.3472 
    114 H114       17.7626  -35.1879  -40.9324 H         1 UNK         0.0970 
    115 H115       18.0540  -34.5089  -39.3549 H         1 UNK         0.0970 
    116 H116       17.4198  -33.7543  -43.0427 H         1 UNK         0.0612 
    117 H117       19.1499  -34.0002  -43.1108 H         1 UNK         0.0612 
@<TRIPOS>BOND
     1    1    2 1    
     2    1   62 1    
     3    1   63 1    
     4    1   64 1    
     5    2    3 2    
     6    2    4 am   BACKBONE|DICT|INTERRES
     7    4    5 1    
     8    4   65 1    
     9    5    6 1    
    10    5   25 1    
    11    5   66 1    
    12    6    7 1    
    13    6   67 1    
    14    6   68 1    
    15    7    8 1    
    16    8    9 1    
    17    8   69 1    
    18    8   70 1    
    19    9   10 ar   
    20    9   14 ar   
    21   10   11 ar   
    22   10   71 1    
    23   11   12 ar   
    24   11   61 1    
    25   12   13 ar   
    26   12   72 1    
    27   13   14 ar   
    28   13   15 1    
    29   14   73 1    
    30   15   16 1    
    31   15   74 1    
    32   15   75 1    
    33   16   17 1    
    34   17   18 1    
    35   17   76 1    
    36   17   77 1    
    37   18   19 1    
    38   18   27 1    
    39   18   78 1    
    40   19   20 am   BACKBONE|DICT|INTERRES
    41   19   79 1    
    42   20   21 2    
    43   20   22 1    
    44   22   23 1    
    45   22   24 1    
    46   22   80 1    
    47   23   81 1    
    48   23   82 1    
    49   23   83 1    
    50   24   25 am   BACKBONE|DICT|INTERRES
    51   24   84 1    
    52   25   26 2    
    53   27   28 2    
    54   27   29 am   BACKBONE|DICT|INTERRES
    55   29   30 1    
    56   29   85 1    
    57   30   31 1    
    58   30   32 1    
    59   30   86 1    
    60   31   87 1    
    61   31   88 1    
    62   31   89 1    
    63   32   33 2    
    64   32   34 am   BACKBONE|DICT|INTERRES
    65   34   35 1    
    66   34   90 1    
    67   35   36 1    
    68   35   37 1    
    69   35   91 1    
    70   36   92 1    
    71   36   93 1    
    72   36   94 1    
    73   37   38 2    
    74   37   39 am   BACKBONE|DICT|INTERRES
    75   39   40 1    
    76   39   95 1    
    77   40   41 1    
    78   40   42 1    
    79   40   96 1    
    80   41   97 1    
    81   41   98 1    
    82   41   99 1    
    83   42   43 2    
    84   42   44 am   BACKBONE|DICT|INTERRES
    85   44   45 1    
    86   44  100 1    
    87   45   46 1    
    88   45   47 1    
    89   45  101 1    
    90   46  102 1    
    91   46  103 1    
    92   46  104 1    
    93   47   48 2    
    94   47   49 am   BACKBONE|DICT|INTERRES
    95   49   50 1    
    96   49  105 1    
    97   50   51 1    
    98   50   52 1    
    99   50  106 1    
   100   51  107 1    
   101   51  108 1    
   102   51  109 1    
   103   52   53 2    
   104   52   54 am   BACKBONE|DICT|INTERRES
   105   54   55 1    
   106   54  110 1    
   107   55   56 1    
   108   55   59 1    
   109   55  111 1    
   110   56   57 am   BACKBONE|DICT|INTERRES
   111   56   58 2    
   112   57  112 1    
   113   57  113 1    
   114   59   60 1    
   115   59  114 1    
   116   59  115 1    
   117   60   61 1    
   118   61  116 1    
   119   61  117 1    
@<TRIPOS>SUBSTRUCTURE
     1 UNK         1 GROUP             0       ****    0 ROOT    
