@<TRIPOS>MOLECULE
3R8
117   119    1
SMALL
USER_CHARGES


@<TRIPOS>ATOM
      1 CA         18.8139  -27.2484  -38.6007 C.3       0 UNK        -0.2013 
      2 C          18.1560  -26.5092  -39.7559 C.2       0 UNK         0.4866 
      3 O          17.2206  -25.7415  -39.5267 O.2       0 UNK        -0.5176 
      4 N          18.6379  -26.7143  -40.9864 N.am      1 UNK        -0.4884 
      5 CA         18.2191  -25.9672  -42.1757 C.3       1 UNK         0.0853 
      6 C6         17.0015  -26.6158  -42.9032 C.3       10 UNK        -0.0849 
      7 S7         17.3780  -27.9268  -44.1182 S.3       10 UNK        -0.2776 
      8 C8         17.3006  -29.4201  -43.0811 C.3       10 UNK         0.0316 
      9 C9         18.1375  -30.5401  -43.6813 C.ar      10 UNK        -0.0863 
     10 C10        17.5735  -31.7746  -44.0203 C.ar      10 UNK        -0.1009 
     11 C11        18.3763  -32.7960  -44.5435 C.ar      10 UNK        -0.0712 
     12 C12        19.7434  -32.5679  -44.7428 C.ar      10 UNK        -0.0894 
     13 C13        20.3156  -31.3416  -44.3997 C.ar      10 UNK        -0.0745 
     14 C14        19.5079  -30.3415  -43.8603 C.ar      10 UNK        -0.0972 
     15 C15        21.8061  -31.0960  -44.5799 C.3       10 UNK         0.0209 
     16 S16        22.2311  -30.5186  -46.2557 S.3       10 UNK        -0.2568 
     17 C17        21.5132  -28.8345  -46.2766 C.3       10 UNK        -0.0983 
     18 CA         22.4182  -27.6353  -45.8587 C.3       3 UNK         0.0876 
     19 N          21.6399  -26.5476  -45.2758 N.am      3 UNK        -0.4424 
     20 C          20.8993  -25.6651  -45.9483 C.2       2 UNK         0.4918 
     21 O          20.7200  -25.7168  -47.1665 O.2       2 UNK        -0.4875 
     22 CA         20.2681  -24.5267  -45.1193 C.3       2 UNK         0.0481 
     23 CB         19.6704  -23.4180  -46.0058 C.3       2 UNK        -0.1831 
     24 N          19.2339  -24.9958  -44.1927 N.am      2 UNK        -0.4498 
     25 C          19.4534  -25.6588  -43.0492 C.2       1 UNK         0.5027 
     26 O          20.5789  -25.9856  -42.6639 O.2       1 UNK        -0.4969 
     27 C          23.5580  -27.9310  -44.8640 C.2       3 UNK         0.5005 
     28 O          23.3537  -27.8287  -43.6486 O.2       3 UNK        -0.5279 
     29 N          24.7465  -28.2456  -45.4040 N.am      4 UNK        -0.4463 
     30 CA         26.0380  -28.3092  -44.7070 C.3       4 UNK         0.0283 
     31 CB         26.0695  -29.4767  -43.6958 C.3       4 UNK        -0.1875 
     32 C          26.3855  -26.9315  -44.1042 C.2       4 UNK         0.4949 
     33 O          26.2046  -25.9229  -44.7901 O.2       4 UNK        -0.5039 
     34 N          26.8600  -26.8935  -42.8514 N.am      5 UNK        -0.4663 
     35 CA         27.0106  -25.6547  -42.0818 C.3       5 UNK         0.0242 
     36 CB         27.9114  -25.9026  -40.8595 C.3       5 UNK        -0.1982 
     37 C          25.6383  -25.0955  -41.6654 C.2       5 UNK         0.5017 
     38 O          25.3430  -23.9349  -41.9504 O.2       5 UNK        -0.5012 
     39 N          24.8306  -25.9575  -41.0349 N.am      6 UNK        -0.4439 
     40 CA         23.4432  -25.7494  -40.6169 C.3       6 UNK         0.0297 
     41 CB         23.3034  -24.5569  -39.6419 C.3       6 UNK        -0.2006 
     42 C          22.9431  -27.0657  -39.9989 C.2       6 UNK         0.4892 
     43 O          22.5526  -27.0889  -38.8295 O.2       6 UNK        -0.5089 
     44 N          23.0459  -28.1593  -40.7653 N.am      7 UNK        -0.4243 
     45 CA         22.6964  -29.5103  -40.3169 C.3       7 UNK         0.0196 
     46 CB         23.6238  -30.5232  -41.0119 C.3       7 UNK        -0.2007 
     47 C          21.2130  -29.8245  -40.5700 C.2       7 UNK         0.5020 
     48 O          20.4864  -28.9988  -41.1269 O.2       7 UNK        -0.5147 
     49 N          20.7868  -31.0202  -40.1500 N.am      8 UNK        -0.4734 
     50 CA         19.4499  -31.5585  -40.3782 C.3       8 UNK         0.0238 
     51 CB         18.4815  -31.0677  -39.2881 C.3       8 UNK        -0.1912 
     52 C          19.5075  -33.0878  -40.4239 C.2       8 UNK         0.5038 
     53 O          20.3784  -33.6823  -39.7819 O.2       8 UNK        -0.5046 
     54 N          18.5536  -33.6879  -41.1462 N.am      9 UNK        -0.4200 
     55 CA         18.3165  -35.1403  -41.1866 C.3       9 UNK         0.0839 
     56 C          17.6606  -35.7164  -39.8949 C.2       9 UNK         0.5513 
     57 N          17.1457  -34.9022  -38.9802 N.am      9 UNK        -0.7519 
     58 O          17.6244  -36.9314  -39.7181 O.2       9 UNK        -0.4960 
     59 C59        17.5050  -35.5480  -42.4471 C.3       10 UNK        -0.0876 
     60 S60        18.5041  -35.5150  -43.9735 S.3       10 UNK        -0.2414 
     61 C61        17.7733  -34.1408  -44.9227 C.3       10 UNK         0.0169 
     62 H62        18.0969  -27.9119  -38.1188 H         1 UNK         0.0903 
     63 H63        19.6689  -27.8389  -38.9246 H         1 UNK         0.0903 
     64 H64        19.1689  -26.5355  -37.8570 H         1 UNK         0.0903 
     65 H65        19.4253  -27.3462  -41.1334 H         1 UNK         0.3096 
     66 H66        17.8929  -24.9806  -41.8378 H         1 UNK         0.1121 
     67 H67        16.2824  -26.9944  -42.1748 H         1 UNK         0.0849 
     68 H68        16.4614  -25.8386  -43.4461 H         1 UNK         0.0849 
     69 H69        17.6833  -29.1961  -42.0843 H         1 UNK         0.0865 
     70 H70        16.2596  -29.7224  -42.9587 H         1 UNK         0.0865 
     71 H71        16.5143  -31.9404  -43.8775 H         1 UNK         0.1346 
     72 H72        20.3635  -33.3512  -45.1571 H         1 UNK         0.1412 
     73 H73        19.9462  -29.3934  -43.5780 H         1 UNK         0.1426 
     74 H74        22.3591  -32.0122  -44.3682 H         1 UNK         0.0716 
     75 H75        22.1472  -30.3579  -43.8553 H         1 UNK         0.0716 
     76 H76        20.6048  -28.8375  -45.6797 H         1 UNK         0.0695 
     77 H77        21.1567  -28.6568  -47.2922 H         1 UNK         0.0695 
     78 H78        22.8927  -27.2468  -46.7629 H         1 UNK         0.0983 
     79 H79        21.7113  -26.4675  -44.2633 H         1 UNK         0.3095 
     80 H80        21.0717  -24.0752  -44.5334 H         1 UNK         0.0454 
     81 H81        20.4190  -23.0209  -46.6927 H         1 UNK         0.0851 
     82 H82        19.3092  -22.5815  -45.4074 H         1 UNK         0.0851 
     83 H83        18.8383  -23.7849  -46.6079 H         1 UNK         0.0851 
     84 H84        18.2796  -24.8043  -44.4613 H         1 UNK         0.2976 
     85 H85        24.8052  -28.3016  -46.4115 H         1 UNK         0.3116 
     86 H86        26.7904  -28.5108  -45.4708 H         1 UNK         0.0646 
     87 H87        27.0813  -29.6572  -43.3312 H         1 UNK         0.0847 
     88 H88        25.7268  -30.4043  -44.1546 H         1 UNK         0.0847 
     89 H89        25.4351  -29.2823  -42.8329 H         1 UNK         0.0847 
     90 H90        27.0136  -27.7642  -42.3642 H         1 UNK         0.3040 
     91 H91        27.4972  -24.9073  -42.7132 H         1 UNK         0.1015 
     92 H92        28.0277  -24.9908  -40.2718 H         1 UNK         0.0786 
     93 H93        28.9096  -26.2187  -41.1634 H         1 UNK         0.0786 
     94 H94        27.5063  -26.6678  -40.1964 H         1 UNK         0.0786 
     95 H95        25.1806  -26.8903  -40.8661 H         1 UNK         0.3172 
     96 H96        22.8472  -25.5495  -41.5076 H         1 UNK         0.0595 
     97 H97        23.9497  -24.6721  -38.7712 H         1 UNK         0.0839 
     98 H98        22.2780  -24.4692  -39.2800 H         1 UNK         0.0839 
     99 H99        23.5465  -23.6081  -40.1183 H         1 UNK         0.0839 
    100 H100       23.2381  -28.0437  -41.7594 H         1 UNK         0.2998 
    101 H101       22.8632  -29.5890  -39.2404 H         1 UNK         0.0822 
    102 H102       24.6678  -30.3279  -40.7670 H         1 UNK         0.0787 
    103 H103       23.5229  -30.4873  -42.0949 H         1 UNK         0.0787 
    104 H104       23.4139  -31.5463  -40.6987 H         1 UNK         0.0787 
    105 H105       21.4339  -31.6734  -39.7259 H         1 UNK         0.3055 
    106 H106       19.0953  -31.2138  -41.3451 H         1 UNK         0.1106 
    107 H107       18.8308  -31.3311  -38.2887 H         1 UNK         0.0828 
    108 H108       18.3632  -29.9862  -39.3309 H         1 UNK         0.0828 
    109 H109       17.4884  -31.4999  -39.4159 H         1 UNK         0.0828 
    110 H110       17.8946  -33.1208  -41.6589 H         1 UNK         0.2931 
    111 H111       19.2923  -35.6266  -41.2512 H         1 UNK         0.0412 
    112 H112       17.1662  -33.9044  -39.1085 H         1 UNK         0.3472 
    113 H113       16.7292  -35.2953  -38.1501 H         1 UNK         0.3472 
    114 H114       17.1354  -36.5715  -42.3564 H         1 UNK         0.0970 
    115 H115       16.6156  -34.9251  -42.5548 H         1 UNK         0.0970 
    116 H116       17.9621  -34.3162  -45.9827 H         1 UNK         0.0612 
    117 H117       16.6888  -34.1409  -44.8042 H         1 UNK         0.0612 
@<TRIPOS>BOND
     1    1    2 1    
     2    1   62 1    
     3    1   63 1    
     4    1   64 1    
     5    2    3 2    
     6    2    4 am   BACKBONE|DICT|INTERRES
     7    4    5 1    
     8    4   65 1    
     9    5    6 1    
    10    5   25 1    
    11    5   66 1    
    12    6    7 1    
    13    6   67 1    
    14    6   68 1    
    15    7    8 1    
    16    8    9 1    
    17    8   69 1    
    18    8   70 1    
    19    9   10 ar   
    20    9   14 ar   
    21   10   11 ar   
    22   10   71 1    
    23   11   12 ar   
    24   11   61 1    
    25   12   13 ar   
    26   12   72 1    
    27   13   14 ar   
    28   13   15 1    
    29   14   73 1    
    30   15   16 1    
    31   15   74 1    
    32   15   75 1    
    33   16   17 1    
    34   17   18 1    
    35   17   76 1    
    36   17   77 1    
    37   18   19 1    
    38   18   27 1    
    39   18   78 1    
    40   19   20 am   BACKBONE|DICT|INTERRES
    41   19   79 1    
    42   20   21 2    
    43   20   22 1    
    44   22   23 1    
    45   22   24 1    
    46   22   80 1    
    47   23   81 1    
    48   23   82 1    
    49   23   83 1    
    50   24   25 am   BACKBONE|DICT|INTERRES
    51   24   84 1    
    52   25   26 2    
    53   27   28 2    
    54   27   29 am   BACKBONE|DICT|INTERRES
    55   29   30 1    
    56   29   85 1    
    57   30   31 1    
    58   30   32 1    
    59   30   86 1    
    60   31   87 1    
    61   31   88 1    
    62   31   89 1    
    63   32   33 2    
    64   32   34 am   BACKBONE|DICT|INTERRES
    65   34   35 1    
    66   34   90 1    
    67   35   36 1    
    68   35   37 1    
    69   35   91 1    
    70   36   92 1    
    71   36   93 1    
    72   36   94 1    
    73   37   38 2    
    74   37   39 am   BACKBONE|DICT|INTERRES
    75   39   40 1    
    76   39   95 1    
    77   40   41 1    
    78   40   42 1    
    79   40   96 1    
    80   41   97 1    
    81   41   98 1    
    82   41   99 1    
    83   42   43 2    
    84   42   44 am   BACKBONE|DICT|INTERRES
    85   44   45 1    
    86   44  100 1    
    87   45   46 1    
    88   45   47 1    
    89   45  101 1    
    90   46  102 1    
    91   46  103 1    
    92   46  104 1    
    93   47   48 2    
    94   47   49 am   BACKBONE|DICT|INTERRES
    95   49   50 1    
    96   49  105 1    
    97   50   51 1    
    98   50   52 1    
    99   50  106 1    
   100   51  107 1    
   101   51  108 1    
   102   51  109 1    
   103   52   53 2    
   104   52   54 am   BACKBONE|DICT|INTERRES
   105   54   55 1    
   106   54  110 1    
   107   55   56 1    
   108   55   59 1    
   109   55  111 1    
   110   56   57 am   BACKBONE|DICT|INTERRES
   111   56   58 2    
   112   57  112 1    
   113   57  113 1    
   114   59   60 1    
   115   59  114 1    
   116   59  115 1    
   117   60   61 1    
   118   61  116 1    
   119   61  117 1    
@<TRIPOS>SUBSTRUCTURE
     1 UNK         1 GROUP             0       ****    0 ROOT    
