@<TRIPOS>MOLECULE
3R8
117   119    1
SMALL
USER_CHARGES


@<TRIPOS>ATOM
      1 CA         17.3942  -23.9840  -44.2175 C.3       0 UNK        -0.2013 
      2 C          16.9682  -25.0505  -43.2196 C.2       0 UNK         0.4866 
      3 O          16.2393  -24.7411  -42.2781 O.2       0 UNK        -0.5176 
      4 N          17.4163  -26.2945  -43.4354 N.am      1 UNK        -0.4884 
      5 CA         17.2087  -27.4800  -42.5939 C.3       1 UNK         0.0853 
      6 C6         15.7128  -27.8788  -42.4739 C.3       10 UNK        -0.0849 
      7 S7         15.5145  -29.6530  -42.0920 S.3       10 UNK        -0.2776 
      8 C8         15.2024  -30.3593  -43.7422 C.3       10 UNK         0.0316 
      9 C9         16.4379  -30.3068  -44.6311 C.ar      10 UNK        -0.0863 
     10 C10        17.4381  -31.2760  -44.5020 C.ar      10 UNK        -0.1009 
     11 C11        18.5608  -31.2488  -45.3345 C.ar      10 UNK        -0.0712 
     12 C12        18.6842  -30.2410  -46.2941 C.ar      10 UNK        -0.0894 
     13 C13        17.6964  -29.2629  -46.4274 C.ar      10 UNK        -0.0745 
     14 C14        16.5730  -29.3025  -45.5960 C.ar      10 UNK        -0.0972 
     15 C15        17.8229  -28.1857  -47.4935 C.3       10 UNK         0.0209 
     16 S16        18.5403  -26.6513  -46.8314 S.3       10 UNK        -0.2568 
     17 C17        20.3258  -27.0303  -46.7875 C.3       10 UNK        -0.0983 
     18 CA         20.9335  -26.6860  -45.4098 C.3       3 UNK         0.0876 
     19 N          20.4217  -27.5461  -44.3409 N.am      3 UNK        -0.4424 
     20 C          20.5603  -27.2631  -43.0412 C.2       2 UNK         0.4918 
     21 O          21.0447  -26.2134  -42.6124 O.2       2 UNK        -0.4875 
     22 CA         20.0926  -28.3360  -42.0532 C.3       2 UNK         0.0481 
     23 CB         21.3082  -28.9356  -41.3319 C.3       2 UNK        -0.1831 
     24 N          19.1805  -27.7726  -41.0566 N.am      2 UNK        -0.4498 
     25 C          17.9175  -27.3433  -41.2182 C.2       1 UNK         0.5027 
     26 O          17.3090  -26.8400  -40.2740 O.2       1 UNK        -0.4969 
     27 C          22.4739  -26.7423  -45.4241 C.2       3 UNK         0.5005 
     28 O          23.0509  -27.7980  -45.1496 O.2       3 UNK        -0.5279 
     29 N          23.1036  -25.5845  -45.6746 N.am      4 UNK        -0.4463 
     30 CA         24.5478  -25.3246  -45.5614 C.3       4 UNK         0.0283 
     31 CB         25.3440  -26.1480  -46.5969 C.3       4 UNK        -0.1875 
     32 C          25.1016  -25.4900  -44.1271 C.2       4 UNK         0.4949 
     33 O          26.3123  -25.6437  -43.9627 O.2       4 UNK        -0.5039 
     34 N          24.2112  -25.4478  -43.1204 N.am      5 UNK        -0.4663 
     35 CA         24.4689  -25.6140  -41.6839 C.3       5 UNK         0.0242 
     36 CB         25.2740  -24.4173  -41.1336 C.3       5 UNK        -0.1982 
     37 C          25.0990  -26.9754  -41.3243 C.2       5 UNK         0.5017 
     38 O          25.9019  -27.0510  -40.3920 O.2       5 UNK        -0.5012 
     39 N          24.7229  -28.0320  -42.0601 N.am      6 UNK        -0.4439 
     40 CA         25.2404  -29.4012  -41.9430 C.3       6 UNK         0.0297 
     41 CB         24.9128  -30.1580  -43.2448 C.3       6 UNK        -0.2006 
     42 C          24.7591  -30.1602  -40.6842 C.2       6 UNK         0.4892 
     43 O          24.2856  -31.2918  -40.7968 O.2       6 UNK        -0.5089 
     44 N          24.8945  -29.5349  -39.5064 N.am      7 UNK        -0.4243 
     45 CA         24.5105  -30.0297  -38.1791 C.3       7 UNK         0.0196 
     46 CB         25.4501  -31.1758  -37.7370 C.3       7 UNK        -0.2007 
     47 C          23.0106  -30.3795  -38.1145 C.2       7 UNK         0.5020 
     48 O          22.1828  -29.4740  -38.2124 O.2       7 UNK        -0.5147 
     49 N          22.6862  -31.6691  -37.9595 N.am      8 UNK        -0.4734 
     50 CA         21.3189  -32.2005  -37.9690 C.3       8 UNK         0.0238 
     51 CB         21.2476  -33.3848  -36.9893 C.3       8 UNK        -0.1912 
     52 C          20.8477  -32.6326  -39.3725 C.2       8 UNK         0.5038 
     53 O          19.6856  -33.0151  -39.5166 O.2       8 UNK        -0.5046 
     54 N          21.7396  -32.5755  -40.3709 N.am      9 UNK        -0.4200 
     55 CA         21.5531  -33.0490  -41.7489 C.3       9 UNK         0.0839 
     56 C          21.4390  -34.5974  -41.8777 C.2       9 UNK         0.5513 
     57 N          21.1831  -35.1040  -43.0762 N.am      9 UNK        -0.7519 
     58 O          21.6175  -35.3495  -40.9213 O.2       9 UNK        -0.4960 
     59 C59        20.4377  -32.2682  -42.5090 C.3       10 UNK        -0.0876 
     60 S60        21.0024  -31.7483  -44.1642 S.3       10 UNK        -0.2414 
     61 C61        19.6389  -32.3133  -45.2226 C.3       10 UNK         0.0169 
     62 H62        16.5459  -23.6855  -44.8328 H         1 UNK         0.0903 
     63 H63        17.7612  -23.1027  -43.6920 H         1 UNK         0.0903 
     64 H64        18.1879  -24.3339  -44.8768 H         1 UNK         0.0903 
     65 H65        17.9866  -26.4557  -44.2555 H         1 UNK         0.3096 
     66 H66        17.6852  -28.2869  -43.1446 H         1 UNK         0.1121 
     67 H67        15.1903  -27.6658  -43.4074 H         1 UNK         0.0849 
     68 H68        15.1969  -27.2871  -41.7157 H         1 UNK         0.0849 
     69 H69        14.8855  -31.3968  -43.6250 H         1 UNK         0.0865 
     70 H70        14.3640  -29.8421  -44.2116 H         1 UNK         0.0865 
     71 H71        17.3371  -32.0555  -43.7590 H         1 UNK         0.1346 
     72 H72        19.5481  -30.2279  -46.9443 H         1 UNK         0.1412 
     73 H73        15.8021  -28.5516  -45.7051 H         1 UNK         0.1426 
     74 H74        16.8357  -27.9604  -47.8999 H         1 UNK         0.0716 
     75 H75        18.4202  -28.5397  -48.3353 H         1 UNK         0.0716 
     76 H76        20.8001  -26.4417  -47.5753 H         1 UNK         0.0695 
     77 H77        20.5066  -28.0755  -47.0404 H         1 UNK         0.0695 
     78 H78        20.6463  -25.6594  -45.1684 H         1 UNK         0.0983 
     79 H79        20.0768  -28.4517  -44.6254 H         1 UNK         0.3095 
     80 H80        19.5927  -29.1454  -42.5866 H         1 UNK         0.0454 
     81 H81        21.8925  -28.1764  -40.8099 H         1 UNK         0.0851 
     82 H82        21.9734  -29.4338  -42.0375 H         1 UNK         0.0851 
     83 H83        21.0056  -29.6787  -40.5958 H         1 UNK         0.0851 
     84 H84        19.5923  -27.6311  -40.1461 H         1 UNK         0.2976 
     85 H85        22.5407  -24.7720  -45.8908 H         1 UNK         0.3116 
     86 H86        24.6827  -24.2709  -45.8102 H         1 UNK         0.0646 
     87 H87        25.3362  -27.2129  -46.3627 H         1 UNK         0.0847 
     88 H88        26.3878  -25.8333  -46.6281 H         1 UNK         0.0847 
     89 H89        24.9404  -26.0217  -47.6014 H         1 UNK         0.0847 
     90 H90        23.2365  -25.3304  -43.3651 H         1 UNK         0.3040 
     91 H91        23.4921  -25.6034  -41.1969 H         1 UNK         0.1015 
     92 H92        26.2899  -24.3963  -41.5294 H         1 UNK         0.0786 
     93 H93        25.3501  -24.4623  -40.0464 H         1 UNK         0.0786 
     94 H94        24.7968  -23.4696  -41.3831 H         1 UNK         0.0786 
     95 H95        24.0736  -27.8671  -42.8182 H         1 UNK         0.3172 
     96 H96        26.3278  -29.3390  -41.8679 H         1 UNK         0.0595 
     97 H97        25.3462  -31.1590  -43.2383 H         1 UNK         0.0839 
     98 H98        25.3123  -29.6406  -44.1175 H         1 UNK         0.0839 
     99 H99        23.8375  -30.2704  -43.3892 H         1 UNK         0.0839 
    100 H100       25.2835  -28.5954  -39.5380 H         1 UNK         0.2998 
    101 H101       24.6566  -29.1995  -37.4864 H         1 UNK         0.0822 
    102 H102       25.2049  -31.5226  -36.7321 H         1 UNK         0.0787 
    103 H103       25.4061  -32.0344  -38.4080 H         1 UNK         0.0787 
    104 H104       26.4862  -30.8379  -37.7103 H         1 UNK         0.0787 
    105 H105       23.4354  -32.3444  -37.8983 H         1 UNK         0.3055 
    106 H106       20.6254  -31.4305  -37.6229 H         1 UNK         0.1106 
    107 H107       20.2332  -33.7817  -36.9274 H         1 UNK         0.0828 
    108 H108       21.8984  -34.2040  -37.2976 H         1 UNK         0.0828 
    109 H109       21.5368  -33.0851  -35.9819 H         1 UNK         0.0828 
    110 H110       22.6700  -32.2181  -40.1774 H         1 UNK         0.2931 
    111 H111       22.5143  -32.8150  -42.2081 H         1 UNK         0.0412 
    112 H112       21.1206  -36.1043  -43.1863 H         1 UNK         0.3472 
    113 H113       21.0769  -34.4991  -43.8756 H         1 UNK         0.3472 
    114 H114       20.1536  -31.3676  -41.9697 H         1 UNK         0.0970 
    115 H115       19.5163  -32.8498  -42.5696 H         1 UNK         0.0970 
    116 H116       19.2243  -33.2514  -44.8510 H         1 UNK         0.0612 
    117 H117       20.0381  -32.5333  -46.2139 H         1 UNK         0.0612 
@<TRIPOS>BOND
     1    1    2 1    
     2    1   62 1    
     3    1   63 1    
     4    1   64 1    
     5    2    3 2    
     6    2    4 am   BACKBONE|DICT|INTERRES
     7    4    5 1    
     8    4   65 1    
     9    5    6 1    
    10    5   25 1    
    11    5   66 1    
    12    6    7 1    
    13    6   67 1    
    14    6   68 1    
    15    7    8 1    
    16    8    9 1    
    17    8   69 1    
    18    8   70 1    
    19    9   10 ar   
    20    9   14 ar   
    21   10   11 ar   
    22   10   71 1    
    23   11   12 ar   
    24   11   61 1    
    25   12   13 ar   
    26   12   72 1    
    27   13   14 ar   
    28   13   15 1    
    29   14   73 1    
    30   15   16 1    
    31   15   74 1    
    32   15   75 1    
    33   16   17 1    
    34   17   18 1    
    35   17   76 1    
    36   17   77 1    
    37   18   19 1    
    38   18   27 1    
    39   18   78 1    
    40   19   20 am   BACKBONE|DICT|INTERRES
    41   19   79 1    
    42   20   21 2    
    43   20   22 1    
    44   22   23 1    
    45   22   24 1    
    46   22   80 1    
    47   23   81 1    
    48   23   82 1    
    49   23   83 1    
    50   24   25 am   BACKBONE|DICT|INTERRES
    51   24   84 1    
    52   25   26 2    
    53   27   28 2    
    54   27   29 am   BACKBONE|DICT|INTERRES
    55   29   30 1    
    56   29   85 1    
    57   30   31 1    
    58   30   32 1    
    59   30   86 1    
    60   31   87 1    
    61   31   88 1    
    62   31   89 1    
    63   32   33 2    
    64   32   34 am   BACKBONE|DICT|INTERRES
    65   34   35 1    
    66   34   90 1    
    67   35   36 1    
    68   35   37 1    
    69   35   91 1    
    70   36   92 1    
    71   36   93 1    
    72   36   94 1    
    73   37   38 2    
    74   37   39 am   BACKBONE|DICT|INTERRES
    75   39   40 1    
    76   39   95 1    
    77   40   41 1    
    78   40   42 1    
    79   40   96 1    
    80   41   97 1    
    81   41   98 1    
    82   41   99 1    
    83   42   43 2    
    84   42   44 am   BACKBONE|DICT|INTERRES
    85   44   45 1    
    86   44  100 1    
    87   45   46 1    
    88   45   47 1    
    89   45  101 1    
    90   46  102 1    
    91   46  103 1    
    92   46  104 1    
    93   47   48 2    
    94   47   49 am   BACKBONE|DICT|INTERRES
    95   49   50 1    
    96   49  105 1    
    97   50   51 1    
    98   50   52 1    
    99   50  106 1    
   100   51  107 1    
   101   51  108 1    
   102   51  109 1    
   103   52   53 2    
   104   52   54 am   BACKBONE|DICT|INTERRES
   105   54   55 1    
   106   54  110 1    
   107   55   56 1    
   108   55   59 1    
   109   55  111 1    
   110   56   57 am   BACKBONE|DICT|INTERRES
   111   56   58 2    
   112   57  112 1    
   113   57  113 1    
   114   59   60 1    
   115   59  114 1    
   116   59  115 1    
   117   60   61 1    
   118   61  116 1    
   119   61  117 1    
@<TRIPOS>SUBSTRUCTURE
     1 UNK         1 GROUP             0       ****    0 ROOT    
