@<TRIPOS>MOLECULE
3R8
117   119    1
SMALL
USER_CHARGES


@<TRIPOS>ATOM
      1 CA         15.7066  -21.9185  -42.3328 C.3       0 UNK        -0.2013 
      2 C          16.1183  -22.6145  -43.6217 C.2       0 UNK         0.4866 
      3 O          15.9976  -22.0295  -44.6989 O.2       0 UNK        -0.5176 
      4 N          16.5940  -23.8616  -43.5214 N.am      1 UNK        -0.4884 
      5 CA         17.0827  -24.6625  -44.6491 C.3       1 UNK         0.0853 
      6 C6         17.2080  -26.1593  -44.2750 C.3       10 UNK        -0.0849 
      7 S7         15.5825  -26.9384  -43.9897 S.3       10 UNK        -0.2776 
      8 C8         15.9654  -28.1573  -42.6792 C.3       10 UNK         0.0316 
      9 C9         17.0685  -29.1666  -43.0119 C.ar      10 UNK        -0.0863 
     10 C10        17.7382  -29.7996  -41.9587 C.ar      10 UNK        -0.1009 
     11 C11        18.7720  -30.7068  -42.2098 C.ar      10 UNK        -0.0712 
     12 C12        19.1523  -30.9685  -43.5284 C.ar      10 UNK        -0.0894 
     13 C13        18.4863  -30.3561  -44.5928 C.ar      10 UNK        -0.0745 
     14 C14        17.4286  -29.4821  -44.3293 C.ar      10 UNK        -0.0972 
     15 C15        18.9328  -30.6109  -46.0270 C.3       10 UNK         0.0209 
     16 S16        19.5858  -29.1049  -46.8268 S.3       10 UNK        -0.2568 
     17 C17        20.8175  -28.5528  -45.5993 C.3       10 UNK        -0.0983 
     18 CA         21.6074  -27.2899  -46.0273 C.3       3 UNK         0.0876 
     19 N          20.7048  -26.1931  -46.3886 N.am      3 UNK        -0.4424 
     20 C          21.0573  -25.0143  -46.9176 C.2       2 UNK         0.4918 
     21 O          22.2117  -24.7241  -47.2350 O.2       2 UNK        -0.4875 
     22 CA         19.9309  -23.9883  -47.1598 C.3       2 UNK         0.0481 
     23 CB         19.6575  -23.8412  -48.6659 C.3       2 UNK        -0.1831 
     24 N          18.6742  -24.3251  -46.4791 N.am      2 UNK        -0.4498 
     25 C          18.4341  -24.1330  -45.1737 C.2       1 UNK         0.5027 
     26 O          19.2385  -23.6132  -44.3963 O.2       1 UNK        -0.4969 
     27 C          22.5600  -26.8898  -44.8814 C.2       3 UNK         0.5005 
     28 O          22.2461  -25.9892  -44.0970 O.2       3 UNK        -0.5279 
     29 N          23.6656  -27.6332  -44.7382 N.am      4 UNK        -0.4463 
     30 CA         24.6068  -27.5404  -43.6161 C.3       4 UNK         0.0283 
     31 CB         25.9546  -28.1537  -44.0403 C.3       4 UNK        -0.1875 
     32 C          24.0444  -28.1917  -42.3342 C.2       4 UNK         0.4949 
     33 O          24.6694  -29.0869  -41.7664 O.2       4 UNK        -0.5039 
     34 N          22.8504  -27.7639  -41.9126 N.am      5 UNK        -0.4663 
     35 CA         22.1800  -28.2249  -40.6985 C.3       5 UNK         0.0242 
     36 CB         20.7129  -27.7674  -40.7429 C.3       5 UNK        -0.1982 
     37 C          22.8899  -27.6817  -39.4383 C.2       5 UNK         0.5017 
     38 O          23.3956  -26.5597  -39.4791 O.2       5 UNK        -0.5012 
     39 N          22.9240  -28.4143  -38.3160 N.am      6 UNK        -0.4439 
     40 CA         22.3755  -29.7566  -38.0958 C.3       6 UNK         0.0297 
     41 CB         22.0471  -29.9140  -36.6022 C.3       6 UNK        -0.2006 
     42 C          23.3098  -30.8934  -38.5512 C.2       6 UNK         0.4892 
     43 O          22.8742  -32.0436  -38.5430 O.2       6 UNK        -0.5089 
     44 N          24.5549  -30.5809  -38.9430 N.am      7 UNK        -0.4243 
     45 CA         25.5868  -31.5491  -39.3459 C.3       7 UNK         0.0196 
     46 CB         26.9002  -30.8074  -39.6422 C.3       7 UNK        -0.2007 
     47 C          25.1903  -32.4482  -40.5325 C.2       7 UNK         0.5020 
     48 O          25.5886  -33.6120  -40.5687 O.2       7 UNK        -0.5147 
     49 N          24.3825  -31.9088  -41.4548 N.am      8 UNK        -0.4734 
     50 CA         23.7609  -32.6321  -42.5689 C.3       8 UNK         0.0238 
     51 CB         23.0963  -31.6162  -43.5150 C.3       8 UNK        -0.1912 
     52 C          22.7455  -33.7113  -42.1381 C.2       8 UNK         0.5038 
     53 O          22.4903  -34.6277  -42.9206 O.2       8 UNK        -0.5046 
     54 N          22.1875  -33.5853  -40.9275 N.am      9 UNK        -0.4200 
     55 CA         21.2548  -34.5405  -40.3133 C.3       9 UNK         0.0839 
     56 C          21.9653  -35.4342  -39.2640 C.2       9 UNK         0.5513 
     57 N          22.8534  -34.8915  -38.4410 N.am      9 UNK        -0.7519 
     58 O          21.7101  -36.6339  -39.1992 O.2       9 UNK        -0.4960 
     59 C59        20.0370  -33.8169  -39.6814 C.3       10 UNK        -0.0876 
     60 S60        18.9160  -33.1379  -40.9467 S.3       10 UNK        -0.2414 
     61 C61        19.4787  -31.4130  -41.0641 C.3       10 UNK         0.0169 
     62 H62        14.6541  -21.6396  -42.3765 H         1 UNK         0.0903 
     63 H63        15.8523  -22.5553  -41.4604 H         1 UNK         0.0903 
     64 H64        16.2942  -21.0116  -42.1924 H         1 UNK         0.0903 
     65 H65        16.6827  -24.2894  -42.6111 H         1 UNK         0.3096 
     66 H66        16.3555  -24.5691  -45.4595 H         1 UNK         0.1121 
     67 H67        17.6932  -26.7189  -45.0767 H         1 UNK         0.0849 
     68 H68        17.8404  -26.2845  -43.3934 H         1 UNK         0.0849 
     69 H69        16.2336  -27.6075  -41.7755 H         1 UNK         0.0865 
     70 H70        15.0540  -28.7082  -42.4436 H         1 UNK         0.0865 
     71 H71        17.4539  -29.5858  -40.9372 H         1 UNK         0.1346 
     72 H72        19.9618  -31.6588  -43.7224 H         1 UNK         0.1412 
     73 H73        16.9154  -29.0246  -45.1629 H         1 UNK         0.1426 
     74 H74        18.0879  -30.9844  -46.6070 H         1 UNK         0.0716 
     75 H75        19.6985  -31.3874  -46.0626 H         1 UNK         0.0716 
     76 H76        21.4953  -29.3873  -45.4086 H         1 UNK         0.0695 
     77 H77        20.2968  -28.3602  -44.6586 H         1 UNK         0.0695 
     78 H78        22.2096  -27.5251  -46.9075 H         1 UNK         0.0983 
     79 H79        19.7326  -26.3441  -46.1751 H         1 UNK         0.3095 
     80 H80        20.2821  -23.0246  -46.7849 H         1 UNK         0.0454 
     81 H81        20.5627  -23.5504  -49.2009 H         1 UNK         0.0851 
     82 H82        18.9093  -23.0728  -48.8611 H         1 UNK         0.0851 
     83 H83        19.3057  -24.7746  -49.1070 H         1 UNK         0.0851 
     84 H84        17.9583  -24.7524  -47.0506 H         1 UNK         0.2976 
     85 H85        23.8379  -28.3765  -45.4004 H         1 UNK         0.3116 
     86 H86        24.7791  -26.4860  -43.3898 H         1 UNK         0.0646 
     87 H87        25.8619  -29.2153  -44.2727 H         1 UNK         0.0847 
     88 H88        26.6935  -28.0600  -43.2432 H         1 UNK         0.0847 
     89 H89        26.3629  -27.6508  -44.9170 H         1 UNK         0.0847 
     90 H90        22.4165  -27.0050  -42.4302 H         1 UNK         0.3040 
     91 H91        22.2086  -29.3142  -40.7154 H         1 UNK         0.1015 
     92 H92        20.1552  -28.1453  -39.8854 H         1 UNK         0.0786 
     93 H93        20.2120  -28.1297  -41.6410 H         1 UNK         0.0786 
     94 H94        20.6302  -26.6797  -40.7325 H         1 UNK         0.0786 
     95 H95        23.3886  -28.0061  -37.5171 H         1 UNK         0.3172 
     96 H96        21.4374  -29.8632  -38.6424 H         1 UNK         0.0595 
     97 H97        22.9395  -29.8370  -35.9797 H         1 UNK         0.0839 
     98 H98        21.5941  -30.8861  -36.4005 H         1 UNK         0.0839 
     99 H99        21.3379  -29.1561  -36.2688 H         1 UNK         0.0839 
    100 H100       24.8227  -29.6074  -38.9567 H         1 UNK         0.2998 
    101 H101       25.7564  -32.2081  -38.4918 H         1 UNK         0.0822 
    102 H102       27.2474  -30.2500  -38.7722 H         1 UNK         0.0787 
    103 H103       27.6912  -31.5083  -39.9130 H         1 UNK         0.0787 
    104 H104       26.7908  -30.1057  -40.4698 H         1 UNK         0.0787 
    105 H105       24.2302  -30.9043  -41.4111 H         1 UNK         0.3055 
    106 H106       24.5548  -33.1445  -43.1166 H         1 UNK         0.1106 
    107 H107       23.8329  -30.9356  -43.9414 H         1 UNK         0.0828 
    108 H108       22.6031  -32.1181  -44.3487 H         1 UNK         0.0828 
    109 H109       22.3442  -31.0161  -43.0020 H         1 UNK         0.0828 
    110 H110       22.5135  -32.8465  -40.3155 H         1 UNK         0.2931 
    111 H111       20.8699  -35.2154  -41.0807 H         1 UNK         0.0412 
    112 H112       23.0109  -33.8876  -38.4506 H         1 UNK         0.3472 
    113 H113       23.3220  -35.4705  -37.7629 H         1 UNK         0.3472 
    114 H114       19.4478  -34.5137  -39.0818 H         1 UNK         0.0970 
    115 H115       20.3553  -33.0283  -38.9971 H         1 UNK         0.0970 
    116 H116       19.2910  -30.9045  -40.1172 H         1 UNK         0.0612 
    117 H117       20.5559  -31.3813  -41.2273 H         1 UNK         0.0612 
@<TRIPOS>BOND
     1    1    2 1    
     2    1   62 1    
     3    1   63 1    
     4    1   64 1    
     5    2    3 2    
     6    2    4 am   BACKBONE|DICT|INTERRES
     7    4    5 1    
     8    4   65 1    
     9    5    6 1    
    10    5   25 1    
    11    5   66 1    
    12    6    7 1    
    13    6   67 1    
    14    6   68 1    
    15    7    8 1    
    16    8    9 1    
    17    8   69 1    
    18    8   70 1    
    19    9   10 ar   
    20    9   14 ar   
    21   10   11 ar   
    22   10   71 1    
    23   11   12 ar   
    24   11   61 1    
    25   12   13 ar   
    26   12   72 1    
    27   13   14 ar   
    28   13   15 1    
    29   14   73 1    
    30   15   16 1    
    31   15   74 1    
    32   15   75 1    
    33   16   17 1    
    34   17   18 1    
    35   17   76 1    
    36   17   77 1    
    37   18   19 1    
    38   18   27 1    
    39   18   78 1    
    40   19   20 am   BACKBONE|DICT|INTERRES
    41   19   79 1    
    42   20   21 2    
    43   20   22 1    
    44   22   23 1    
    45   22   24 1    
    46   22   80 1    
    47   23   81 1    
    48   23   82 1    
    49   23   83 1    
    50   24   25 am   BACKBONE|DICT|INTERRES
    51   24   84 1    
    52   25   26 2    
    53   27   28 2    
    54   27   29 am   BACKBONE|DICT|INTERRES
    55   29   30 1    
    56   29   85 1    
    57   30   31 1    
    58   30   32 1    
    59   30   86 1    
    60   31   87 1    
    61   31   88 1    
    62   31   89 1    
    63   32   33 2    
    64   32   34 am   BACKBONE|DICT|INTERRES
    65   34   35 1    
    66   34   90 1    
    67   35   36 1    
    68   35   37 1    
    69   35   91 1    
    70   36   92 1    
    71   36   93 1    
    72   36   94 1    
    73   37   38 2    
    74   37   39 am   BACKBONE|DICT|INTERRES
    75   39   40 1    
    76   39   95 1    
    77   40   41 1    
    78   40   42 1    
    79   40   96 1    
    80   41   97 1    
    81   41   98 1    
    82   41   99 1    
    83   42   43 2    
    84   42   44 am   BACKBONE|DICT|INTERRES
    85   44   45 1    
    86   44  100 1    
    87   45   46 1    
    88   45   47 1    
    89   45  101 1    
    90   46  102 1    
    91   46  103 1    
    92   46  104 1    
    93   47   48 2    
    94   47   49 am   BACKBONE|DICT|INTERRES
    95   49   50 1    
    96   49  105 1    
    97   50   51 1    
    98   50   52 1    
    99   50  106 1    
   100   51  107 1    
   101   51  108 1    
   102   51  109 1    
   103   52   53 2    
   104   52   54 am   BACKBONE|DICT|INTERRES
   105   54   55 1    
   106   54  110 1    
   107   55   56 1    
   108   55   59 1    
   109   55  111 1    
   110   56   57 am   BACKBONE|DICT|INTERRES
   111   56   58 2    
   112   57  112 1    
   113   57  113 1    
   114   59   60 1    
   115   59  114 1    
   116   59  115 1    
   117   60   61 1    
   118   61  116 1    
   119   61  117 1    
@<TRIPOS>SUBSTRUCTURE
     1 UNK         1 GROUP             0       ****    0 ROOT    
