@<TRIPOS>MOLECULE
3R8
117   119    1
SMALL
USER_CHARGES


@<TRIPOS>ATOM
      1 CA         16.3163  -23.4085  -47.6240 C.3       0 UNK        -0.2013 
      2 C          16.5578  -24.8767  -47.3074 C.2       0 UNK         0.4866 
      3 O          17.1266  -25.5961  -48.1291 O.2       0 UNK        -0.5176 
      4 N          16.1325  -25.3279  -46.1236 N.am      1 UNK        -0.4884 
      5 CA         16.3219  -26.6863  -45.6210 C.3       1 UNK         0.0853 
      6 C6         15.2933  -27.6778  -46.2268 C.3       10 UNK        -0.0849 
      7 S7         15.6711  -29.4470  -45.9703 S.3       10 UNK        -0.2776 
      8 C8         17.1741  -29.6986  -46.9733 C.3       10 UNK         0.0316 
      9 C9         18.4385  -29.5950  -46.1286 C.ar      10 UNK        -0.0863 
     10 C10        18.7129  -30.5668  -45.1622 C.ar      10 UNK        -0.1009 
     11 C11        19.8715  -30.4918  -44.3840 C.ar      10 UNK        -0.0712 
     12 C12        20.7592  -29.4275  -44.5685 C.ar      10 UNK        -0.0894 
     13 C13        20.4909  -28.4441  -45.5260 C.ar      10 UNK        -0.0745 
     14 C14        19.3429  -28.5458  -46.3172 C.ar      10 UNK        -0.0972 
     15 C15        21.4383  -27.2709  -45.7214 C.3       10 UNK         0.0209 
     16 S16        20.8709  -25.7969  -44.8125 S.3       10 UNK        -0.2568 
     17 C17        21.5028  -26.1368  -43.1355 C.3       10 UNK        -0.0983 
     18 CA         20.4411  -25.9364  -42.0263 C.3       3 UNK         0.0876 
     19 N          19.3080  -26.8446  -42.2189 N.am      3 UNK        -0.4424 
     20 C          18.1489  -26.8147  -41.5503 C.2       2 UNK         0.4918 
     21 O          17.8784  -26.0030  -40.6630 O.2       2 UNK        -0.4875 
     22 CA         17.1039  -27.8453  -42.0175 C.3       2 UNK         0.0481 
     23 CB         15.8010  -27.8173  -41.1910 C.3       2 UNK        -0.1831 
     24 N          16.8329  -27.7061  -43.4537 N.am      2 UNK        -0.4498 
     25 C          16.3235  -26.6359  -44.0831 C.2       1 UNK         0.5027 
     26 O          15.8924  -25.6302  -43.5104 O.2       1 UNK        -0.4969 
     27 C          21.0922  -26.0782  -40.6312 C.2       3 UNK         0.5005 
     28 O          20.8716  -27.0668  -39.9275 O.2       3 UNK        -0.5279 
     29 N          21.9272  -25.0939  -40.2698 N.am      4 UNK        -0.4463 
     30 CA         22.7039  -25.0749  -39.0244 C.3       4 UNK         0.0283 
     31 CB         23.2413  -23.6533  -38.7903 C.3       4 UNK        -0.1875 
     32 C          23.8597  -26.0955  -38.9877 C.2       4 UNK         0.4949 
     33 O          24.3550  -26.3976  -37.9017 O.2       4 UNK        -0.5039 
     34 N          24.2692  -26.6099  -40.1524 N.am      5 UNK        -0.4663 
     35 CA         25.3235  -27.6049  -40.3293 C.3       5 UNK         0.0242 
     36 CB         26.6977  -26.9041  -40.3156 C.3       5 UNK        -0.1982 
     37 C          25.0842  -28.3642  -41.6440 C.2       5 UNK         0.5017 
     38 O          24.1674  -28.0111  -42.3888 O.2       5 UNK        -0.5012 
     39 N          25.9480  -29.3551  -41.9059 N.am      6 UNK        -0.4439 
     40 CA         26.0068  -30.2509  -43.0692 C.3       6 UNK         0.0297 
     41 CB         25.9276  -29.4914  -44.4102 C.3       6 UNK        -0.2006 
     42 C          24.9778  -31.3918  -43.0102 C.2       6 UNK         0.4892 
     43 O          23.8467  -31.2020  -42.5576 O.2       6 UNK        -0.5089 
     44 N          25.4111  -32.5658  -43.4947 N.am      7 UNK        -0.4243 
     45 CA         24.6861  -33.8409  -43.5146 C.3       7 UNK         0.0196 
     46 CB         23.5543  -33.8031  -44.5677 C.3       7 UNK        -0.2007 
     47 C          24.2381  -34.2556  -42.0984 C.2       7 UNK         0.5020 
     48 O          25.0694  -34.2762  -41.1892 O.2       7 UNK        -0.5147 
     49 N          22.9493  -34.5706  -41.9278 N.am      8 UNK        -0.4734 
     50 CA         22.3373  -34.8940  -40.6358 C.3       8 UNK         0.0238 
     51 CB         21.1220  -35.8043  -40.8860 C.3       8 UNK        -0.1912 
     52 C          21.9185  -33.6486  -39.8290 C.2       8 UNK         0.5038 
     53 O          21.5041  -33.8027  -38.6787 O.2       8 UNK        -0.5046 
     54 N          21.9896  -32.4598  -40.4406 N.am      9 UNK        -0.4200 
     55 CA         21.5452  -31.1820  -39.8683 C.3       9 UNK         0.0839 
     56 C          22.6928  -30.4466  -39.1168 C.2       9 UNK         0.5513 
     57 N          22.4915  -29.1980  -38.7205 N.am      9 UNK        -0.7519 
     58 O          23.7597  -30.9975  -38.8514 O.2       9 UNK        -0.4960 
     59 C59        20.8368  -30.3038  -40.9366 C.3       10 UNK        -0.0876 
     60 S60        19.4421  -31.1658  -41.7404 S.3       10 UNK        -0.2414 
     61 C61        20.1603  -31.5746  -43.3578 C.3       10 UNK         0.0169 
     62 H62        15.7995  -22.8961  -46.8126 H         1 UNK         0.0903 
     63 H63        17.2651  -22.9010  -47.7960 H         1 UNK         0.0903 
     64 H64        15.7106  -23.3138  -48.5249 H         1 UNK         0.0903 
     65 H65        15.7189  -24.7004  -45.4430 H         1 UNK         0.3096 
     66 H66        17.3245  -26.9828  -45.9141 H         1 UNK         0.1121 
     67 H67        14.2967  -27.4764  -45.8296 H         1 UNK         0.0849 
     68 H68        15.2133  -27.5214  -47.3037 H         1 UNK         0.0849 
     69 H69        17.1326  -30.6922  -47.4223 H         1 UNK         0.0865 
     70 H70        17.1936  -28.9918  -47.8048 H         1 UNK         0.0865 
     71 H71        18.0215  -31.3861  -45.0168 H         1 UNK         0.1346 
     72 H72        21.6597  -29.3685  -43.9715 H         1 UNK         0.1412 
     73 H73        19.1495  -27.7942  -47.0716 H         1 UNK         0.1426 
     74 H74        21.4989  -27.0250  -46.7826 H         1 UNK         0.0716 
     75 H75        22.4524  -27.5328  -45.4141 H         1 UNK         0.0716 
     76 H76        22.3647  -25.4847  -42.9835 H         1 UNK         0.0695 
     77 H77        21.8847  -27.1563  -43.0941 H         1 UNK         0.0695 
     78 H78        20.0510  -24.9186  -42.0965 H         1 UNK         0.0983 
     79 H79        19.4283  -27.5397  -42.9404 H         1 UNK         0.3095 
     80 H80        17.5532  -28.8296  -41.8832 H         1 UNK         0.0454 
     81 H81        16.0061  -28.0259  -40.1405 H         1 UNK         0.0851 
     82 H82        15.3058  -26.8472  -41.2356 H         1 UNK         0.0851 
     83 H83        15.0950  -28.5709  -41.5394 H         1 UNK         0.0851 
     84 H84        17.1221  -28.4888  -44.0271 H         1 UNK         0.2976 
     85 H85        22.0642  -24.3130  -40.8964 H         1 UNK         0.3116 
     86 H86        22.0294  -25.3223  -38.2017 H         1 UNK         0.0646 
     87 H87        23.7940  -23.5949  -37.8514 H         1 UNK         0.0847 
     88 H88        22.4317  -22.9257  -38.7311 H         1 UNK         0.0847 
     89 H89        23.9193  -23.3410  -39.5855 H         1 UNK         0.0847 
     90 H90        23.7663  -26.3881  -41.0020 H         1 UNK         0.3040 
     91 H91        25.2717  -28.3304  -39.5143 H         1 UNK         0.1015 
     92 H92        26.8562  -26.3573  -39.3859 H         1 UNK         0.0786 
     93 H93        26.7926  -26.1949  -41.1389 H         1 UNK         0.0786 
     94 H94        27.5151  -27.6202  -40.4044 H         1 UNK         0.0786 
     95 H95        26.6372  -29.5568  -41.1949 H         1 UNK         0.3172 
     96 H96        26.9986  -30.7032  -43.0155 H         1 UNK         0.0595 
     97 H97        26.6319  -28.6602  -44.4416 H         1 UNK         0.0839 
     98 H98        24.9289  -29.0955  -44.5974 H         1 UNK         0.0839 
     99 H99        26.1674  -30.1519  -45.2442 H         1 UNK         0.0839 
    100 H100       26.3657  -32.6136  -43.8229 H         1 UNK         0.2998 
    101 H101       25.4037  -34.5988  -43.8326 H         1 UNK         0.0822 
    102 H102       23.9507  -33.5543  -45.5523 H         1 UNK         0.0787 
    103 H103       23.0641  -34.7728  -44.6634 H         1 UNK         0.0787 
    104 H104       22.7928  -33.0615  -44.3299 H         1 UNK         0.0787 
    105 H105       22.3332  -34.5301  -42.7272 H         1 UNK         0.3055 
    106 H106       23.0565  -35.4449  -40.0251 H         1 UNK         0.1106 
    107 H107       20.3544  -35.3005  -41.4749 H         1 UNK         0.0828 
    108 H108       21.4086  -36.7146  -41.4130 H         1 UNK         0.0828 
    109 H109       20.6613  -36.1100  -39.9455 H         1 UNK         0.0828 
    110 H110       22.4456  -32.3944  -41.3415 H         1 UNK         0.2931 
    111 H111       20.7994  -31.3982  -39.1011 H         1 UNK         0.0412 
    112 H112       23.2219  -28.7292  -38.2084 H         1 UNK         0.3472 
    113 H113       21.6715  -28.6711  -39.0014 H         1 UNK         0.3472 
    114 H114       21.5501  -29.9400  -41.6776 H         1 UNK         0.0970 
    115 H115       20.4058  -29.4217  -40.4693 H         1 UNK         0.0970 
    116 H116       21.2340  -31.7312  -43.2600 H         1 UNK         0.0612 
    117 H117       19.7445  -32.5254  -43.6944 H         1 UNK         0.0612 
@<TRIPOS>BOND
     1    1    2 1    
     2    1   62 1    
     3    1   63 1    
     4    1   64 1    
     5    2    3 2    
     6    2    4 am   BACKBONE|DICT|INTERRES
     7    4    5 1    
     8    4   65 1    
     9    5    6 1    
    10    5   25 1    
    11    5   66 1    
    12    6    7 1    
    13    6   67 1    
    14    6   68 1    
    15    7    8 1    
    16    8    9 1    
    17    8   69 1    
    18    8   70 1    
    19    9   10 ar   
    20    9   14 ar   
    21   10   11 ar   
    22   10   71 1    
    23   11   12 ar   
    24   11   61 1    
    25   12   13 ar   
    26   12   72 1    
    27   13   14 ar   
    28   13   15 1    
    29   14   73 1    
    30   15   16 1    
    31   15   74 1    
    32   15   75 1    
    33   16   17 1    
    34   17   18 1    
    35   17   76 1    
    36   17   77 1    
    37   18   19 1    
    38   18   27 1    
    39   18   78 1    
    40   19   20 am   BACKBONE|DICT|INTERRES
    41   19   79 1    
    42   20   21 2    
    43   20   22 1    
    44   22   23 1    
    45   22   24 1    
    46   22   80 1    
    47   23   81 1    
    48   23   82 1    
    49   23   83 1    
    50   24   25 am   BACKBONE|DICT|INTERRES
    51   24   84 1    
    52   25   26 2    
    53   27   28 2    
    54   27   29 am   BACKBONE|DICT|INTERRES
    55   29   30 1    
    56   29   85 1    
    57   30   31 1    
    58   30   32 1    
    59   30   86 1    
    60   31   87 1    
    61   31   88 1    
    62   31   89 1    
    63   32   33 2    
    64   32   34 am   BACKBONE|DICT|INTERRES
    65   34   35 1    
    66   34   90 1    
    67   35   36 1    
    68   35   37 1    
    69   35   91 1    
    70   36   92 1    
    71   36   93 1    
    72   36   94 1    
    73   37   38 2    
    74   37   39 am   BACKBONE|DICT|INTERRES
    75   39   40 1    
    76   39   95 1    
    77   40   41 1    
    78   40   42 1    
    79   40   96 1    
    80   41   97 1    
    81   41   98 1    
    82   41   99 1    
    83   42   43 2    
    84   42   44 am   BACKBONE|DICT|INTERRES
    85   44   45 1    
    86   44  100 1    
    87   45   46 1    
    88   45   47 1    
    89   45  101 1    
    90   46  102 1    
    91   46  103 1    
    92   46  104 1    
    93   47   48 2    
    94   47   49 am   BACKBONE|DICT|INTERRES
    95   49   50 1    
    96   49  105 1    
    97   50   51 1    
    98   50   52 1    
    99   50  106 1    
   100   51  107 1    
   101   51  108 1    
   102   51  109 1    
   103   52   53 2    
   104   52   54 am   BACKBONE|DICT|INTERRES
   105   54   55 1    
   106   54  110 1    
   107   55   56 1    
   108   55   59 1    
   109   55  111 1    
   110   56   57 am   BACKBONE|DICT|INTERRES
   111   56   58 2    
   112   57  112 1    
   113   57  113 1    
   114   59   60 1    
   115   59  114 1    
   116   59  115 1    
   117   60   61 1    
   118   61  116 1    
   119   61  117 1    
@<TRIPOS>SUBSTRUCTURE
     1 UNK         1 GROUP             0       ****    0 ROOT    
