@<TRIPOS>MOLECULE
3R8
117   119    1
SMALL
USER_CHARGES


@<TRIPOS>ATOM
      1 CA         16.8133  -23.5850  -47.6425 C.3       0 UNK        -0.2013 
      2 C          17.5283  -24.6499  -46.8253 C.2       0 UNK         0.4866 
      3 O          18.4514  -25.2924  -47.3270 O.2       0 UNK        -0.5176 
      4 N          17.1239  -24.8354  -45.5624 N.am      1 UNK        -0.4884 
      5 CA         17.6532  -25.8325  -44.6209 C.3       1 UNK         0.0853 
      6 C6         16.6228  -26.1641  -43.5067 C.3       10 UNK        -0.0849 
      7 S7         15.1440  -27.0005  -44.1778 S.3       10 UNK        -0.2776 
      8 C8         15.0125  -28.4933  -43.1257 C.3       10 UNK         0.0316 
      9 C9         16.2600  -29.3762  -43.1208 C.ar      10 UNK        -0.0863 
     10 C10        16.7214  -29.9193  -41.9158 C.ar      10 UNK        -0.1009 
     11 C11        17.8769  -30.7070  -41.8839 C.ar      10 UNK        -0.0712 
     12 C12        18.5717  -30.9541  -43.0697 C.ar      10 UNK        -0.0894 
     13 C13        18.1072  -30.4436  -44.2823 C.ar      10 UNK        -0.0745 
     14 C14        16.9483  -29.6630  -44.3046 C.ar      10 UNK        -0.0972 
     15 C15        18.8543  -30.7331  -45.5713 C.3       10 UNK         0.0209 
     16 S16        19.9648  -29.3634  -46.0060 S.3       10 UNK        -0.2568 
     17 C17        21.4657  -29.7339  -45.0236 C.3       10 UNK        -0.0983 
     18 CA         21.8788  -28.6360  -44.0016 C.3       3 UNK         0.0876 
     19 N          21.5888  -27.2914  -44.4943 N.am      3 UNK        -0.4424 
     20 C          22.0684  -26.1366  -44.0225 C.2       2 UNK         0.4918 
     21 O          22.9167  -26.0614  -43.1341 O.2       2 UNK        -0.4875 
     22 CA         21.4034  -24.8623  -44.5764 C.3       2 UNK         0.0481 
     23 CB         22.1637  -24.3475  -45.8070 C.3       2 UNK        -0.1831 
     24 N          19.9902  -25.0800  -44.9227 N.am      2 UNK        -0.4498 
     25 C          19.0342  -25.4308  -44.0493 C.2       1 UNK         0.5027 
     26 O          19.2413  -25.4893  -42.8372 O.2       1 UNK        -0.4969 
     27 C          21.3796  -28.9136  -42.5627 C.2       3 UNK         0.5005 
     28 O          21.7564  -29.9475  -42.0123 O.2       3 UNK        -0.5279 
     29 N          20.6092  -28.0054  -41.9415 N.am      4 UNK        -0.4463 
     30 CA         20.3277  -28.0399  -40.5016 C.3       4 UNK         0.0283 
     31 CB         18.9769  -27.3682  -40.2105 C.3       4 UNK        -0.1875 
     32 C          21.4399  -27.3778  -39.6709 C.2       4 UNK         0.4949 
     33 O          21.5857  -27.7166  -38.4968 O.2       4 UNK        -0.5039 
     34 N          22.1912  -26.4460  -40.2739 N.am      5 UNK        -0.4663 
     35 CA         23.2768  -25.7094  -39.6234 C.3       5 UNK         0.0242 
     36 CB         23.2552  -24.2507  -40.1098 C.3       5 UNK        -0.1982 
     37 C          24.6513  -26.3408  -39.8913 C.2       5 UNK         0.5017 
     38 O          25.5176  -26.2637  -39.0200 O.2       5 UNK        -0.5012 
     39 N          24.8291  -26.9263  -41.0860 N.am      6 UNK        -0.4439 
     40 CA         26.0751  -27.5285  -41.5757 C.3       6 UNK         0.0297 
     41 CB         25.8930  -28.0667  -43.0069 C.3       6 UNK        -0.2006 
     42 C          26.7435  -28.5715  -40.6473 C.2       6 UNK         0.4892 
     43 O          27.9349  -28.4179  -40.3823 O.2       6 UNK        -0.5089 
     44 N          26.0563  -29.5996  -40.1256 N.am      7 UNK        -0.4243 
     45 CA         24.7213  -30.0920  -40.4651 C.3       7 UNK         0.0196 
     46 CB         23.9261  -30.3087  -39.1681 C.3       7 UNK        -0.2007 
     47 C          24.8536  -31.4118  -41.2407 C.2       7 UNK         0.5020 
     48 O          25.8670  -32.1041  -41.1185 O.2       7 UNK        -0.5147 
     49 N          23.8181  -31.7399  -42.0155 N.am      8 UNK        -0.4734 
     50 CA         23.7394  -32.9151  -42.8814 C.3       8 UNK         0.0238 
     51 CB         24.3384  -32.5821  -44.2629 C.3       8 UNK        -0.1912 
     52 C          22.2873  -33.4136  -42.9525 C.2       8 UNK         0.5038 
     53 O          21.7564  -33.6175  -44.0460 O.2       8 UNK        -0.5046 
     54 N          21.6612  -33.5720  -41.7794 N.am      9 UNK        -0.4200 
     55 CA         20.3048  -34.1184  -41.6217 C.3       9 UNK         0.0839 
     56 C          20.2222  -35.6450  -41.9027 C.2       9 UNK         0.5513 
     57 N          19.0278  -36.1582  -42.1620 N.am      9 UNK        -0.7519 
     58 O          21.2145  -36.3699  -41.8545 O.2       9 UNK        -0.4960 
     59 C59        19.6998  -33.7388  -40.2383 C.3       10 UNK        -0.0876 
     60 S60        18.0199  -33.0384  -40.3876 S.3       10 UNK        -0.2414 
     61 C61        18.3968  -31.2657  -40.5685 C.3       10 UNK         0.0169 
     62 H62        17.5208  -22.8214  -47.9646 H         1 UNK         0.0903 
     63 H63        16.3665  -24.0319  -48.5301 H         1 UNK         0.0903 
     64 H64        16.0220  -23.0969  -47.0738 H         1 UNK         0.0903 
     65 H65        16.3696  -24.2672  -45.2029 H         1 UNK         0.3096 
     66 H66        17.8327  -26.7563  -45.1767 H         1 UNK         0.1121 
     67 H67        16.3127  -25.2579  -42.9835 H         1 UNK         0.0849 
     68 H68        17.0668  -26.8086  -42.7471 H         1 UNK         0.0849 
     69 H69        14.7688  -28.1733  -42.1113 H         1 UNK         0.0865 
     70 H70        14.1667  -29.0900  -43.4694 H         1 UNK         0.0865 
     71 H71        16.1896  -29.7177  -40.9959 H         1 UNK         0.1346 
     72 H72        19.4810  -31.5372  -43.0479 H         1 UNK         0.1412 
     73 H73        16.5927  -29.2638  -45.2447 H         1 UNK         0.1426 
     74 H74        18.1380  -30.8729  -46.3822 H         1 UNK         0.0716 
     75 H75        19.4152  -31.6666  -45.4995 H         1 UNK         0.0716 
     76 H76        21.3757  -30.7134  -44.5506 H         1 UNK         0.0695 
     77 H77        22.2735  -29.8506  -45.7476 H         1 UNK         0.0695 
     78 H78        22.9653  -28.6927  -43.9166 H         1 UNK         0.0983 
     79 H79        20.8937  -27.2562  -45.2270 H         1 UNK         0.3095 
     80 H80        21.4477  -24.0981  -43.7978 H         1 UNK         0.0454 
     81 H81        21.7456  -23.4070  -46.1661 H         1 UNK         0.0851 
     82 H82        23.2125  -24.1644  -45.5687 H         1 UNK         0.0851 
     83 H83        22.1357  -25.0628  -46.6300 H         1 UNK         0.0851 
     84 H84        19.7343  -25.0597  -45.9069 H         1 UNK         0.2976 
     85 H85        20.2884  -27.1832  -42.4412 H         1 UNK         0.3116 
     86 H86        20.2597  -29.0751  -40.1704 H         1 UNK         0.0646 
     87 H87        19.0087  -26.2933  -40.3887 H         1 UNK         0.0847 
     88 H88        18.6916  -27.5120  -39.1677 H         1 UNK         0.0847 
     89 H89        18.1818  -27.7880  -40.8238 H         1 UNK         0.0847 
     90 H90        22.0319  -26.2410  -41.2523 H         1 UNK         0.3040 
     91 H91        23.1239  -25.7032  -38.5416 H         1 UNK         0.1015 
     92 H92        22.3037  -23.7712  -39.8793 H         1 UNK         0.0786 
     93 H93        23.4148  -24.1775  -41.1863 H         1 UNK         0.0786 
     94 H94        24.0379  -23.6663  -39.6240 H         1 UNK         0.0786 
     95 H95        24.0769  -26.8373  -41.7611 H         1 UNK         0.3172 
     96 H96        26.7797  -26.6975  -41.6489 H         1 UNK         0.0595 
     97 H97        25.5526  -27.2830  -43.6843 H         1 UNK         0.0839 
     98 H98        25.1794  -28.8866  -43.0606 H         1 UNK         0.0839 
     99 H99        26.8389  -28.4412  -43.4007 H         1 UNK         0.0839 
    100 H100       26.5844  -30.2468  -39.5580 H         1 UNK         0.2998 
    101 H101       24.1762  -29.3830  -41.0825 H         1 UNK         0.0822 
    102 H102       24.3800  -31.0719  -38.5346 H         1 UNK         0.0787 
    103 H103       23.8614  -29.3878  -38.5881 H         1 UNK         0.0787 
    104 H104       22.9043  -30.6241  -39.3844 H         1 UNK         0.0787 
    105 H105       22.9957  -31.1301  -42.0164 H         1 UNK         0.3055 
    106 H106       24.3208  -33.7303  -42.4441 H         1 UNK         0.1106 
    107 H107       25.3824  -32.2797  -44.1806 H         1 UNK         0.0828 
    108 H108       24.3058  -33.4491  -44.9239 H         1 UNK         0.0828 
    109 H109       23.7936  -31.7751  -44.7531 H         1 UNK         0.0828 
    110 H110       22.1807  -33.4007  -40.9318 H         1 UNK         0.2931 
    111 H111       19.7068  -33.6501  -42.4043 H         1 UNK         0.0412 
    112 H112       18.9425  -37.1478  -42.3354 H         1 UNK         0.3472 
    113 H113       18.2068  -35.5721  -42.1757 H         1 UNK         0.3472 
    114 H114       20.3292  -33.0224  -39.7083 H         1 UNK         0.0970 
    115 H115       19.6500  -34.6003  -39.5689 H         1 UNK         0.0970 
    116 H116       17.9734  -30.7220  -39.7228 H         1 UNK         0.0612 
    117 H117       19.4739  -31.1091  -40.5261 H         1 UNK         0.0612 
@<TRIPOS>BOND
     1    1    2 1    
     2    1   62 1    
     3    1   63 1    
     4    1   64 1    
     5    2    3 2    
     6    2    4 am   BACKBONE|DICT|INTERRES
     7    4    5 1    
     8    4   65 1    
     9    5    6 1    
    10    5   25 1    
    11    5   66 1    
    12    6    7 1    
    13    6   67 1    
    14    6   68 1    
    15    7    8 1    
    16    8    9 1    
    17    8   69 1    
    18    8   70 1    
    19    9   10 ar   
    20    9   14 ar   
    21   10   11 ar   
    22   10   71 1    
    23   11   12 ar   
    24   11   61 1    
    25   12   13 ar   
    26   12   72 1    
    27   13   14 ar   
    28   13   15 1    
    29   14   73 1    
    30   15   16 1    
    31   15   74 1    
    32   15   75 1    
    33   16   17 1    
    34   17   18 1    
    35   17   76 1    
    36   17   77 1    
    37   18   19 1    
    38   18   27 1    
    39   18   78 1    
    40   19   20 am   BACKBONE|DICT|INTERRES
    41   19   79 1    
    42   20   21 2    
    43   20   22 1    
    44   22   23 1    
    45   22   24 1    
    46   22   80 1    
    47   23   81 1    
    48   23   82 1    
    49   23   83 1    
    50   24   25 am   BACKBONE|DICT|INTERRES
    51   24   84 1    
    52   25   26 2    
    53   27   28 2    
    54   27   29 am   BACKBONE|DICT|INTERRES
    55   29   30 1    
    56   29   85 1    
    57   30   31 1    
    58   30   32 1    
    59   30   86 1    
    60   31   87 1    
    61   31   88 1    
    62   31   89 1    
    63   32   33 2    
    64   32   34 am   BACKBONE|DICT|INTERRES
    65   34   35 1    
    66   34   90 1    
    67   35   36 1    
    68   35   37 1    
    69   35   91 1    
    70   36   92 1    
    71   36   93 1    
    72   36   94 1    
    73   37   38 2    
    74   37   39 am   BACKBONE|DICT|INTERRES
    75   39   40 1    
    76   39   95 1    
    77   40   41 1    
    78   40   42 1    
    79   40   96 1    
    80   41   97 1    
    81   41   98 1    
    82   41   99 1    
    83   42   43 2    
    84   42   44 am   BACKBONE|DICT|INTERRES
    85   44   45 1    
    86   44  100 1    
    87   45   46 1    
    88   45   47 1    
    89   45  101 1    
    90   46  102 1    
    91   46  103 1    
    92   46  104 1    
    93   47   48 2    
    94   47   49 am   BACKBONE|DICT|INTERRES
    95   49   50 1    
    96   49  105 1    
    97   50   51 1    
    98   50   52 1    
    99   50  106 1    
   100   51  107 1    
   101   51  108 1    
   102   51  109 1    
   103   52   53 2    
   104   52   54 am   BACKBONE|DICT|INTERRES
   105   54   55 1    
   106   54  110 1    
   107   55   56 1    
   108   55   59 1    
   109   55  111 1    
   110   56   57 am   BACKBONE|DICT|INTERRES
   111   56   58 2    
   112   57  112 1    
   113   57  113 1    
   114   59   60 1    
   115   59  114 1    
   116   59  115 1    
   117   60   61 1    
   118   61  116 1    
   119   61  117 1    
@<TRIPOS>SUBSTRUCTURE
     1 UNK         1 GROUP             0       ****    0 ROOT    
