@<TRIPOS>MOLECULE
3R8
117   119    1
SMALL
USER_CHARGES


@<TRIPOS>ATOM
      1 CA         16.8135  -28.6933  -39.6004 C.3       0 UNK        -0.2013 
      2 C          17.4980  -28.4709  -40.9403 C.2       0 UNK         0.4866 
      3 O          16.8214  -28.3161  -41.9578 O.2       0 UNK        -0.5176 
      4 N          18.8378  -28.4420  -40.9493 N.am      1 UNK        -0.4884 
      5 CA         19.6871  -28.2636  -42.1337 C.3       1 UNK         0.0853 
      6 C6         21.0996  -28.8654  -41.8874 C.3       10 UNK        -0.0849 
      7 S7         22.2343  -28.8550  -43.3241 S.3       10 UNK        -0.2776 
      8 C8         22.1136  -30.5581  -43.9541 C.3       10 UNK         0.0316 
      9 C9         20.7389  -30.7938  -44.5492 C.ar      10 UNK        -0.0863 
     10 C10        19.7823  -31.5262  -43.8494 C.ar      10 UNK        -0.1009 
     11 C11        18.4801  -31.6512  -44.3390 C.ar      10 UNK        -0.0712 
     12 C12        18.1431  -31.0303  -45.5498 C.ar      10 UNK        -0.0894 
     13 C13        19.1056  -30.3175  -46.2784 C.ar      10 UNK        -0.0745 
     14 C14        20.4084  -30.2300  -45.7808 C.ar      10 UNK        -0.0972 
     15 C15        18.7504  -29.6638  -47.6105 C.3       10 UNK         0.0209 
     16 S16        18.3520  -27.8877  -47.4480 S.3       10 UNK        -0.2568 
     17 C17        20.0083  -27.1079  -47.4862 C.3       10 UNK        -0.0983 
     18 CA         20.0993  -25.7282  -46.7791 C.3       3 UNK         0.0876 
     19 N          19.3968  -25.7180  -45.5001 N.am      3 UNK        -0.4424 
     20 C          19.0825  -24.6339  -44.7805 C.2       2 UNK         0.4918 
     21 O          19.3498  -23.4806  -45.1180 O.2       2 UNK        -0.4875 
     22 CA         18.3448  -24.8865  -43.4507 C.3       2 UNK         0.0481 
     23 CB         16.8426  -24.6043  -43.6075 C.3       2 UNK        -0.1831 
     24 N          18.5258  -26.2478  -42.9322 N.am      2 UNK        -0.4498 
     25 C          19.6984  -26.7824  -42.5693 C.2       1 UNK         0.5027 
     26 O          20.7503  -26.1461  -42.5888 O.2       1 UNK        -0.4969 
     27 C          21.5821  -25.3089  -46.6522 C.2       3 UNK         0.5005 
     28 O          22.1078  -24.7192  -47.5984 O.2       3 UNK        -0.5279 
     29 N          22.2444  -25.6536  -45.5321 N.am      4 UNK        -0.4463 
     30 CA         23.7048  -25.5409  -45.3957 C.3       4 UNK         0.0283 
     31 CB         24.3690  -26.7944  -46.0007 C.3       4 UNK        -0.1875 
     32 C          24.2298  -25.2947  -43.9688 C.2       4 UNK         0.4949 
     33 O          25.4129  -24.9779  -43.8407 O.2       4 UNK        -0.5039 
     34 N          23.3938  -25.4465  -42.9292 N.am      5 UNK        -0.4663 
     35 CA         23.7316  -25.3404  -41.4992 C.3       5 UNK         0.0242 
     36 CB         24.0938  -23.8868  -41.1250 C.3       5 UNK        -0.1982 
     37 C          24.7904  -26.3683  -41.0437 C.2       5 UNK         0.5017 
     38 O          25.6645  -26.0385  -40.2394 O.2       5 UNK        -0.5012 
     39 N          24.6965  -27.5886  -41.5874 N.am      6 UNK        -0.4439 
     40 CA         25.6319  -28.6912  -41.3802 C.3       6 UNK         0.0297 
     41 CB         26.0275  -29.2689  -42.7566 C.3       6 UNK        -0.2006 
     42 C          25.0408  -29.7294  -40.4073 C.2       6 UNK         0.4892 
     43 O          24.9473  -29.4492  -39.2127 O.2       6 UNK        -0.5089 
     44 N          24.6884  -30.9165  -40.9218 N.am      7 UNK        -0.4243 
     45 CA         24.3732  -32.1401  -40.1706 C.3       7 UNK         0.0196 
     46 CB         24.3956  -33.3238  -41.1549 C.3       7 UNK        -0.2007 
     47 C          23.0598  -32.1448  -39.3618 C.2       7 UNK         0.5020 
     48 O          22.7745  -33.1493  -38.7087 O.2       7 UNK        -0.5147 
     49 N          22.2600  -31.0714  -39.4408 N.am      8 UNK        -0.4734 
     50 CA         20.9745  -30.8711  -38.7435 C.3       8 UNK         0.0238 
     51 CB         21.2061  -30.7225  -37.2247 C.3       8 UNK        -0.1912 
     52 C          19.8943  -31.9292  -39.0696 C.2       8 UNK         0.5038 
     53 O          18.9950  -32.1523  -38.2580 O.2       8 UNK        -0.5046 
     54 N          20.0159  -32.5610  -40.2450 N.am      9 UNK        -0.4200 
     55 CA         19.2216  -33.7092  -40.7196 C.3       9 UNK         0.0839 
     56 C          19.4985  -35.0352  -39.9456 C.2       9 UNK         0.5513 
     57 N          20.5758  -35.1478  -39.1759 N.am      9 UNK        -0.7519 
     58 O          18.7420  -35.9954  -40.0680 O.2       9 UNK        -0.4960 
     59 C59        17.6975  -33.4191  -40.8803 C.3       10 UNK        -0.0876 
     60 S60        17.3012  -31.9101  -41.8306 S.3       10 UNK        -0.2414 
     61 C61        17.4521  -32.4673  -43.5617 C.3       10 UNK         0.0169 
     62 H62        17.5305  -28.8276  -38.7908 H         1 UNK         0.0903 
     63 H63        16.1779  -27.8425  -39.3565 H         1 UNK         0.0903 
     64 H64        16.1883  -29.5847  -39.6471 H         1 UNK         0.0903 
     65 H65        19.3244  -28.4829  -40.0671 H         1 UNK         0.3096 
     66 H66        19.2365  -28.8225  -42.9575 H         1 UNK         0.1121 
     67 H67        21.5932  -28.3413  -41.0671 H         1 UNK         0.0849 
     68 H68        20.9864  -29.8989  -41.5647 H         1 UNK         0.0849 
     69 H69        22.3298  -31.2691  -43.1556 H         1 UNK         0.0865 
     70 H70        22.8757  -30.7121  -44.7196 H         1 UNK         0.0865 
     71 H71        20.0434  -31.9769  -42.9060 H         1 UNK         0.1346 
     72 H72        17.1351  -31.1125  -45.9330 H         1 UNK         0.1412 
     73 H73        21.1735  -29.7062  -46.3325 H         1 UNK         0.1426 
     74 H74        17.8891  -30.1700  -48.0489 H         1 UNK         0.0716 
     75 H75        19.5670  -29.7929  -48.3227 H         1 UNK         0.0716 
     76 H76        20.3077  -27.0093  -48.5313 H         1 UNK         0.0695 
     77 H77        20.7249  -27.7916  -47.0404 H         1 UNK         0.0695 
     78 H78        19.6082  -24.9909  -47.4183 H         1 UNK         0.0983 
     79 H79        19.0874  -26.6177  -45.1645 H         1 UNK         0.3095 
     80 H80        18.7509  -24.1916  -42.7130 H         1 UNK         0.0454 
     81 H81        16.6708  -23.5877  -43.9640 H         1 UNK         0.0851 
     82 H82        16.3180  -24.7055  -42.6572 H         1 UNK         0.0851 
     83 H83        16.3769  -25.2839  -44.3224 H         1 UNK         0.0851 
     84 H84        17.6981  -26.8312  -42.8350 H         1 UNK         0.2976 
     85 H85        21.7405  -26.1168  -44.7880 H         1 UNK         0.3116 
     86 H86        24.0414  -24.6739  -45.9683 H         1 UNK         0.0646 
     87 H87        24.1309  -26.9012  -47.0590 H         1 UNK         0.0847 
     88 H88        24.0490  -27.7039  -45.4921 H         1 UNK         0.0847 
     89 H89        25.4559  -26.7437  -45.9223 H         1 UNK         0.0847 
     90 H90        22.4218  -25.7000  -43.0903 H         1 UNK         0.3040 
     91 H91        22.8223  -25.5958  -40.9529 H         1 UNK         0.1015 
     92 H92        24.2078  -23.7778  -40.0458 H         1 UNK         0.0786 
     93 H93        23.3146  -23.1922  -41.4385 H         1 UNK         0.0786 
     94 H94        25.0309  -23.5701  -41.5835 H         1 UNK         0.0786 
     95 H95        23.9229  -27.7692  -42.2156 H         1 UNK         0.3172 
     96 H96        26.5473  -28.3201  -40.9148 H         1 UNK         0.0595 
     97 H97        26.7346  -30.0933  -42.6525 H         1 UNK         0.0839 
     98 H98        26.5183  -28.5093  -43.3658 H         1 UNK         0.0839 
     99 H99        25.1693  -29.6303  -43.3235 H         1 UNK         0.0839 
    100 H100       24.7937  -31.0322  -41.9190 H         1 UNK         0.2998 
    101 H101       25.1758  -32.2902  -39.4455 H         1 UNK         0.0822 
    102 H102       24.2352  -34.2717  -40.6389 H         1 UNK         0.0787 
    103 H103       25.3567  -33.4001  -41.6639 H         1 UNK         0.0787 
    104 H104       23.6185  -33.2326  -41.9146 H         1 UNK         0.0787 
    105 H105       22.6089  -30.2883  -39.9748 H         1 UNK         0.3055 
    106 H106       20.5742  -29.9223  -39.0973 H         1 UNK         0.1106 
    107 H107       21.9567  -29.9617  -37.0102 H         1 UNK         0.0828 
    108 H108       20.2903  -30.4237  -36.7130 H         1 UNK         0.0828 
    109 H109       21.5388  -31.6577  -36.7732 H         1 UNK         0.0828 
    110 H110       20.8181  -32.3284  -40.8084 H         1 UNK         0.2931 
    111 H111       19.6022  -33.9136  -41.7203 H         1 UNK         0.0412 
    112 H112       21.2273  -34.3786  -39.0599 H         1 UNK         0.3472 
    113 H113       20.7426  -36.0167  -38.6936 H         1 UNK         0.3472 
    114 H114       17.2324  -33.3215  -39.8983 H         1 UNK         0.0970 
    115 H115       17.1953  -34.2627  -41.3573 H         1 UNK         0.0970 
    116 H116       17.7399  -33.5185  -43.5983 H         1 UNK         0.0612 
    117 H117       16.4700  -32.3986  -44.0316 H         1 UNK         0.0612 
@<TRIPOS>BOND
     1    1    2 1    
     2    1   62 1    
     3    1   63 1    
     4    1   64 1    
     5    2    3 2    
     6    2    4 am   BACKBONE|DICT|INTERRES
     7    4    5 1    
     8    4   65 1    
     9    5    6 1    
    10    5   25 1    
    11    5   66 1    
    12    6    7 1    
    13    6   67 1    
    14    6   68 1    
    15    7    8 1    
    16    8    9 1    
    17    8   69 1    
    18    8   70 1    
    19    9   10 ar   
    20    9   14 ar   
    21   10   11 ar   
    22   10   71 1    
    23   11   12 ar   
    24   11   61 1    
    25   12   13 ar   
    26   12   72 1    
    27   13   14 ar   
    28   13   15 1    
    29   14   73 1    
    30   15   16 1    
    31   15   74 1    
    32   15   75 1    
    33   16   17 1    
    34   17   18 1    
    35   17   76 1    
    36   17   77 1    
    37   18   19 1    
    38   18   27 1    
    39   18   78 1    
    40   19   20 am   BACKBONE|DICT|INTERRES
    41   19   79 1    
    42   20   21 2    
    43   20   22 1    
    44   22   23 1    
    45   22   24 1    
    46   22   80 1    
    47   23   81 1    
    48   23   82 1    
    49   23   83 1    
    50   24   25 am   BACKBONE|DICT|INTERRES
    51   24   84 1    
    52   25   26 2    
    53   27   28 2    
    54   27   29 am   BACKBONE|DICT|INTERRES
    55   29   30 1    
    56   29   85 1    
    57   30   31 1    
    58   30   32 1    
    59   30   86 1    
    60   31   87 1    
    61   31   88 1    
    62   31   89 1    
    63   32   33 2    
    64   32   34 am   BACKBONE|DICT|INTERRES
    65   34   35 1    
    66   34   90 1    
    67   35   36 1    
    68   35   37 1    
    69   35   91 1    
    70   36   92 1    
    71   36   93 1    
    72   36   94 1    
    73   37   38 2    
    74   37   39 am   BACKBONE|DICT|INTERRES
    75   39   40 1    
    76   39   95 1    
    77   40   41 1    
    78   40   42 1    
    79   40   96 1    
    80   41   97 1    
    81   41   98 1    
    82   41   99 1    
    83   42   43 2    
    84   42   44 am   BACKBONE|DICT|INTERRES
    85   44   45 1    
    86   44  100 1    
    87   45   46 1    
    88   45   47 1    
    89   45  101 1    
    90   46  102 1    
    91   46  103 1    
    92   46  104 1    
    93   47   48 2    
    94   47   49 am   BACKBONE|DICT|INTERRES
    95   49   50 1    
    96   49  105 1    
    97   50   51 1    
    98   50   52 1    
    99   50  106 1    
   100   51  107 1    
   101   51  108 1    
   102   51  109 1    
   103   52   53 2    
   104   52   54 am   BACKBONE|DICT|INTERRES
   105   54   55 1    
   106   54  110 1    
   107   55   56 1    
   108   55   59 1    
   109   55  111 1    
   110   56   57 am   BACKBONE|DICT|INTERRES
   111   56   58 2    
   112   57  112 1    
   113   57  113 1    
   114   59   60 1    
   115   59  114 1    
   116   59  115 1    
   117   60   61 1    
   118   61  116 1    
   119   61  117 1    
@<TRIPOS>SUBSTRUCTURE
     1 UNK         1 GROUP             0       ****    0 ROOT    
