@<TRIPOS>MOLECULE
3R8
117   119    1
SMALL
USER_CHARGES


@<TRIPOS>ATOM
      1 CA         19.8303  -23.3072  -48.0276 C.3       0 UNK        -0.2013 
      2 C          18.9159  -24.5248  -48.1388 C.2       0 UNK         0.4866 
      3 O          18.0141  -24.5272  -48.9747 O.2       0 UNK        -0.5176 
      4 N          19.1083  -25.5841  -47.3414 N.am      1 UNK        -0.4884 
      5 CA         20.0857  -25.7120  -46.2533 C.3       1 UNK         0.0853 
      6 C6         20.2483  -27.1837  -45.7824 C.3       10 UNK        -0.0849 
      7 S7         20.5633  -28.4093  -47.0985 S.3       10 UNK        -0.2776 
      8 C8         18.9397  -29.2261  -47.3013 C.3       10 UNK         0.0316 
      9 C9         18.3805  -29.8025  -46.0036 C.ar      10 UNK        -0.0863 
     10 C10        18.9073  -30.9772  -45.4580 C.ar      10 UNK        -0.1009 
     11 C11        18.3869  -31.5091  -44.2716 C.ar      10 UNK        -0.0712 
     12 C12        17.3304  -30.8538  -43.6302 C.ar      10 UNK        -0.0894 
     13 C13        16.7915  -29.6813  -44.1690 C.ar      10 UNK        -0.0745 
     14 C14        17.3146  -29.1677  -45.3586 C.ar      10 UNK        -0.0972 
     15 C15        15.6253  -28.9777  -43.4898 C.3       10 UNK         0.0209 
     16 S16        16.1134  -27.3709  -42.7844 S.3       10 UNK        -0.2568 
     17 C17        17.0938  -27.8795  -41.3334 C.3       10 UNK        -0.0983 
     18 CA         18.6187  -27.7327  -41.5548 C.3       3 UNK         0.0876 
     19 N          18.9980  -26.3625  -41.9214 N.am      3 UNK        -0.4424 
     20 C          20.2414  -25.9082  -42.1295 C.2       2 UNK         0.4918 
     21 O          21.2697  -26.5821  -42.0042 O.2       2 UNK        -0.4875 
     22 CA         20.3490  -24.4842  -42.6972 C.3       2 UNK         0.0481 
     23 CB         21.4647  -23.6733  -42.0170 C.3       2 UNK        -0.1831 
     24 N          20.6284  -24.6351  -44.1247 N.am      2 UNK        -0.4498 
     25 C          19.6652  -24.8822  -45.0225 C.2       1 UNK         0.5027 
     26 O          18.4782  -24.5961  -44.8458 O.2       1 UNK        -0.4969 
     27 C          19.3804  -28.2172  -40.3088 C.2       3 UNK         0.5005 
     28 O          19.4372  -27.4896  -39.3137 O.2       3 UNK        -0.5279 
     29 N          19.9813  -29.4111  -40.4062 N.am      4 UNK        -0.4463 
     30 CA         20.8853  -30.0602  -39.4462 C.3       4 UNK         0.0283 
     31 CB         20.1856  -30.3402  -38.1024 C.3       4 UNK        -0.1875 
     32 C          22.2274  -29.3341  -39.2328 C.2       4 UNK         0.4949 
     33 O          23.2623  -29.9978  -39.2263 O.2       4 UNK        -0.5039 
     34 N          22.1932  -28.0062  -39.0697 N.am      5 UNK        -0.4663 
     35 CA         23.3344  -27.1357  -38.7825 C.3       5 UNK         0.0242 
     36 CB         22.8299  -25.7076  -38.5149 C.3       5 UNK        -0.1982 
     37 C          24.4088  -27.1429  -39.8806 C.2       5 UNK         0.5017 
     38 O          25.5717  -27.4164  -39.5812 O.2       5 UNK        -0.5012 
     39 N          24.0024  -26.8486  -41.1227 N.am      6 UNK        -0.4439 
     40 CA         24.8846  -26.8663  -42.2945 C.3       6 UNK         0.0297 
     41 CB         24.5223  -25.7085  -43.2375 C.3       6 UNK        -0.2006 
     42 C          24.7995  -28.2010  -43.0456 C.2       6 UNK         0.4892 
     43 O          25.7915  -28.6239  -43.6395 O.2       6 UNK        -0.5089 
     44 N          23.6175  -28.8311  -43.0166 N.am      7 UNK        -0.4243 
     45 CA         23.3284  -30.0851  -43.7131 C.3       7 UNK         0.0196 
     46 CB         21.8082  -30.2688  -43.7720 C.3       7 UNK        -0.2007 
     47 C          23.9866  -31.3255  -43.0837 C.2       7 UNK         0.5020 
     48 O          24.1504  -32.3267  -43.7798 O.2       7 UNK        -0.5147 
     49 N          24.3133  -31.2550  -41.7837 N.am      8 UNK        -0.4734 
     50 CA         24.8897  -32.3154  -40.9404 C.3       8 UNK         0.0238 
     51 CB         26.2628  -32.7754  -41.4754 C.3       8 UNK        -0.1912 
     52 C          23.9406  -33.5016  -40.6646 C.2       8 UNK         0.5038 
     53 O          24.3830  -34.5075  -40.1076 O.2       8 UNK        -0.5046 
     54 N          22.6587  -33.3633  -41.0266 N.am      9 UNK        -0.4200 
     55 CA         21.5854  -34.3423  -40.7945 C.3       9 UNK         0.0839 
     56 C          21.0054  -34.3572  -39.3487 C.2       9 UNK         0.5513 
     57 N          21.4970  -33.5439  -38.4218 N.am      9 UNK        -0.7519 
     58 O          20.1055  -35.1401  -39.0553 O.2       9 UNK        -0.4960 
     59 C59        20.4858  -34.2546  -41.8882 C.3       10 UNK        -0.0876 
     60 S60        19.7457  -32.5968  -42.0939 S.3       10 UNK        -0.2414 
     61 C61        18.9347  -32.8151  -43.7100 C.3       10 UNK         0.0169 
     62 H62        19.6786  -22.7909  -47.0804 H         1 UNK         0.0903 
     63 H63        20.8787  -23.5894  -48.1156 H         1 UNK         0.0903 
     64 H64        19.6160  -22.5977  -48.8267 H         1 UNK         0.0903 
     65 H65        18.4800  -26.3669  -47.4358 H         1 UNK         0.3096 
     66 H66        21.0547  -25.3561  -46.6083 H         1 UNK         0.1121 
     67 H67        19.3863  -27.4966  -45.1941 H         1 UNK         0.0849 
     68 H68        21.0942  -27.2517  -45.0955 H         1 UNK         0.0849 
     69 H69        18.2362  -28.5172  -47.7397 H         1 UNK         0.0865 
     70 H70        19.0437  -30.0296  -48.0320 H         1 UNK         0.0865 
     71 H71        19.7220  -31.4776  -45.9634 H         1 UNK         0.1346 
     72 H72        16.9228  -31.2670  -42.7176 H         1 UNK         0.1412 
     73 H73        16.8926  -28.2628  -45.7748 H         1 UNK         0.1426 
     74 H74        15.1855  -29.6029  -42.7111 H         1 UNK         0.0716 
     75 H75        14.8368  -28.8106  -44.2249 H         1 UNK         0.0716 
     76 H76        16.8407  -28.9097  -41.0752 H         1 UNK         0.0695 
     77 H77        16.7721  -27.2698  -40.4866 H         1 UNK         0.0695 
     78 H78        18.9020  -28.3653  -42.3993 H         1 UNK         0.0983 
     79 H79        18.2234  -25.7393  -42.0988 H         1 UNK         0.3095 
     80 H80        19.4072  -23.9523  -42.5451 H         1 UNK         0.0454 
     81 H81        22.4318  -24.1695  -42.0694 H         1 UNK         0.0851 
     82 H82        21.2389  -23.5195  -40.9613 H         1 UNK         0.0851 
     83 H83        21.5700  -22.6882  -42.4713 H         1 UNK         0.0851 
     84 H84        21.5756  -24.9002  -44.3525 H         1 UNK         0.2976 
     85 H85        19.8451  -29.9309  -41.2624 H         1 UNK         0.3116 
     86 H86        21.1292  -31.0267  -39.8874 H         1 UNK         0.0646 
     87 H87        19.8854  -29.4243  -37.5933 H         1 UNK         0.0847 
     88 H88        20.8480  -30.8791  -37.4241 H         1 UNK         0.0847 
     89 H89        19.2966  -30.9552  -38.2416 H         1 UNK         0.0847 
     90 H90        21.2738  -27.5699  -39.0990 H         1 UNK         0.3040 
     91 H91        23.8037  -27.5062  -37.8684 H         1 UNK         0.1015 
     92 H92        22.2808  -25.3049  -39.3668 H         1 UNK         0.0786 
     93 H93        23.6599  -25.0301  -38.3093 H         1 UNK         0.0786 
     94 H94        22.1677  -25.6790  -37.6494 H         1 UNK         0.0786 
     95 H95        23.0155  -26.6607  -41.2854 H         1 UNK         0.3172 
     96 H96        25.9225  -26.7262  -41.9845 H         1 UNK         0.0595 
     97 H97        23.4957  -25.7843  -43.5951 H         1 UNK         0.0839 
     98 H98        25.1716  -25.7037  -44.1142 H         1 UNK         0.0839 
     99 H99        24.6448  -24.7443  -42.7444 H         1 UNK         0.0839 
    100 H100       22.8517  -28.3909  -42.5261 H         1 UNK         0.2998 
    101 H101       23.7024  -30.0035  -44.7362 H         1 UNK         0.0822 
    102 H102       21.3312  -29.4793  -44.3490 H         1 UNK         0.0787 
    103 H103       21.5498  -31.2151  -44.2483 H         1 UNK         0.0787 
    104 H104       21.3667  -30.2668  -42.7775 H         1 UNK         0.0787 
    105 H105       24.1074  -30.3952  -41.2893 H         1 UNK         0.3055 
    106 H106       25.0642  -31.8546  -39.9668 H         1 UNK         0.1106 
    107 H107       26.7633  -33.4273  -40.7584 H         1 UNK         0.0828 
    108 H108       26.1716  -33.3335  -42.4074 H         1 UNK         0.0828 
    109 H109       26.9234  -31.9270  -41.6544 H         1 UNK         0.0828 
    110 H110       22.3800  -32.5072  -41.4801 H         1 UNK         0.2931 
    111 H111       22.0362  -35.3300  -40.9090 H         1 UNK         0.0412 
    112 H112       21.1199  -33.5808  -37.4882 H         1 UNK         0.3472 
    113 H113       22.2582  -32.9215  -38.6373 H         1 UNK         0.3472 
    114 H114       20.9250  -34.5508  -42.8421 H         1 UNK         0.0970 
    115 H115       19.6884  -34.9764  -41.7009 H         1 UNK         0.0970 
    116 H116       19.6469  -33.2552  -44.4097 H         1 UNK         0.0612 
    117 H117       18.1195  -33.5325  -43.6063 H         1 UNK         0.0612 
@<TRIPOS>BOND
     1    1    2 1    
     2    1   62 1    
     3    1   63 1    
     4    1   64 1    
     5    2    3 2    
     6    2    4 am   BACKBONE|DICT|INTERRES
     7    4    5 1    
     8    4   65 1    
     9    5    6 1    
    10    5   25 1    
    11    5   66 1    
    12    6    7 1    
    13    6   67 1    
    14    6   68 1    
    15    7    8 1    
    16    8    9 1    
    17    8   69 1    
    18    8   70 1    
    19    9   10 ar   
    20    9   14 ar   
    21   10   11 ar   
    22   10   71 1    
    23   11   12 ar   
    24   11   61 1    
    25   12   13 ar   
    26   12   72 1    
    27   13   14 ar   
    28   13   15 1    
    29   14   73 1    
    30   15   16 1    
    31   15   74 1    
    32   15   75 1    
    33   16   17 1    
    34   17   18 1    
    35   17   76 1    
    36   17   77 1    
    37   18   19 1    
    38   18   27 1    
    39   18   78 1    
    40   19   20 am   BACKBONE|DICT|INTERRES
    41   19   79 1    
    42   20   21 2    
    43   20   22 1    
    44   22   23 1    
    45   22   24 1    
    46   22   80 1    
    47   23   81 1    
    48   23   82 1    
    49   23   83 1    
    50   24   25 am   BACKBONE|DICT|INTERRES
    51   24   84 1    
    52   25   26 2    
    53   27   28 2    
    54   27   29 am   BACKBONE|DICT|INTERRES
    55   29   30 1    
    56   29   85 1    
    57   30   31 1    
    58   30   32 1    
    59   30   86 1    
    60   31   87 1    
    61   31   88 1    
    62   31   89 1    
    63   32   33 2    
    64   32   34 am   BACKBONE|DICT|INTERRES
    65   34   35 1    
    66   34   90 1    
    67   35   36 1    
    68   35   37 1    
    69   35   91 1    
    70   36   92 1    
    71   36   93 1    
    72   36   94 1    
    73   37   38 2    
    74   37   39 am   BACKBONE|DICT|INTERRES
    75   39   40 1    
    76   39   95 1    
    77   40   41 1    
    78   40   42 1    
    79   40   96 1    
    80   41   97 1    
    81   41   98 1    
    82   41   99 1    
    83   42   43 2    
    84   42   44 am   BACKBONE|DICT|INTERRES
    85   44   45 1    
    86   44  100 1    
    87   45   46 1    
    88   45   47 1    
    89   45  101 1    
    90   46  102 1    
    91   46  103 1    
    92   46  104 1    
    93   47   48 2    
    94   47   49 am   BACKBONE|DICT|INTERRES
    95   49   50 1    
    96   49  105 1    
    97   50   51 1    
    98   50   52 1    
    99   50  106 1    
   100   51  107 1    
   101   51  108 1    
   102   51  109 1    
   103   52   53 2    
   104   52   54 am   BACKBONE|DICT|INTERRES
   105   54   55 1    
   106   54  110 1    
   107   55   56 1    
   108   55   59 1    
   109   55  111 1    
   110   56   57 am   BACKBONE|DICT|INTERRES
   111   56   58 2    
   112   57  112 1    
   113   57  113 1    
   114   59   60 1    
   115   59  114 1    
   116   59  115 1    
   117   60   61 1    
   118   61  116 1    
   119   61  117 1    
@<TRIPOS>SUBSTRUCTURE
     1 UNK         1 GROUP             0       ****    0 ROOT    
