@<TRIPOS>MOLECULE
3R8
117   119    1
SMALL
USER_CHARGES


@<TRIPOS>ATOM
      1 CA         17.0837  -22.1907  -48.5506 C.3       0 UNK        -0.2013 
      2 C          18.2433  -22.8227  -47.7950 C.2       0 UNK         0.4866 
      3 O          19.2001  -22.1284  -47.4496 O.2       0 UNK        -0.5176 
      4 N          18.1709  -24.1357  -47.5425 N.am      1 UNK        -0.4884 
      5 CA         19.1604  -24.8892  -46.7668 C.3       1 UNK         0.0853 
      6 C6         19.0106  -26.4118  -47.0077 C.3       10 UNK        -0.0849 
      7 S7         20.4855  -27.3570  -46.4933 S.3       10 UNK        -0.2776 
      8 C8         19.9782  -29.0593  -46.8885 C.3       10 UNK         0.0316 
      9 C9         19.4376  -29.8112  -45.6773 C.ar      10 UNK        -0.0863 
     10 C10        20.2126  -30.8042  -45.0680 C.ar      10 UNK        -0.1009 
     11 C11        19.6974  -31.5827  -44.0260 C.ar      10 UNK        -0.0712 
     12 C12        18.3939  -31.3331  -43.5767 C.ar      10 UNK        -0.0894 
     13 C13        17.6168  -30.3260  -44.1563 C.ar      10 UNK        -0.0745 
     14 C14        18.1416  -29.5719  -45.2097 C.ar      10 UNK        -0.0972 
     15 C15        16.1915  -30.0936  -43.6733 C.3       10 UNK         0.0209 
     16 S16        16.1404  -29.3991  -41.9905 S.3       10 UNK        -0.2568 
     17 C17        16.7156  -27.6900  -42.2667 C.3       10 UNK        -0.0983 
     18 CA         18.2177  -27.4969  -41.9482 C.3       3 UNK         0.0876 
     19 N          18.7118  -26.2385  -42.5100 N.am      3 UNK        -0.4424 
     20 C          19.9891  -25.8407  -42.5001 C.2       2 UNK         0.4918 
     21 O          20.9157  -26.5322  -42.0758 O.2       2 UNK        -0.4875 
     22 CA         20.2729  -24.4578  -43.1119 C.3       2 UNK         0.0481 
     23 CB         21.6546  -23.9077  -42.7134 C.3       2 UNK        -0.1831 
     24 N          20.1869  -24.5383  -44.5687 N.am      2 UNK        -0.4498 
     25 C          19.0437  -24.5557  -45.2657 C.2       1 UNK         0.5027 
     26 O          17.9305  -24.3835  -44.7590 O.2       1 UNK        -0.4969 
     27 C          18.5167  -27.5743  -40.4340 C.2       3 UNK         0.5005 
     28 O          18.3763  -26.5671  -39.7343 O.2       3 UNK        -0.5279 
     29 N          18.9429  -28.7608  -39.9758 N.am      4 UNK        -0.4463 
     30 CA         19.4479  -29.0516  -38.6264 C.3       4 UNK         0.0283 
     31 CB         18.3589  -28.8340  -37.5532 C.3       4 UNK        -0.1875 
     32 C          20.7723  -28.3247  -38.3046 C.2       4 UNK         0.4949 
     33 O          21.0198  -27.9900  -37.1446 O.2       4 UNK        -0.5039 
     34 N          21.6079  -28.1095  -39.3301 N.am      5 UNK        -0.4663 
     35 CA         22.9429  -27.5208  -39.2143 C.3       5 UNK         0.0242 
     36 CB         22.8585  -25.9866  -39.1042 C.3       5 UNK        -0.1982 
     37 C          23.8389  -27.9474  -40.3844 C.2       5 UNK         0.5017 
     38 O          24.9830  -28.3394  -40.1528 O.2       5 UNK        -0.5012 
     39 N          23.3142  -27.8577  -41.6140 N.am      6 UNK        -0.4439 
     40 CA         23.9966  -28.2501  -42.8476 C.3       6 UNK         0.0297 
     41 CB         23.2009  -27.7186  -44.0503 C.3       6 UNK        -0.2006 
     42 C          24.1631  -29.7721  -42.9757 C.2       6 UNK         0.4892 
     43 O          23.2895  -30.5270  -42.5421 O.2       6 UNK        -0.5089 
     44 N          25.2573  -30.1762  -43.6375 N.am      7 UNK        -0.4243 
     45 CA         25.6128  -31.5516  -44.0037 C.3       7 UNK         0.0196 
     46 CB         24.6974  -32.0414  -45.1513 C.3       7 UNK        -0.2007 
     47 C          25.6551  -32.4928  -42.7822 C.2       7 UNK         0.5020 
     48 O          26.2183  -32.1241  -41.7500 O.2       7 UNK        -0.5147 
     49 N          25.0582  -33.6845  -42.9094 N.am      8 UNK        -0.4734 
     50 CA         24.9454  -34.6843  -41.8433 C.3       8 UNK         0.0238 
     51 CB         24.5404  -36.0306  -42.4670 C.3       8 UNK        -0.1912 
     52 C          23.9615  -34.2943  -40.7236 C.2       8 UNK         0.5038 
     53 O          23.9942  -34.9195  -39.6625 O.2       8 UNK        -0.5046 
     54 N          23.1050  -33.2950  -40.9729 N.am      9 UNK        -0.4200 
     55 CA         22.1141  -32.7844  -40.0149 C.3       9 UNK         0.0839 
     56 C          22.7047  -31.8009  -38.9655 C.2       9 UNK         0.5513 
     57 N          23.9454  -31.3473  -39.0971 N.am      9 UNK        -0.7519 
     58 O          22.0257  -31.4594  -38.0019 O.2       9 UNK        -0.4960 
     59 C59        20.8746  -32.1806  -40.7271 C.3       10 UNK        -0.0876 
     60 S60        20.0659  -33.3750  -41.8430 S.3       10 UNK        -0.2414 
     61 C61        20.5501  -32.7322  -43.4827 C.3       10 UNK         0.0169 
     62 H62        16.6225  -21.4110  -47.9450 H         1 UNK         0.0903 
     63 H63        17.4405  -21.7380  -49.4754 H         1 UNK         0.0903 
     64 H64        16.3157  -22.9209  -48.8052 H         1 UNK         0.0903 
     65 H65        17.3448  -24.6477  -47.8185 H         1 UNK         0.3096 
     66 H66        20.1488  -24.5792  -47.1151 H         1 UNK         0.1121 
     67 H67        18.8634  -26.6024  -48.0722 H         1 UNK         0.0849 
     68 H68        18.1236  -26.8002  -46.5056 H         1 UNK         0.0849 
     69 H69        19.2319  -29.0565  -47.6843 H         1 UNK         0.0865 
     70 H70        20.8427  -29.5839  -47.2985 H         1 UNK         0.0865 
     71 H71        21.2110  -31.0024  -45.4344 H         1 UNK         0.1346 
     72 H72        17.9609  -31.9321  -42.7884 H         1 UNK         0.1412 
     73 H73        17.5294  -28.8181  -45.6826 H         1 UNK         0.1426 
     74 H74        15.6589  -31.0457  -43.6735 H         1 UNK         0.0716 
     75 H75        15.6442  -29.4409  -44.3552 H         1 UNK         0.0716 
     76 H76        16.1029  -27.0139  -41.6672 H         1 UNK         0.0695 
     77 H77        16.5166  -27.4255  -43.3067 H         1 UNK         0.0695 
     78 H78        18.7800  -28.2880  -42.4497 H         1 UNK         0.0983 
     79 H79        18.0246  -25.6167  -42.9162 H         1 UNK         0.3095 
     80 H80        19.5189  -23.7605  -42.7406 H         1 UNK         0.0454 
     81 H81        22.4671  -24.5512  -43.0506 H         1 UNK         0.0851 
     82 H82        21.7380  -23.8197  -41.6297 H         1 UNK         0.0851 
     83 H83        21.8201  -22.9143  -43.1302 H         1 UNK         0.0851 
     84 H84        21.0482  -24.7460  -45.0538 H         1 UNK         0.2976 
     85 H85        18.9741  -29.5320  -40.6282 H         1 UNK         0.3116 
     86 H86        19.6871  -30.1139  -38.6157 H         1 UNK         0.0646 
     87 H87        18.1260  -27.7780  -37.4158 H         1 UNK         0.0847 
     88 H88        18.6845  -29.2192  -36.5862 H         1 UNK         0.0847 
     89 H89        17.4355  -29.3517  -37.8123 H         1 UNK         0.0847 
     90 H90        21.3353  -28.4171  -40.2527 H         1 UNK         0.3040 
     91 H91        23.4095  -27.9061  -38.3046 H         1 UNK         0.1015 
     92 H92        22.3408  -25.5498  -39.9579 H         1 UNK         0.0786 
     93 H93        23.8535  -25.5420  -39.0604 H         1 UNK         0.0786 
     94 H94        22.3281  -25.6814  -38.2022 H         1 UNK         0.0786 
     95 H95        22.3866  -27.4508  -41.7288 H         1 UNK         0.3172 
     96 H96        24.9842  -27.7841  -42.8494 H         1 UNK         0.0595 
     97 H97        23.6805  -27.9848  -44.9931 H         1 UNK         0.0839 
     98 H98        23.1172  -26.6330  -44.0272 H         1 UNK         0.0839 
     99 H99        22.1912  -28.1320  -44.0729 H         1 UNK         0.0839 
    100 H100       25.9217  -29.4704  -43.9227 H         1 UNK         0.2998 
    101 H101       26.6335  -31.5136  -44.3872 H         1 UNK         0.0822 
    102 H102       25.0275  -33.0034  -45.5454 H         1 UNK         0.0787 
    103 H103       23.6596  -32.1446  -44.8326 H         1 UNK         0.0787 
    104 H104       24.7122  -31.3408  -45.9864 H         1 UNK         0.0787 
    105 H105       24.6200  -33.9088  -43.7913 H         1 UNK         0.3055 
    106 H106       25.9274  -34.8012  -41.3790 H         1 UNK         0.1106 
    107 H107       24.4839  -36.8120  -41.7076 H         1 UNK         0.0828 
    108 H108       23.5633  -35.9750  -42.9488 H         1 UNK         0.0828 
    109 H109       25.2659  -36.3592  -43.2113 H         1 UNK         0.0828 
    110 H110       23.1824  -32.7835  -41.8412 H         1 UNK         0.2931 
    111 H111       21.7526  -33.6376  -39.4372 H         1 UNK         0.0412 
    112 H112       24.5017  -31.6026  -39.8998 H         1 UNK         0.3472 
    113 H113       24.3186  -30.7150  -38.4079 H         1 UNK         0.3472 
    114 H114       21.1370  -31.2739  -41.2744 H         1 UNK         0.0970 
    115 H115       20.1273  -31.8867  -39.9903 H         1 UNK         0.0970 
    116 H116       21.5987  -32.4359  -43.4491 H         1 UNK         0.0612 
    117 H117       20.4896  -33.5564  -44.1941 H         1 UNK         0.0612 
@<TRIPOS>BOND
     1    1    2 1    
     2    1   62 1    
     3    1   63 1    
     4    1   64 1    
     5    2    3 2    
     6    2    4 am   BACKBONE|DICT|INTERRES
     7    4    5 1    
     8    4   65 1    
     9    5    6 1    
    10    5   25 1    
    11    5   66 1    
    12    6    7 1    
    13    6   67 1    
    14    6   68 1    
    15    7    8 1    
    16    8    9 1    
    17    8   69 1    
    18    8   70 1    
    19    9   10 ar   
    20    9   14 ar   
    21   10   11 ar   
    22   10   71 1    
    23   11   12 ar   
    24   11   61 1    
    25   12   13 ar   
    26   12   72 1    
    27   13   14 ar   
    28   13   15 1    
    29   14   73 1    
    30   15   16 1    
    31   15   74 1    
    32   15   75 1    
    33   16   17 1    
    34   17   18 1    
    35   17   76 1    
    36   17   77 1    
    37   18   19 1    
    38   18   27 1    
    39   18   78 1    
    40   19   20 am   BACKBONE|DICT|INTERRES
    41   19   79 1    
    42   20   21 2    
    43   20   22 1    
    44   22   23 1    
    45   22   24 1    
    46   22   80 1    
    47   23   81 1    
    48   23   82 1    
    49   23   83 1    
    50   24   25 am   BACKBONE|DICT|INTERRES
    51   24   84 1    
    52   25   26 2    
    53   27   28 2    
    54   27   29 am   BACKBONE|DICT|INTERRES
    55   29   30 1    
    56   29   85 1    
    57   30   31 1    
    58   30   32 1    
    59   30   86 1    
    60   31   87 1    
    61   31   88 1    
    62   31   89 1    
    63   32   33 2    
    64   32   34 am   BACKBONE|DICT|INTERRES
    65   34   35 1    
    66   34   90 1    
    67   35   36 1    
    68   35   37 1    
    69   35   91 1    
    70   36   92 1    
    71   36   93 1    
    72   36   94 1    
    73   37   38 2    
    74   37   39 am   BACKBONE|DICT|INTERRES
    75   39   40 1    
    76   39   95 1    
    77   40   41 1    
    78   40   42 1    
    79   40   96 1    
    80   41   97 1    
    81   41   98 1    
    82   41   99 1    
    83   42   43 2    
    84   42   44 am   BACKBONE|DICT|INTERRES
    85   44   45 1    
    86   44  100 1    
    87   45   46 1    
    88   45   47 1    
    89   45  101 1    
    90   46  102 1    
    91   46  103 1    
    92   46  104 1    
    93   47   48 2    
    94   47   49 am   BACKBONE|DICT|INTERRES
    95   49   50 1    
    96   49  105 1    
    97   50   51 1    
    98   50   52 1    
    99   50  106 1    
   100   51  107 1    
   101   51  108 1    
   102   51  109 1    
   103   52   53 2    
   104   52   54 am   BACKBONE|DICT|INTERRES
   105   54   55 1    
   106   54  110 1    
   107   55   56 1    
   108   55   59 1    
   109   55  111 1    
   110   56   57 am   BACKBONE|DICT|INTERRES
   111   56   58 2    
   112   57  112 1    
   113   57  113 1    
   114   59   60 1    
   115   59  114 1    
   116   59  115 1    
   117   60   61 1    
   118   61  116 1    
   119   61  117 1    
@<TRIPOS>SUBSTRUCTURE
     1 UNK         1 GROUP             0       ****    0 ROOT    
