@<TRIPOS>MOLECULE
3R8
117   119    1
SMALL
USER_CHARGES


@<TRIPOS>ATOM
      1 CA         18.4878  -26.7233  -49.5595 C.3       0 UNK        -0.2013 
      2 C          18.0686  -26.4300  -48.1261 C.2       0 UNK         0.4866 
      3 O          17.8322  -25.2698  -47.7876 O.2       0 UNK        -0.5176 
      4 N          17.9786  -27.4753  -47.2907 N.am      1 UNK        -0.4884 
      5 CA         17.5918  -27.4351  -45.8713 C.3       1 UNK         0.0853 
      6 C6         16.0995  -27.0635  -45.6381 C.3       10 UNK        -0.0849 
      7 S7         14.9799  -28.3329  -46.3261 S.3       10 UNK        -0.2776 
      8 C8         14.3128  -29.1340  -44.8216 C.3       10 UNK         0.0316 
      9 C9         15.3919  -29.6345  -43.8643 C.ar      10 UNK        -0.0863 
     10 C10        16.4386  -30.4374  -44.3259 C.ar      10 UNK        -0.1009 
     11 C11        17.4625  -30.8333  -43.4628 C.ar      10 UNK        -0.0712 
     12 C12        17.3995  -30.4879  -42.1108 C.ar      10 UNK        -0.0894 
     13 C13        16.3440  -29.7084  -41.6257 C.ar      10 UNK        -0.0745 
     14 C14        15.3478  -29.2817  -42.5112 C.ar      10 UNK        -0.0972 
     15 C15        16.2609  -29.3198  -40.1506 C.3       10 UNK         0.0209 
     16 S16        17.8445  -28.7682  -39.4242 S.3       10 UNK        -0.2568 
     17 C17        18.2821  -27.3464  -40.4783 C.3       10 UNK        -0.0983 
     18 CA         19.7675  -27.4067  -40.9198 C.3       3 UNK         0.0876 
     19 N          19.9457  -26.8729  -42.2687 N.am      3 UNK        -0.4424 
     20 C          21.0731  -26.9044  -42.9892 C.2       2 UNK         0.4918 
     21 O          22.1318  -27.3826  -42.5783 O.2       2 UNK        -0.4875 
     22 CA         20.9888  -26.3151  -44.4145 C.3       2 UNK         0.0481 
     23 CB         22.2945  -26.5179  -45.2062 C.3       2 UNK        -0.1831 
     24 N          19.8761  -26.8800  -45.1871 N.am      2 UNK        -0.4498 
     25 C          18.5741  -26.6010  -45.0230 C.2       1 UNK         0.5027 
     26 O          18.1574  -25.7592  -44.2234 O.2       1 UNK        -0.4969 
     27 C          20.6831  -26.6756  -39.9198 C.2       3 UNK         0.5005 
     28 O          20.7643  -25.4450  -39.9656 O.2       3 UNK        -0.5279 
     29 N          21.3801  -27.4401  -39.0674 N.am      4 UNK        -0.4463 
     30 CA         22.3829  -27.0236  -38.0723 C.3       4 UNK         0.0283 
     31 CB         21.7861  -26.0582  -37.0294 C.3       4 UNK        -0.1875 
     32 C          23.6897  -26.4601  -38.6671 C.2       4 UNK         0.4949 
     33 O          24.7506  -26.6846  -38.0845 O.2       4 UNK        -0.5039 
     34 N          23.6092  -25.7695  -39.8126 N.am      5 UNK        -0.4663 
     35 CA         24.7445  -25.2866  -40.6033 C.3       5 UNK         0.0242 
     36 CB         24.2301  -24.3836  -41.7359 C.3       5 UNK        -0.1982 
     37 C          25.5995  -26.4351  -41.1655 C.2       5 UNK         0.5017 
     38 O          26.8260  -26.3220  -41.1840 O.2       5 UNK        -0.5012 
     39 N          24.9387  -27.5253  -41.5703 N.am      6 UNK        -0.4439 
     40 CA         25.5417  -28.8098  -41.8978 C.3       6 UNK         0.0297 
     41 CB         25.4378  -29.0518  -43.4110 C.3       6 UNK        -0.2006 
     42 C          24.7925  -29.8839  -41.1020 C.2       6 UNK         0.4892 
     43 O          23.5596  -29.8516  -41.0478 O.2       6 UNK        -0.5089 
     44 N          25.5460  -30.8105  -40.4947 N.am      7 UNK        -0.4243 
     45 CA         25.0333  -31.9060  -39.6676 C.3       7 UNK         0.0196 
     46 CB         26.2126  -32.6526  -39.0210 C.3       7 UNK        -0.2007 
     47 C          24.1557  -32.8570  -40.4946 C.2       7 UNK         0.5020 
     48 O          24.6798  -33.5712  -41.3514 O.2       7 UNK        -0.5147 
     49 N          22.8352  -32.7900  -40.2689 N.am      8 UNK        -0.4734 
     50 CA         21.7759  -33.4821  -41.0190 C.3       8 UNK         0.0238 
     51 CB         21.7990  -34.9949  -40.7114 C.3       8 UNK        -0.1912 
     52 C          21.8077  -33.1817  -42.5339 C.2       8 UNK         0.5038 
     53 O          21.4793  -34.0575  -43.3360 O.2       8 UNK        -0.5046 
     54 N          22.2245  -31.9572  -42.8900 N.am      9 UNK        -0.4200 
     55 CA         22.4906  -31.4931  -44.2622 C.3       9 UNK         0.0839 
     56 C          23.7255  -32.1602  -44.9435 C.2       9 UNK         0.5513 
     57 N          24.5881  -32.8729  -44.2278 N.am      9 UNK        -0.7519 
     58 O          23.9318  -31.9989  -46.1435 O.2       9 UNK        -0.4960 
     59 C59        21.2320  -31.4867  -45.1770 C.3       10 UNK        -0.0876 
     60 S60        19.9271  -30.3848  -44.5455 S.3       10 UNK        -0.2414 
     61 C61        18.6671  -31.5786  -44.0058 C.3       10 UNK         0.0169 
     62 H62        19.4283  -26.2201  -49.7859 H         1 UNK         0.0903 
     63 H63        18.6224  -27.7912  -49.7368 H         1 UNK         0.0903 
     64 H64        17.7301  -26.3580  -50.2534 H         1 UNK         0.0903 
     65 H65        18.1801  -28.3992  -47.6491 H         1 UNK         0.3096 
     66 H66        17.7312  -28.4507  -45.5044 H         1 UNK         0.1121 
     67 H67        15.8643  -26.0993  -46.0916 H         1 UNK         0.0849 
     68 H68        15.8842  -26.9519  -44.5736 H         1 UNK         0.0849 
     69 H69        13.6507  -28.4263  -44.3201 H         1 UNK         0.0865 
     70 H70        13.6885  -29.9777  -45.1189 H         1 UNK         0.0865 
     71 H71        16.4863  -30.7068  -45.3723 H         1 UNK         0.1346 
     72 H72        18.1885  -30.8029  -41.4422 H         1 UNK         0.1412 
     73 H73        14.5351  -28.6691  -42.1448 H         1 UNK         0.1426 
     74 H74        15.5265  -28.5264  -40.0042 H         1 UNK         0.0716 
     75 H75        15.9002  -30.1802  -39.5861 H         1 UNK         0.0716 
     76 H76        18.0440  -26.4198  -39.9519 H         1 UNK         0.0695 
     77 H77        17.6301  -27.3523  -41.3528 H         1 UNK         0.0695 
     78 H78        20.0825  -28.4512  -40.9810 H         1 UNK         0.0983 
     79 H79        19.1408  -26.4215  -42.6904 H         1 UNK         0.3095 
     80 H80        20.8263  -25.2407  -44.3089 H         1 UNK         0.0454 
     81 H81        22.2372  -26.0587  -46.1931 H         1 UNK         0.0851 
     82 H82        22.5242  -27.5761  -45.3388 H         1 UNK         0.0851 
     83 H83        23.1416  -26.0645  -44.6897 H         1 UNK         0.0851 
     84 H84        20.1198  -27.6054  -45.8463 H         1 UNK         0.2976 
     85 H85        21.2625  -28.4416  -39.1450 H         1 UNK         0.3116 
     86 H86        22.6588  -27.9384  -37.5449 H         1 UNK         0.0646 
     87 H87        20.8924  -26.4762  -36.5663 H         1 UNK         0.0847 
     88 H88        22.5024  -25.8605  -36.2309 H         1 UNK         0.0847 
     89 H89        21.5197  -25.0953  -37.4662 H         1 UNK         0.0847 
     90 H90        22.6776  -25.5906  -40.1763 H         1 UNK         0.3040 
     91 H91        25.3817  -24.6906  -39.9462 H         1 UNK         0.1015 
     92 H92        23.5647  -24.9220  -42.4113 H         1 UNK         0.0786 
     93 H93        25.0574  -23.9961  -42.3322 H         1 UNK         0.0786 
     94 H94        23.6848  -23.5257  -41.3423 H         1 UNK         0.0786 
     95 H95        23.9218  -27.5292  -41.5417 H         1 UNK         0.3172 
     96 H96        26.5940  -28.8278  -41.6064 H         1 UNK         0.0595 
     97 H97        24.4155  -28.9246  -43.7662 H         1 UNK         0.0839 
     98 H98        25.7627  -30.0591  -43.6749 H         1 UNK         0.0839 
     99 H99        26.0656  -28.3518  -43.9623 H         1 UNK         0.0839 
    100 H100       26.5475  -30.7767  -40.6189 H         1 UNK         0.2998 
    101 H101       24.4308  -31.4701  -38.8676 H         1 UNK         0.0822 
    102 H102       25.8577  -33.4753  -38.3987 H         1 UNK         0.0787 
    103 H103       26.8837  -33.0769  -39.7692 H         1 UNK         0.0787 
    104 H104       26.7979  -31.9924  -38.3805 H         1 UNK         0.0787 
    105 H105       22.5118  -32.1311  -39.5729 H         1 UNK         0.3055 
    106 H106       20.8259  -33.0849  -40.6572 H         1 UNK         0.1106 
    107 H107       20.9430  -35.5001  -41.1607 H         1 UNK         0.0828 
    108 H108       22.6991  -35.4727  -41.1005 H         1 UNK         0.0828 
    109 H109       21.7565  -35.1828  -39.6385 H         1 UNK         0.0828 
    110 H110       22.4982  -31.3096  -42.1590 H         1 UNK         0.2931 
    111 H111       22.7854  -30.4519  -44.1407 H         1 UNK         0.0412 
    112 H112       25.3829  -33.2828  -44.6918 H         1 UNK         0.3472 
    113 H113       24.4511  -33.0371  -43.2357 H         1 UNK         0.3472 
    114 H114       20.8436  -32.4953  -45.3228 H         1 UNK         0.0970 
    115 H115       21.4868  -31.1228  -46.1738 H         1 UNK         0.0970 
    116 H116       18.3758  -32.2115  -44.8453 H         1 UNK         0.0612 
    117 H117       19.0814  -32.2370  -43.2421 H         1 UNK         0.0612 
@<TRIPOS>BOND
     1    1    2 1    
     2    1   62 1    
     3    1   63 1    
     4    1   64 1    
     5    2    3 2    
     6    2    4 am   BACKBONE|DICT|INTERRES
     7    4    5 1    
     8    4   65 1    
     9    5    6 1    
    10    5   25 1    
    11    5   66 1    
    12    6    7 1    
    13    6   67 1    
    14    6   68 1    
    15    7    8 1    
    16    8    9 1    
    17    8   69 1    
    18    8   70 1    
    19    9   10 ar   
    20    9   14 ar   
    21   10   11 ar   
    22   10   71 1    
    23   11   12 ar   
    24   11   61 1    
    25   12   13 ar   
    26   12   72 1    
    27   13   14 ar   
    28   13   15 1    
    29   14   73 1    
    30   15   16 1    
    31   15   74 1    
    32   15   75 1    
    33   16   17 1    
    34   17   18 1    
    35   17   76 1    
    36   17   77 1    
    37   18   19 1    
    38   18   27 1    
    39   18   78 1    
    40   19   20 am   BACKBONE|DICT|INTERRES
    41   19   79 1    
    42   20   21 2    
    43   20   22 1    
    44   22   23 1    
    45   22   24 1    
    46   22   80 1    
    47   23   81 1    
    48   23   82 1    
    49   23   83 1    
    50   24   25 am   BACKBONE|DICT|INTERRES
    51   24   84 1    
    52   25   26 2    
    53   27   28 2    
    54   27   29 am   BACKBONE|DICT|INTERRES
    55   29   30 1    
    56   29   85 1    
    57   30   31 1    
    58   30   32 1    
    59   30   86 1    
    60   31   87 1    
    61   31   88 1    
    62   31   89 1    
    63   32   33 2    
    64   32   34 am   BACKBONE|DICT|INTERRES
    65   34   35 1    
    66   34   90 1    
    67   35   36 1    
    68   35   37 1    
    69   35   91 1    
    70   36   92 1    
    71   36   93 1    
    72   36   94 1    
    73   37   38 2    
    74   37   39 am   BACKBONE|DICT|INTERRES
    75   39   40 1    
    76   39   95 1    
    77   40   41 1    
    78   40   42 1    
    79   40   96 1    
    80   41   97 1    
    81   41   98 1    
    82   41   99 1    
    83   42   43 2    
    84   42   44 am   BACKBONE|DICT|INTERRES
    85   44   45 1    
    86   44  100 1    
    87   45   46 1    
    88   45   47 1    
    89   45  101 1    
    90   46  102 1    
    91   46  103 1    
    92   46  104 1    
    93   47   48 2    
    94   47   49 am   BACKBONE|DICT|INTERRES
    95   49   50 1    
    96   49  105 1    
    97   50   51 1    
    98   50   52 1    
    99   50  106 1    
   100   51  107 1    
   101   51  108 1    
   102   51  109 1    
   103   52   53 2    
   104   52   54 am   BACKBONE|DICT|INTERRES
   105   54   55 1    
   106   54  110 1    
   107   55   56 1    
   108   55   59 1    
   109   55  111 1    
   110   56   57 am   BACKBONE|DICT|INTERRES
   111   56   58 2    
   112   57  112 1    
   113   57  113 1    
   114   59   60 1    
   115   59  114 1    
   116   59  115 1    
   117   60   61 1    
   118   61  116 1    
   119   61  117 1    
@<TRIPOS>SUBSTRUCTURE
     1 UNK         1 GROUP             0       ****    0 ROOT    
