@<TRIPOS>MOLECULE
3R8
117   119    1
SMALL
USER_CHARGES


@<TRIPOS>ATOM
      1 CA         16.1227  -22.7658  -44.4414 C.3       0 UNK        -0.2013 
      2 C          16.5867  -24.2068  -44.5889 C.2       0 UNK         0.4866 
      3 O          17.5247  -24.6142  -43.9023 O.2       0 UNK        -0.5176 
      4 N          15.9398  -24.9715  -45.4840 N.am      1 UNK        -0.4884 
      5 CA         16.2064  -26.3837  -45.7940 C.3       1 UNK         0.0853 
      6 C6         15.6941  -27.3262  -44.6691 C.3       10 UNK        -0.0849 
      7 S7         15.6946  -29.0881  -45.1599 S.3       10 UNK        -0.2776 
      8 C8         15.7534  -29.9470  -43.5531 C.3       10 UNK         0.0316 
      9 C9         17.0657  -29.7098  -42.8187 C.ar      10 UNK        -0.0863 
     10 C10        18.2137  -30.4314  -43.1605 C.ar      10 UNK        -0.1009 
     11 C11        19.4265  -30.2080  -42.4903 C.ar      10 UNK        -0.0712 
     12 C12        19.4672  -29.2481  -41.4735 C.ar      10 UNK        -0.0894 
     13 C13        18.3312  -28.5085  -41.1336 C.ar      10 UNK        -0.0745 
     14 C14        17.1286  -28.7645  -41.7939 C.ar      10 UNK        -0.0972 
     15 C15        18.3861  -27.4282  -40.0609 C.3       10 UNK         0.0209 
     16 S16        17.9937  -25.7822  -40.7471 S.3       10 UNK        -0.2568 
     17 C17        19.6259  -25.0226  -41.0561 C.3       10 UNK        -0.0983 
     18 CA         20.5979  -25.8581  -41.9241 C.3       3 UNK         0.0876 
     19 N          20.0565  -26.1881  -43.2554 N.am      3 UNK        -0.4424 
     20 C          20.6122  -27.0843  -44.0903 C.2       2 UNK         0.4918 
     21 O          21.6600  -27.6745  -43.8291 O.2       2 UNK        -0.4875 
     22 CA         19.9261  -27.3413  -45.4409 C.3       2 UNK         0.0481 
     23 CB         20.2623  -28.7203  -46.0373 C.3       2 UNK        -0.1831 
     24 N          18.4812  -27.1989  -45.3175 N.am      2 UNK        -0.4498 
     25 C          17.6870  -26.5779  -46.1965 C.2       1 UNK         0.5027 
     26 O          18.0770  -26.1227  -47.2742 O.2       1 UNK        -0.4969 
     27 C          22.0041  -25.2147  -41.9534 C.2       3 UNK         0.5005 
     28 O          22.6782  -25.2025  -40.9229 O.2       3 UNK        -0.5279 
     29 N          22.4684  -24.7648  -43.1294 N.am      4 UNK        -0.4463 
     30 CA         23.8624  -24.3919  -43.3969 C.3       4 UNK         0.0283 
     31 CB         23.9693  -23.8241  -44.8210 C.3       4 UNK        -0.1875 
     32 C          24.8616  -25.5542  -43.2057 C.2       4 UNK         0.4949 
     33 O          26.0291  -25.2966  -42.9144 O.2       4 UNK        -0.5039 
     34 N          24.3880  -26.8033  -43.3342 N.am      5 UNK        -0.4663 
     35 CA         25.1370  -28.0301  -43.0455 C.3       5 UNK         0.0242 
     36 CB         24.7108  -29.1187  -44.0477 C.3       5 UNK        -0.1982 
     37 C          24.9560  -28.5069  -41.5882 C.2       5 UNK         0.5017 
     38 O          25.3452  -29.6331  -41.2786 O.2       5 UNK        -0.5012 
     39 N          24.3775  -27.6587  -40.7235 N.am      6 UNK        -0.4439 
     40 CA         24.0624  -27.8686  -39.3082 C.3       6 UNK         0.0297 
     41 CB         25.3126  -28.2068  -38.4667 C.3       6 UNK        -0.2006 
     42 C          22.9121  -28.8656  -39.1062 C.2       6 UNK         0.4892 
     43 O          21.7841  -28.4340  -38.8699 O.2       6 UNK        -0.5089 
     44 N          23.2080  -30.1659  -39.1915 N.am      7 UNK        -0.4243 
     45 CA         22.2819  -31.2714  -38.9593 C.3       7 UNK         0.0196 
     46 CB         21.9851  -31.4098  -37.4521 C.3       7 UNK        -0.2007 
     47 C          22.8959  -32.5634  -39.5115 C.2       7 UNK         0.5020 
     48 O          24.1020  -32.6064  -39.7642 O.2       7 UNK        -0.5147 
     49 N          22.0525  -33.5956  -39.6640 N.am      8 UNK        -0.4734 
     50 CA         22.3879  -34.9510  -40.1340 C.3       8 UNK         0.0238 
     51 CB         23.2902  -35.6765  -39.1118 C.3       8 UNK        -0.1912 
     52 C          22.9593  -34.9859  -41.5673 C.2       8 UNK         0.5038 
     53 O          23.8239  -35.8111  -41.8701 O.2       8 UNK        -0.5046 
     54 N          22.4626  -34.0814  -42.4183 N.am      9 UNK        -0.4200 
     55 CA         22.8000  -33.9722  -43.8418 C.3       9 UNK         0.0839 
     56 C          22.2447  -35.1451  -44.6992 C.2       9 UNK         0.5513 
     57 N          22.8235  -35.3797  -45.8694 N.am      9 UNK        -0.7519 
     58 O          21.2898  -35.8272  -44.3308 O.2       9 UNK        -0.4960 
     59 C59        22.4049  -32.5803  -44.4036 C.3       10 UNK        -0.0876 
     60 S60        20.6391  -32.1530  -44.1918 S.3       10 UNK        -0.2414 
     61 C61        20.7281  -30.9401  -42.8294 C.3       10 UNK         0.0169 
     62 H62        15.8200  -22.5751  -43.4121 H         1 UNK         0.0903 
     63 H63        15.2780  -22.5387  -45.0914 H         1 UNK         0.0903 
     64 H64        16.9358  -22.0840  -44.6890 H         1 UNK         0.0903 
     65 H65        15.2051  -24.5501  -46.0361 H         1 UNK         0.3096 
     66 H66        15.6270  -26.6063  -46.6920 H         1 UNK         0.1121 
     67 H67        16.2626  -27.1705  -43.7534 H         1 UNK         0.0849 
     68 H68        14.6652  -27.0646  -44.4173 H         1 UNK         0.0849 
     69 H69        14.9057  -29.6303  -42.9432 H         1 UNK         0.0865 
     70 H70        15.6208  -31.0169  -43.7206 H         1 UNK         0.0865 
     71 H71        18.1480  -31.1565  -43.9586 H         1 UNK         0.1346 
     72 H72        20.3990  -29.0632  -40.9590 H         1 UNK         0.1412 
     73 H73        16.2452  -28.2010  -41.5247 H         1 UNK         0.1426 
     74 H74        19.3547  -27.4057  -39.5601 H         1 UNK         0.0716 
     75 H75        17.6523  -27.6668  -39.2900 H         1 UNK         0.0716 
     76 H76        19.4541  -24.0502  -41.5213 H         1 UNK         0.0695 
     77 H77        20.0692  -24.8159  -40.0798 H         1 UNK         0.0695 
     78 H78        20.7581  -26.8055  -41.4112 H         1 UNK         0.0983 
     79 H79        19.1950  -25.7153  -43.5185 H         1 UNK         0.3095 
     80 H80        20.3160  -26.5769  -46.1155 H         1 UNK         0.0454 
     81 H81        19.8871  -29.5267  -45.4091 H         1 UNK         0.0851 
     82 H82        19.8243  -28.8396  -47.0280 H         1 UNK         0.0851 
     83 H83        21.3391  -28.8590  -46.1419 H         1 UNK         0.0851 
     84 H84        18.0742  -27.5486  -44.4597 H         1 UNK         0.2976 
     85 H85        21.8465  -24.7996  -43.9239 H         1 UNK         0.3116 
     86 H86        24.1366  -23.6049  -42.6912 H         1 UNK         0.0646 
     87 H87        24.9910  -23.5095  -45.0391 H         1 UNK         0.0847 
     88 H88        23.3300  -22.9507  -44.9510 H         1 UNK         0.0847 
     89 H89        23.6895  -24.5628  -45.5732 H         1 UNK         0.0847 
     90 H90        23.4068  -26.9392  -43.5663 H         1 UNK         0.3040 
     91 H91        26.2043  -27.8457  -43.1857 H         1 UNK         0.1015 
     92 H92        24.8429  -28.7843  -45.0768 H         1 UNK         0.0786 
     93 H93        23.6655  -29.3979  -43.9187 H         1 UNK         0.0786 
     94 H94        25.3071  -30.0238  -43.9243 H         1 UNK         0.0786 
     95 H95        24.0519  -26.7698  -41.0879 H         1 UNK         0.3172 
     96 H96        23.6975  -26.9052  -38.9486 H         1 UNK         0.0595 
     97 H97        25.0545  -28.2911  -37.4103 H         1 UNK         0.0839 
     98 H98        26.0663  -27.4242  -38.5525 H         1 UNK         0.0839 
     99 H99        25.7783  -29.1478  -38.7587 H         1 UNK         0.0839 
    100 H100       24.1368  -30.4467  -39.4924 H         1 UNK         0.2998 
    101 H101       21.3537  -31.0710  -39.4981 H         1 UNK         0.0822 
    102 H102       22.8970  -31.5847  -36.8796 H         1 UNK         0.0787 
    103 H103       21.5073  -30.5151  -37.0530 H         1 UNK         0.0787 
    104 H104       21.3111  -32.2442  -37.2548 H         1 UNK         0.0787 
    105 H105       21.0813  -33.4533  -39.4192 H         1 UNK         0.3055 
    106 H106       21.4465  -35.5011  -40.1823 H         1 UNK         0.1106 
    107 H107       24.2814  -35.2258  -39.0541 H         1 UNK         0.0828 
    108 H108       22.8543  -35.6575  -38.1130 H         1 UNK         0.0828 
    109 H109       23.4263  -36.7241  -39.3832 H         1 UNK         0.0828 
    110 H110       21.7245  -33.4752  -42.0971 H         1 UNK         0.2931 
    111 H111       23.8884  -34.0394  -43.9036 H         1 UNK         0.0412 
    112 H112       23.6074  -34.8296  -46.1853 H         1 UNK         0.3472 
    113 H113       22.4745  -36.1295  -46.4464 H         1 UNK         0.3472 
    114 H114       22.6461  -32.5135  -45.4660 H         1 UNK         0.0970 
    115 H115       23.0198  -31.8162  -43.9267 H         1 UNK         0.0970 
    116 H116       21.0861  -31.4507  -41.9358 H         1 UNK         0.0612 
    117 H117       21.4816  -30.1945  -43.0827 H         1 UNK         0.0612 
@<TRIPOS>BOND
     1    1    2 1    
     2    1   62 1    
     3    1   63 1    
     4    1   64 1    
     5    2    3 2    
     6    2    4 am   BACKBONE|DICT|INTERRES
     7    4    5 1    
     8    4   65 1    
     9    5    6 1    
    10    5   25 1    
    11    5   66 1    
    12    6    7 1    
    13    6   67 1    
    14    6   68 1    
    15    7    8 1    
    16    8    9 1    
    17    8   69 1    
    18    8   70 1    
    19    9   10 ar   
    20    9   14 ar   
    21   10   11 ar   
    22   10   71 1    
    23   11   12 ar   
    24   11   61 1    
    25   12   13 ar   
    26   12   72 1    
    27   13   14 ar   
    28   13   15 1    
    29   14   73 1    
    30   15   16 1    
    31   15   74 1    
    32   15   75 1    
    33   16   17 1    
    34   17   18 1    
    35   17   76 1    
    36   17   77 1    
    37   18   19 1    
    38   18   27 1    
    39   18   78 1    
    40   19   20 am   BACKBONE|DICT|INTERRES
    41   19   79 1    
    42   20   21 2    
    43   20   22 1    
    44   22   23 1    
    45   22   24 1    
    46   22   80 1    
    47   23   81 1    
    48   23   82 1    
    49   23   83 1    
    50   24   25 am   BACKBONE|DICT|INTERRES
    51   24   84 1    
    52   25   26 2    
    53   27   28 2    
    54   27   29 am   BACKBONE|DICT|INTERRES
    55   29   30 1    
    56   29   85 1    
    57   30   31 1    
    58   30   32 1    
    59   30   86 1    
    60   31   87 1    
    61   31   88 1    
    62   31   89 1    
    63   32   33 2    
    64   32   34 am   BACKBONE|DICT|INTERRES
    65   34   35 1    
    66   34   90 1    
    67   35   36 1    
    68   35   37 1    
    69   35   91 1    
    70   36   92 1    
    71   36   93 1    
    72   36   94 1    
    73   37   38 2    
    74   37   39 am   BACKBONE|DICT|INTERRES
    75   39   40 1    
    76   39   95 1    
    77   40   41 1    
    78   40   42 1    
    79   40   96 1    
    80   41   97 1    
    81   41   98 1    
    82   41   99 1    
    83   42   43 2    
    84   42   44 am   BACKBONE|DICT|INTERRES
    85   44   45 1    
    86   44  100 1    
    87   45   46 1    
    88   45   47 1    
    89   45  101 1    
    90   46  102 1    
    91   46  103 1    
    92   46  104 1    
    93   47   48 2    
    94   47   49 am   BACKBONE|DICT|INTERRES
    95   49   50 1    
    96   49  105 1    
    97   50   51 1    
    98   50   52 1    
    99   50  106 1    
   100   51  107 1    
   101   51  108 1    
   102   51  109 1    
   103   52   53 2    
   104   52   54 am   BACKBONE|DICT|INTERRES
   105   54   55 1    
   106   54  110 1    
   107   55   56 1    
   108   55   59 1    
   109   55  111 1    
   110   56   57 am   BACKBONE|DICT|INTERRES
   111   56   58 2    
   112   57  112 1    
   113   57  113 1    
   114   59   60 1    
   115   59  114 1    
   116   59  115 1    
   117   60   61 1    
   118   61  116 1    
   119   61  117 1    
@<TRIPOS>SUBSTRUCTURE
     1 UNK         1 GROUP             0       ****    0 ROOT    
