@<TRIPOS>MOLECULE
3R8
117   119    1
SMALL
USER_CHARGES


@<TRIPOS>ATOM
      1 CA         13.5666  -22.6258  -46.6292 C.3       0 UNK        -0.2013 
      2 C          15.0856  -22.6359  -46.5426 C.2       0 UNK         0.4866 
      3 O          15.6904  -21.5997  -46.2637 O.2       0 UNK        -0.5176 
      4 N          15.7068  -23.7955  -46.7888 N.am      1 UNK        -0.4884 
      5 CA         17.1524  -24.0140  -46.6738 C.3       1 UNK         0.0853 
      6 C6         17.6073  -25.2135  -47.5484 C.3       10 UNK        -0.0849 
      7 S7         16.8622  -26.8187  -47.0847 S.3       10 UNK        -0.2776 
      8 C8         18.3027  -27.6272  -46.3119 C.3       10 UNK         0.0316 
      9 C9         17.9430  -28.7569  -45.3536 C.ar      10 UNK        -0.0863 
     10 C10        18.7526  -29.8961  -45.3038 C.ar      10 UNK        -0.1009 
     11 C11        18.5123  -30.9008  -44.3627 C.ar      10 UNK        -0.0712 
     12 C12        17.4464  -30.7677  -43.4700 C.ar      10 UNK        -0.0894 
     13 C13        16.6387  -29.6276  -43.4967 C.ar      10 UNK        -0.0745 
     14 C14        16.8794  -28.6338  -44.4510 C.ar      10 UNK        -0.0972 
     15 C15        15.5563  -29.4422  -42.4448 C.3       10 UNK         0.0209 
     16 S16        16.2817  -29.0144  -40.8260 S.3       10 UNK        -0.2568 
     17 C17        16.8265  -27.2911  -41.0867 C.3       10 UNK        -0.0983 
     18 CA         18.2681  -27.1685  -41.6429 C.3       3 UNK         0.0876 
     19 N          18.4912  -25.8497  -42.2331 N.am      3 UNK        -0.4424 
     20 C          19.4690  -25.5624  -43.0982 C.2       2 UNK         0.4918 
     21 O          20.2852  -26.3878  -43.5109 O.2       2 UNK        -0.4875 
     22 CA         19.5184  -24.1144  -43.6177 C.3       2 UNK         0.0481 
     23 CB         20.9654  -23.5959  -43.6894 C.3       2 UNK        -0.1831 
     24 N          18.8968  -23.9947  -44.9399 N.am      2 UNK        -0.4498 
     25 C          17.5880  -24.1444  -45.1940 C.2       1 UNK         0.5027 
     26 O          16.7489  -24.3800  -44.3191 O.2       1 UNK        -0.4969 
     27 C          19.3534  -27.5019  -40.6021 C.2       3 UNK         0.5005 
     28 O          19.7620  -26.6226  -39.8392 O.2       3 UNK        -0.5279 
     29 N          19.7982  -28.7674  -40.6121 N.am      4 UNK        -0.4463 
     30 CA         20.8620  -29.3521  -39.7858 C.3       4 UNK         0.0283 
     31 CB         20.4987  -29.3076  -38.2863 C.3       4 UNK        -0.1875 
     32 C          22.2721  -28.7923  -40.0708 C.2       4 UNK         0.4949 
     33 O          23.1763  -28.9844  -39.2546 O.2       4 UNK        -0.5039 
     34 N          22.4578  -28.1505  -41.2327 N.am      5 UNK        -0.4663 
     35 CA         23.7560  -27.6998  -41.7387 C.3       5 UNK         0.0242 
     36 CB         23.5237  -26.7740  -42.9439 C.3       5 UNK        -0.1982 
     37 C          24.6609  -28.8824  -42.1286 C.2       5 UNK         0.5017 
     38 O          24.1696  -29.9974  -42.3154 O.2       5 UNK        -0.5012 
     39 N          25.9686  -28.6110  -42.2517 N.am      6 UNK        -0.4439 
     40 CA         27.0272  -29.5672  -42.6094 C.3       6 UNK         0.0297 
     41 CB         26.8829  -30.0145  -44.0807 C.3       6 UNK        -0.2006 
     42 C          27.1158  -30.7540  -41.6272 C.2       6 UNK         0.4892 
     43 O          27.2262  -31.9029  -42.0575 O.2       6 UNK        -0.5089 
     44 N          27.0534  -30.4333  -40.3248 N.am      7 UNK        -0.4243 
     45 CA         27.0538  -31.3492  -39.1786 C.3       7 UNK         0.0196 
     46 CB         28.4032  -32.0916  -39.0625 C.3       7 UNK        -0.2007 
     47 C          25.8424  -32.2991  -39.2022 C.2       7 UNK         0.5020 
     48 O          26.0065  -33.5105  -39.3591 O.2       7 UNK        -0.5147 
     49 N          24.6422  -31.7168  -39.0567 N.am      8 UNK        -0.4734 
     50 CA         23.3409  -32.3973  -38.9910 C.3       8 UNK         0.0238 
     51 CB         23.2301  -33.2441  -37.7042 C.3       8 UNK        -0.1912 
     52 C          23.0021  -33.1921  -40.2668 C.2       8 UNK         0.5038 
     53 O          22.4430  -34.2868  -40.1744 O.2       8 UNK        -0.5046 
     54 N          23.3520  -32.6259  -41.4298 N.am      9 UNK        -0.4200 
     55 CA         23.1652  -33.2042  -42.7706 C.3       9 UNK         0.0839 
     56 C          24.0276  -34.4726  -43.0535 C.2       9 UNK         0.5513 
     57 N          25.0501  -34.7749  -42.2615 N.am      9 UNK        -0.7519 
     58 O          23.7869  -35.1830  -44.0267 O.2       9 UNK        -0.4960 
     59 C59        21.6660  -33.3916  -43.1496 C.3       10 UNK        -0.0876 
     60 S60        20.7076  -31.8433  -43.0068 S.3       10 UNK        -0.2414 
     61 C61        19.4331  -32.1063  -44.2765 C.3       10 UNK         0.0169 
     62 H62        13.1670  -23.6033  -46.8991 H         1 UNK         0.0903 
     63 H63        13.1387  -22.3382  -45.6692 H         1 UNK         0.0903 
     64 H64        13.2378  -21.9065  -47.3787 H         1 UNK         0.0903 
     65 H65        15.1631  -24.6269  -46.9744 H         1 UNK         0.3096 
     66 H66        17.6488  -23.1226  -47.0653 H         1 UNK         0.1121 
     67 H67        17.3400  -25.0182  -48.5883 H         1 UNK         0.0849 
     68 H68        18.6957  -25.2945  -47.5510 H         1 UNK         0.0849 
     69 H69        18.9580  -27.9896  -47.1056 H         1 UNK         0.0865 
     70 H70        18.8786  -26.8918  -45.7515 H         1 UNK         0.0865 
     71 H71        19.5956  -29.9878  -45.9753 H         1 UNK         0.1346 
     72 H72        17.2737  -31.5306  -42.7228 H         1 UNK         0.1412 
     73 H73        16.2743  -27.7371  -44.4522 H         1 UNK         0.1426 
     74 H74        14.9885  -30.3683  -42.3443 H         1 UNK         0.0716 
     75 H75        14.8408  -28.6753  -42.7457 H         1 UNK         0.0716 
     76 H76        16.7292  -26.7477  -40.1449 H         1 UNK         0.0695 
     77 H77        16.1198  -26.8205  -41.7726 H         1 UNK         0.0695 
     78 H78        18.3896  -27.8836  -42.4544 H         1 UNK         0.0983 
     79 H79        17.8522  -25.1178  -41.9589 H         1 UNK         0.3095 
     80 H80        18.9710  -23.4743  -42.9224 H         1 UNK         0.0454 
     81 H81        20.9982  -22.5471  -43.9845 H         1 UNK         0.0851 
     82 H82        21.5672  -24.1640  -44.4001 H         1 UNK         0.0851 
     83 H83        21.4538  -23.6727  -42.7170 H         1 UNK         0.0851 
     84 H84        19.5261  -23.8221  -45.7107 H         1 UNK         0.2976 
     85 H85        19.3849  -29.4037  -41.2818 H         1 UNK         0.3116 
     86 H86        20.9013  -30.4018  -40.0788 H         1 UNK         0.0646 
     87 H87        20.5065  -28.2892  -37.8974 H         1 UNK         0.0847 
     88 H88        21.2084  -29.8829  -37.6909 H         1 UNK         0.0847 
     89 H89        19.5102  -29.7292  -38.1044 H         1 UNK         0.0847 
     90 H90        21.6723  -28.0557  -41.8608 H         1 UNK         0.3040 
     91 H91        24.2517  -27.1345  -40.9464 H         1 UNK         0.1015 
     92 H92        22.9203  -25.9097  -42.6664 H         1 UNK         0.0786 
     93 H93        23.0110  -27.2917  -43.7560 H         1 UNK         0.0786 
     94 H94        24.4650  -26.3934  -43.3423 H         1 UNK         0.0786 
     95 H95        26.2775  -27.6636  -42.0794 H         1 UNK         0.3172 
     96 H96        27.9723  -29.0291  -42.5220 H         1 UNK         0.0595 
     97 H97        27.7309  -30.6283  -44.3870 H         1 UNK         0.0839 
     98 H98        26.8434  -29.1589  -44.7545 H         1 UNK         0.0839 
     99 H99        25.9812  -30.6076  -44.2379 H         1 UNK         0.0839 
    100 H100       26.9455  -29.4548  -40.0967 H         1 UNK         0.2998 
    101 H101       26.9475  -30.7315  -38.2852 H         1 UNK         0.0822 
    102 H102       28.4290  -32.7098  -38.1643 H         1 UNK         0.0787 
    103 H103       28.5837  -32.7506  -39.9123 H         1 UNK         0.0787 
    104 H104       29.2364  -31.3919  -38.9987 H         1 UNK         0.0787 
    105 H105       24.5958  -30.7057  -38.9917 H         1 UNK         0.3055 
    106 H106       22.5868  -31.6157  -38.9200 H         1 UNK         0.1106 
    107 H107       22.2215  -33.6412  -37.5830 H         1 UNK         0.0828 
    108 H108       23.9131  -34.0941  -37.7173 H         1 UNK         0.0828 
    109 H109       23.4501  -32.6497  -36.8175 H         1 UNK         0.0828 
    110 H110       23.7946  -31.7121  -41.4296 H         1 UNK         0.2931 
    111 H111       23.5687  -32.4546  -43.4520 H         1 UNK         0.0412 
    112 H112       25.2748  -34.1953  -41.4633 H         1 UNK         0.3472 
    113 H113       25.6075  -35.5894  -42.4635 H         1 UNK         0.3472 
    114 H114       21.1982  -34.1544  -42.5256 H         1 UNK         0.0970 
    115 H115       21.5845  -33.7516  -44.1766 H         1 UNK         0.0970 
    116 H116       19.9093  -32.2889  -45.2411 H         1 UNK         0.0612 
    117 H117       18.8577  -33.0016  -44.0354 H         1 UNK         0.0612 
@<TRIPOS>BOND
     1    1    2 1    
     2    1   62 1    
     3    1   63 1    
     4    1   64 1    
     5    2    3 2    
     6    2    4 am   BACKBONE|DICT|INTERRES
     7    4    5 1    
     8    4   65 1    
     9    5    6 1    
    10    5   25 1    
    11    5   66 1    
    12    6    7 1    
    13    6   67 1    
    14    6   68 1    
    15    7    8 1    
    16    8    9 1    
    17    8   69 1    
    18    8   70 1    
    19    9   10 ar   
    20    9   14 ar   
    21   10   11 ar   
    22   10   71 1    
    23   11   12 ar   
    24   11   61 1    
    25   12   13 ar   
    26   12   72 1    
    27   13   14 ar   
    28   13   15 1    
    29   14   73 1    
    30   15   16 1    
    31   15   74 1    
    32   15   75 1    
    33   16   17 1    
    34   17   18 1    
    35   17   76 1    
    36   17   77 1    
    37   18   19 1    
    38   18   27 1    
    39   18   78 1    
    40   19   20 am   BACKBONE|DICT|INTERRES
    41   19   79 1    
    42   20   21 2    
    43   20   22 1    
    44   22   23 1    
    45   22   24 1    
    46   22   80 1    
    47   23   81 1    
    48   23   82 1    
    49   23   83 1    
    50   24   25 am   BACKBONE|DICT|INTERRES
    51   24   84 1    
    52   25   26 2    
    53   27   28 2    
    54   27   29 am   BACKBONE|DICT|INTERRES
    55   29   30 1    
    56   29   85 1    
    57   30   31 1    
    58   30   32 1    
    59   30   86 1    
    60   31   87 1    
    61   31   88 1    
    62   31   89 1    
    63   32   33 2    
    64   32   34 am   BACKBONE|DICT|INTERRES
    65   34   35 1    
    66   34   90 1    
    67   35   36 1    
    68   35   37 1    
    69   35   91 1    
    70   36   92 1    
    71   36   93 1    
    72   36   94 1    
    73   37   38 2    
    74   37   39 am   BACKBONE|DICT|INTERRES
    75   39   40 1    
    76   39   95 1    
    77   40   41 1    
    78   40   42 1    
    79   40   96 1    
    80   41   97 1    
    81   41   98 1    
    82   41   99 1    
    83   42   43 2    
    84   42   44 am   BACKBONE|DICT|INTERRES
    85   44   45 1    
    86   44  100 1    
    87   45   46 1    
    88   45   47 1    
    89   45  101 1    
    90   46  102 1    
    91   46  103 1    
    92   46  104 1    
    93   47   48 2    
    94   47   49 am   BACKBONE|DICT|INTERRES
    95   49   50 1    
    96   49  105 1    
    97   50   51 1    
    98   50   52 1    
    99   50  106 1    
   100   51  107 1    
   101   51  108 1    
   102   51  109 1    
   103   52   53 2    
   104   52   54 am   BACKBONE|DICT|INTERRES
   105   54   55 1    
   106   54  110 1    
   107   55   56 1    
   108   55   59 1    
   109   55  111 1    
   110   56   57 am   BACKBONE|DICT|INTERRES
   111   56   58 2    
   112   57  112 1    
   113   57  113 1    
   114   59   60 1    
   115   59  114 1    
   116   59  115 1    
   117   60   61 1    
   118   61  116 1    
   119   61  117 1    
@<TRIPOS>SUBSTRUCTURE
     1 UNK         1 GROUP             0       ****    0 ROOT    
