@<TRIPOS>MOLECULE
3R8
117   119    1
SMALL
USER_CHARGES


@<TRIPOS>ATOM
      1 CA         18.9290  -24.4888  -38.9561 C.3       0 UNK        -0.2013 
      2 C          18.3524  -24.3565  -40.3578 C.2       0 UNK         0.4866 
      3 O          17.6784  -23.3690  -40.6547 O.2       0 UNK        -0.5176 
      4 N          18.6099  -25.3446  -41.2197 N.am      1 UNK        -0.4884 
      5 CA         18.2260  -25.3531  -42.6323 C.3       1 UNK         0.0853 
      6 C6         18.2410  -26.7895  -43.2153 C.3       10 UNK        -0.0849 
      7 S7         17.0600  -27.9063  -42.3855 S.3       10 UNK        -0.2776 
      8 C8         16.4928  -28.9444  -43.7714 C.3       10 UNK         0.0316 
      9 C9         17.6072  -29.8281  -44.3171 C.ar      10 UNK        -0.0863 
     10 C10        17.9461  -31.0171  -43.6640 C.ar      10 UNK        -0.1009 
     11 C11        18.9552  -31.8422  -44.1699 C.ar      10 UNK        -0.0712 
     12 C12        19.6378  -31.4644  -45.3305 C.ar      10 UNK        -0.0894 
     13 C13        19.3068  -30.2793  -45.9941 C.ar      10 UNK        -0.0745 
     14 C14        18.2846  -29.4705  -45.4869 C.ar      10 UNK        -0.0972 
     15 C15        20.0383  -29.8850  -47.2708 C.3       10 UNK         0.0209 
     16 S16        21.5914  -28.9995  -46.9236 S.3       10 UNK        -0.2568 
     17 C17        20.9621  -27.4808  -46.1337 C.3       10 UNK        -0.0983 
     18 CA         21.8393  -26.2242  -46.3673 C.3       3 UNK         0.0876 
     19 N          21.1724  -25.0379  -45.8482 N.am      3 UNK        -0.4424 
     20 C          20.2187  -24.3400  -46.4685 C.2       2 UNK         0.4918 
     21 O          19.8567  -24.5536  -47.6266 O.2       2 UNK        -0.4875 
     22 CA         19.5014  -23.2791  -45.6110 C.3       2 UNK         0.0481 
     23 CB         18.5960  -22.3549  -46.4458 C.3       2 UNK        -0.1831 
     24 N          18.6939  -23.9422  -44.5823 N.am      2 UNK        -0.4498 
     25 C          19.1813  -24.4581  -43.4454 C.2       1 UNK         0.5027 
     26 O          20.3525  -24.3109  -43.0829 O.2       1 UNK        -0.4969 
     27 C          23.1921  -26.3359  -45.6500 C.2       3 UNK         0.5005 
     28 O          23.2867  -25.9773  -44.4728 O.2       3 UNK        -0.5279 
     29 N          24.1966  -26.8907  -46.3425 N.am      4 UNK        -0.4463 
     30 CA         25.5298  -27.1843  -45.8019 C.3       4 UNK         0.0283 
     31 CB         26.4500  -27.6427  -46.9447 C.3       4 UNK        -0.1875 
     32 C          25.5246  -28.2260  -44.6658 C.2       4 UNK         0.4949 
     33 O          26.4579  -28.2460  -43.8637 O.2       4 UNK        -0.5039 
     34 N          24.4719  -29.0546  -44.6039 N.am      5 UNK        -0.4663 
     35 CA         24.2222  -30.0121  -43.5247 C.3       5 UNK         0.0242 
     36 CB         23.1417  -31.0045  -43.9812 C.3       5 UNK        -0.1982 
     37 C          23.8104  -29.3473  -42.1964 C.2       5 UNK         0.5017 
     38 O          23.9749  -29.9738  -41.1501 O.2       5 UNK        -0.5012 
     39 N          23.2998  -28.1063  -42.2595 N.am      6 UNK        -0.4439 
     40 CA         22.8072  -27.2653  -41.1635 C.3       6 UNK         0.0297 
     41 CB         23.9366  -26.8890  -40.1818 C.3       6 UNK        -0.2006 
     42 C          21.5765  -27.8481  -40.4470 C.2       6 UNK         0.4892 
     43 O          20.4696  -27.3603  -40.6669 O.2       6 UNK        -0.5089 
     44 N          21.7828  -28.8557  -39.5955 N.am      7 UNK        -0.4243 
     45 CA         20.7675  -29.5276  -38.7888 C.3       7 UNK         0.0196 
     46 CB         20.2666  -28.5966  -37.6648 C.3       7 UNK        -0.2007 
     47 C          21.3744  -30.8078  -38.2024 C.2       7 UNK         0.5020 
     48 O          22.6000  -30.9452  -38.1801 O.2       7 UNK        -0.5147 
     49 N          20.5022  -31.7013  -37.7112 N.am      8 UNK        -0.4734 
     50 CA         20.8211  -32.9997  -37.0964 C.3       8 UNK         0.0238 
     51 CB         21.5570  -32.8068  -35.7521 C.3       8 UNK        -0.1912 
     52 C          21.5691  -33.9343  -38.0673 C.2       8 UNK         0.5038 
     53 O          22.6488  -34.4349  -37.7458 O.2       8 UNK        -0.5046 
     54 N          20.9753  -34.1227  -39.2529 N.am      9 UNK        -0.4200 
     55 CA         21.5229  -34.9061  -40.3727 C.3       9 UNK         0.0839 
     56 C          21.7099  -36.4279  -40.0985 C.2       9 UNK         0.5513 
     57 N          21.0677  -37.0077  -39.0914 N.am      9 UNK        -0.7519 
     58 O          22.4499  -37.0930  -40.8187 O.2       9 UNK        -0.4960 
     59 C59        20.6963  -34.7009  -41.6691 C.3       10 UNK        -0.0876 
     60 S60        20.4876  -32.9516  -42.1440 S.3       10 UNK        -0.2414 
     61 C61        19.2804  -33.1600  -43.4858 C.3       10 UNK         0.0169 
     62 H62        18.1260  -24.5965  -38.2275 H         1 UNK         0.0903 
     63 H63        19.5869  -25.3533  -38.8693 H         1 UNK         0.0903 
     64 H64        19.5057  -23.6001  -38.7015 H         1 UNK         0.0903 
     65 H65        19.2172  -26.1158  -40.9400 H         1 UNK         0.3096 
     66 H66        17.2154  -24.9474  -42.7192 H         1 UNK         0.1121 
     67 H67        19.2367  -27.2314  -43.1368 H         1 UNK         0.0849 
     68 H68        18.0044  -26.7633  -44.2803 H         1 UNK         0.0849 
     69 H69        16.0779  -28.3118  -44.5578 H         1 UNK         0.0865 
     70 H70        15.6697  -29.5718  -43.4260 H         1 UNK         0.0865 
     71 H71        17.4195  -31.3037  -42.7637 H         1 UNK         0.1346 
     72 H72        20.4223  -32.0970  -45.7229 H         1 UNK         0.1412 
     73 H73        18.0159  -28.5603  -46.0045 H         1 UNK         0.1426 
     74 H74        19.3999  -29.2670  -47.9042 H         1 UNK         0.0716 
     75 H75        20.2670  -30.7786  -47.8534 H         1 UNK         0.0716 
     76 H76        20.8295  -27.6734  -45.0670 H         1 UNK         0.0695 
     77 H77        19.9644  -27.2896  -46.5300 H         1 UNK         0.0695 
     78 H78        22.0173  -26.0890  -47.4366 H         1 UNK         0.0983 
     79 H79        21.4163  -24.8041  -44.8895 H         1 UNK         0.3095 
     80 H80        20.2632  -22.6584  -45.1343 H         1 UNK         0.0454 
     81 H81        17.7968  -22.9065  -46.9426 H         1 UNK         0.0851 
     82 H82        19.1698  -21.8447  -47.2206 H         1 UNK         0.0851 
     83 H83        18.1363  -21.5853  -45.8256 H         1 UNK         0.0851 
     84 H84        17.7312  -24.1267  -44.8270 H         1 UNK         0.2976 
     85 H85        24.0234  -27.1834  -47.2944 H         1 UNK         0.3116 
     86 H86        25.9320  -26.2567  -45.3889 H         1 UNK         0.0646 
     87 H87        26.0887  -28.5597  -47.4119 H         1 UNK         0.0847 
     88 H88        27.4583  -27.8406  -46.5779 H         1 UNK         0.0847 
     89 H89        26.5345  -26.8799  -47.7189 H         1 UNK         0.0847 
     90 H90        23.7622  -28.9817  -45.3199 H         1 UNK         0.3040 
     91 H91        25.1450  -30.5670  -43.3411 H         1 UNK         0.1015 
     92 H92        23.4131  -31.4925  -44.9175 H         1 UNK         0.0786 
     93 H93        22.1771  -30.5150  -44.1229 H         1 UNK         0.0786 
     94 H94        23.0025  -31.7895  -43.2374 H         1 UNK         0.0786 
     95 H95        23.2443  -27.6699  -43.1731 H         1 UNK         0.3172 
     96 H96        22.4761  -26.3389  -41.6367 H         1 UNK         0.0595 
     97 H97        24.3740  -27.7598  -39.6932 H         1 UNK         0.0839 
     98 H98        23.5642  -26.2297  -39.3967 H         1 UNK         0.0839 
     99 H99        24.7397  -26.3593  -40.6943 H         1 UNK         0.0839 
    100 H100       22.7068  -29.2770  -39.5463 H         1 UNK         0.2998 
    101 H101       19.9356  -29.8057  -39.4396 H         1 UNK         0.0822 
    102 H102       19.7699  -27.7137  -38.0658 H         1 UNK         0.0787 
    103 H103       19.5435  -29.1018  -37.0236 H         1 UNK         0.0787 
    104 H104       21.0868  -28.2600  -37.0296 H         1 UNK         0.0787 
    105 H105       19.5168  -31.4832  -37.7764 H         1 UNK         0.3055 
    106 H106       19.8695  -33.4873  -36.8771 H         1 UNK         0.1106 
    107 H107       21.7043  -33.7629  -35.2484 H         1 UNK         0.0828 
    108 H108       20.9875  -32.1695  -35.0758 H         1 UNK         0.0828 
    109 H109       22.5415  -32.3576  -35.8860 H         1 UNK         0.0828 
    110 H110       20.1029  -33.6505  -39.4366 H         1 UNK         0.2931 
    111 H111       22.5231  -34.5100  -40.5598 H         1 UNK         0.0412 
    112 H112       20.4590  -36.4707  -38.4950 H         1 UNK         0.3472 
    113 H113       21.1986  -37.9932  -38.9235 H         1 UNK         0.3472 
    114 H114       21.1717  -35.2168  -42.5060 H         1 UNK         0.0970 
    115 H115       19.7075  -35.1504  -41.5568 H         1 UNK         0.0970 
    116 H116       18.3676  -33.6025  -43.0837 H         1 UNK         0.0612 
    117 H117       19.6722  -33.8717  -44.2144 H         1 UNK         0.0612 
@<TRIPOS>BOND
     1    1    2 1    
     2    1   62 1    
     3    1   63 1    
     4    1   64 1    
     5    2    3 2    
     6    2    4 am   BACKBONE|DICT|INTERRES
     7    4    5 1    
     8    4   65 1    
     9    5    6 1    
    10    5   25 1    
    11    5   66 1    
    12    6    7 1    
    13    6   67 1    
    14    6   68 1    
    15    7    8 1    
    16    8    9 1    
    17    8   69 1    
    18    8   70 1    
    19    9   10 ar   
    20    9   14 ar   
    21   10   11 ar   
    22   10   71 1    
    23   11   12 ar   
    24   11   61 1    
    25   12   13 ar   
    26   12   72 1    
    27   13   14 ar   
    28   13   15 1    
    29   14   73 1    
    30   15   16 1    
    31   15   74 1    
    32   15   75 1    
    33   16   17 1    
    34   17   18 1    
    35   17   76 1    
    36   17   77 1    
    37   18   19 1    
    38   18   27 1    
    39   18   78 1    
    40   19   20 am   BACKBONE|DICT|INTERRES
    41   19   79 1    
    42   20   21 2    
    43   20   22 1    
    44   22   23 1    
    45   22   24 1    
    46   22   80 1    
    47   23   81 1    
    48   23   82 1    
    49   23   83 1    
    50   24   25 am   BACKBONE|DICT|INTERRES
    51   24   84 1    
    52   25   26 2    
    53   27   28 2    
    54   27   29 am   BACKBONE|DICT|INTERRES
    55   29   30 1    
    56   29   85 1    
    57   30   31 1    
    58   30   32 1    
    59   30   86 1    
    60   31   87 1    
    61   31   88 1    
    62   31   89 1    
    63   32   33 2    
    64   32   34 am   BACKBONE|DICT|INTERRES
    65   34   35 1    
    66   34   90 1    
    67   35   36 1    
    68   35   37 1    
    69   35   91 1    
    70   36   92 1    
    71   36   93 1    
    72   36   94 1    
    73   37   38 2    
    74   37   39 am   BACKBONE|DICT|INTERRES
    75   39   40 1    
    76   39   95 1    
    77   40   41 1    
    78   40   42 1    
    79   40   96 1    
    80   41   97 1    
    81   41   98 1    
    82   41   99 1    
    83   42   43 2    
    84   42   44 am   BACKBONE|DICT|INTERRES
    85   44   45 1    
    86   44  100 1    
    87   45   46 1    
    88   45   47 1    
    89   45  101 1    
    90   46  102 1    
    91   46  103 1    
    92   46  104 1    
    93   47   48 2    
    94   47   49 am   BACKBONE|DICT|INTERRES
    95   49   50 1    
    96   49  105 1    
    97   50   51 1    
    98   50   52 1    
    99   50  106 1    
   100   51  107 1    
   101   51  108 1    
   102   51  109 1    
   103   52   53 2    
   104   52   54 am   BACKBONE|DICT|INTERRES
   105   54   55 1    
   106   54  110 1    
   107   55   56 1    
   108   55   59 1    
   109   55  111 1    
   110   56   57 am   BACKBONE|DICT|INTERRES
   111   56   58 2    
   112   57  112 1    
   113   57  113 1    
   114   59   60 1    
   115   59  114 1    
   116   59  115 1    
   117   60   61 1    
   118   61  116 1    
   119   61  117 1    
@<TRIPOS>SUBSTRUCTURE
     1 UNK         1 GROUP             0       ****    0 ROOT    
