@<TRIPOS>MOLECULE
3R8
117   119    1
SMALL
USER_CHARGES


@<TRIPOS>ATOM
      1 CA         16.9345  -27.2457  -41.2336 C.3       0 UNK        -0.2013 
      2 C          16.5258  -26.2805  -42.3340 C.2       0 UNK         0.4866 
      3 O          16.0210  -25.1957  -42.0408 O.2       0 UNK        -0.5176 
      4 N          16.7256  -26.6819  -43.5950 N.am      1 UNK        -0.4884 
      5 CA         16.4043  -25.8947  -44.7912 C.3       1 UNK         0.0853 
      6 C6         15.8445  -26.7799  -45.9412 C.3       10 UNK        -0.0849 
      7 S7         14.4204  -27.7939  -45.4094 S.3       10 UNK        -0.2776 
      8 C8         14.8742  -29.4578  -46.0041 C.3       10 UNK         0.0316 
      9 C9         16.1934  -29.9653  -45.4319 C.ar      10 UNK        -0.0863 
     10 C10        16.3162  -30.2422  -44.0651 C.ar      10 UNK        -0.1009 
     11 C11        17.5165  -30.7422  -43.5492 C.ar      10 UNK        -0.0712 
     12 C12        18.5901  -30.9735  -44.4134 C.ar      10 UNK        -0.0894 
     13 C13        18.4882  -30.6851  -45.7750 C.ar      10 UNK        -0.0745 
     14 C14        17.2848  -30.1861  -46.2806 C.ar      10 UNK        -0.0972 
     15 C15        19.6769  -30.9295  -46.6947 C.3       10 UNK         0.0209 
     16 S16        20.5099  -29.3847  -47.1814 S.3       10 UNK        -0.2568 
     17 C17        21.1489  -28.7664  -45.5851 C.3       10 UNK        -0.0983 
     18 CA         21.5603  -27.2748  -45.6540 C.3       3 UNK         0.0876 
     19 N          20.4617  -26.4354  -46.1364 N.am      3 UNK        -0.4424 
     20 C          20.5639  -25.1609  -46.5345 C.2       2 UNK         0.4918 
     21 O          21.6269  -24.5408  -46.5821 O.2       2 UNK        -0.4875 
     22 CA         19.2632  -24.4613  -46.9789 C.3       2 UNK         0.0481 
     23 CB         19.1887  -24.4005  -48.5132 C.3       2 UNK        -0.1831 
     24 N          18.0501  -25.1090  -46.4656 N.am      2 UNK        -0.4498 
     25 C          17.6382  -25.0503  -45.1896 C.2       1 UNK         0.5027 
     26 O          18.2052  -24.3616  -44.3387 O.2       1 UNK        -0.4969 
     27 C          22.0548  -26.7843  -44.2772 C.2       3 UNK         0.5005 
     28 O          21.2407  -26.3671  -43.4488 O.2       3 UNK        -0.5279 
     29 N          23.3738  -26.8502  -44.0529 N.am      4 UNK        -0.4463 
     30 CA         24.0147  -26.4562  -42.7969 C.3       4 UNK         0.0283 
     31 CB         25.5316  -26.3335  -43.0156 C.3       4 UNK        -0.1875 
     32 C          23.7164  -27.4575  -41.6703 C.2       4 UNK         0.4949 
     33 O          23.7917  -28.6663  -41.8955 O.2       4 UNK        -0.5039 
     34 N          23.4264  -26.9359  -40.4722 N.am      5 UNK        -0.4663 
     35 CA         23.2193  -27.7251  -39.2557 C.3       5 UNK         0.0242 
     36 CB         22.6614  -26.8112  -38.1528 C.3       5 UNK        -0.1982 
     37 C          24.5182  -28.4050  -38.7885 C.2       5 UNK         0.5017 
     38 O          25.6094  -27.9003  -39.0650 O.2       5 UNK        -0.5012 
     39 N          24.3740  -29.5465  -38.1037 N.am      6 UNK        -0.4439 
     40 CA         25.4159  -30.4616  -37.6106 C.3       6 UNK         0.0297 
     41 CB         26.4361  -29.7574  -36.6941 C.3       6 UNK        -0.2006 
     42 C          26.1112  -31.2621  -38.7272 C.2       6 UNK         0.4892 
     43 O          26.3558  -32.4546  -38.5406 O.2       6 UNK        -0.5089 
     44 N          26.3756  -30.6225  -39.8748 N.am      7 UNK        -0.4243 
     45 CA         26.7662  -31.2771  -41.1261 C.3       7 UNK         0.0196 
     46 CB         27.2457  -30.2169  -42.1301 C.3       7 UNK        -0.2007 
     47 C          25.6080  -32.1029  -41.7152 C.2       7 UNK         0.5020 
     48 O          25.8380  -33.1979  -42.2289 O.2       7 UNK        -0.5147 
     49 N          24.3865  -31.5740  -41.5929 N.am      8 UNK        -0.4734 
     50 CA         23.1207  -32.2348  -41.8868 C.3       8 UNK         0.0238 
     51 CB         22.5667  -31.6837  -43.2138 C.3       8 UNK        -0.1912 
     52 C          22.1459  -31.9757  -40.7260 C.2       8 UNK         0.5038 
     53 O          22.4548  -31.2040  -39.8127 O.2       8 UNK        -0.5046 
     54 N          20.9768  -32.6231  -40.7950 N.am      9 UNK        -0.4200 
     55 CA         19.8521  -32.4911  -39.8489 C.3       9 UNK         0.0839 
     56 C          20.0924  -33.1343  -38.4495 C.2       9 UNK         0.5513 
     57 N          21.1181  -33.9566  -38.2650 N.am      9 UNK        -0.7519 
     58 O          19.3185  -32.9118  -37.5217 O.2       9 UNK        -0.4960 
     59 C59        19.2760  -31.0437  -39.7400 C.3       10 UNK        -0.0876 
     60 S60        19.0721  -30.1762  -41.3335 S.3       10 UNK        -0.2414 
     61 C61        17.6606  -31.0628  -42.0680 C.3       10 UNK         0.0169 
     62 H62        18.0067  -27.1785  -41.0502 H         1 UNK         0.0903 
     63 H63        16.4133  -27.0159  -40.3046 H         1 UNK         0.0903 
     64 H64        16.6915  -28.2713  -41.5073 H         1 UNK         0.0903 
     65 H65        17.1412  -27.5868  -43.7668 H         1 UNK         0.3096 
     66 H66        15.6228  -25.1736  -44.5403 H         1 UNK         0.1121 
     67 H67        16.6225  -27.4299  -46.3426 H         1 UNK         0.0849 
     68 H68        15.5040  -26.1574  -46.7708 H         1 UNK         0.0849 
     69 H69        14.0802  -30.1552  -45.7335 H         1 UNK         0.0865 
     70 H70        14.9038  -29.4445  -47.0949 H         1 UNK         0.0865 
     71 H71        15.4734  -30.0731  -43.4086 H         1 UNK         0.1346 
     72 H72        19.5155  -31.3659  -44.0167 H         1 UNK         0.1412 
     73 H73        17.2016  -29.9736  -47.3380 H         1 UNK         0.1426 
     74 H74        19.3359  -31.4436  -47.5944 H         1 UNK         0.0716 
     75 H75        20.4037  -31.5926  -46.2225 H         1 UNK         0.0716 
     76 H76        21.9999  -29.3863  -45.2976 H         1 UNK         0.0695 
     77 H77        20.3896  -28.9065  -44.8143 H         1 UNK         0.0695 
     78 H78        22.3808  -27.1773  -46.3685 H         1 UNK         0.0983 
     79 H79        19.5497  -26.8631  -46.1263 H         1 UNK         0.3095 
     80 H80        19.2947  -23.4372  -46.6011 H         1 UNK         0.0454 
     81 H81        18.3095  -23.8497  -48.8476 H         1 UNK         0.0851 
     82 H82        19.1524  -25.3962  -48.9572 H         1 UNK         0.0851 
     83 H83        20.0616  -23.8929  -48.9261 H         1 UNK         0.0851 
     84 H84        17.5277  -25.6691  -47.1235 H         1 UNK         0.2976 
     85 H85        23.9755  -27.2460  -44.7606 H         1 UNK         0.3116 
     86 H86        23.6297  -25.4748  -42.5109 H         1 UNK         0.0646 
     87 H87        25.9704  -27.2756  -43.3457 H         1 UNK         0.0847 
     88 H88        26.0369  -26.0471  -42.0919 H         1 UNK         0.0847 
     89 H89        25.7662  -25.5736  -43.7612 H         1 UNK         0.0847 
     90 H90        23.4233  -25.9320  -40.3654 H         1 UNK         0.3040 
     91 H91        22.4808  -28.4985  -39.4809 H         1 UNK         0.1015 
     92 H92        23.3610  -26.0141  -37.8970 H         1 UNK         0.0786 
     93 H93        22.4625  -27.3748  -37.2402 H         1 UNK         0.0786 
     94 H94        21.7215  -26.3500  -38.4570 H         1 UNK         0.0786 
     95 H95        23.4327  -29.9117  -38.0220 H         1 UNK         0.3172 
     96 H96        24.8832  -31.1901  -36.9969 H         1 UNK         0.0595 
     97 H97        27.0637  -29.0524  -37.2394 H         1 UNK         0.0839 
     98 H98        27.1029  -30.4853  -36.2302 H         1 UNK         0.0839 
     99 H99        25.9396  -29.2142  -35.8901 H         1 UNK         0.0839 
    100 H100       26.1715  -29.6291  -39.9112 H         1 UNK         0.2998 
    101 H101       27.5947  -31.9569  -40.9156 H         1 UNK         0.0822 
    102 H102       28.0958  -29.6564  -41.7407 H         1 UNK         0.0787 
    103 H103       27.5625  -30.6810  -43.0650 H         1 UNK         0.0787 
    104 H104       26.4555  -29.5048  -42.3705 H         1 UNK         0.0787 
    105 H105       24.2853  -30.6557  -41.1735 H         1 UNK         0.3055 
    106 H106       23.2724  -33.3134  -41.9695 H         1 UNK         0.1106 
    107 H107       21.6840  -32.2369  -43.5336 H         1 UNK         0.0828 
    108 H108       22.2827  -30.6341  -43.1237 H         1 UNK         0.0828 
    109 H109       23.3016  -31.7626  -44.0150 H         1 UNK         0.0828 
    110 H110       20.8164  -33.2536  -41.5665 H         1 UNK         0.2931 
    111 H111       19.0656  -33.1085  -40.2822 H         1 UNK         0.0412 
    112 H112       21.7569  -34.1546  -39.0180 H         1 UNK         0.3472 
    113 H113       21.2579  -34.3765  -37.3593 H         1 UNK         0.3472 
    114 H114       19.9305  -30.4290  -39.1197 H         1 UNK         0.0970 
    115 H115       18.3106  -31.0562  -39.2309 H         1 UNK         0.0970 
    116 H116       16.7531  -30.8097  -41.5181 H         1 UNK         0.0612 
    117 H117       17.8024  -32.1383  -41.9641 H         1 UNK         0.0612 
@<TRIPOS>BOND
     1    1    2 1    
     2    1   62 1    
     3    1   63 1    
     4    1   64 1    
     5    2    3 2    
     6    2    4 am   BACKBONE|DICT|INTERRES
     7    4    5 1    
     8    4   65 1    
     9    5    6 1    
    10    5   25 1    
    11    5   66 1    
    12    6    7 1    
    13    6   67 1    
    14    6   68 1    
    15    7    8 1    
    16    8    9 1    
    17    8   69 1    
    18    8   70 1    
    19    9   10 ar   
    20    9   14 ar   
    21   10   11 ar   
    22   10   71 1    
    23   11   12 ar   
    24   11   61 1    
    25   12   13 ar   
    26   12   72 1    
    27   13   14 ar   
    28   13   15 1    
    29   14   73 1    
    30   15   16 1    
    31   15   74 1    
    32   15   75 1    
    33   16   17 1    
    34   17   18 1    
    35   17   76 1    
    36   17   77 1    
    37   18   19 1    
    38   18   27 1    
    39   18   78 1    
    40   19   20 am   BACKBONE|DICT|INTERRES
    41   19   79 1    
    42   20   21 2    
    43   20   22 1    
    44   22   23 1    
    45   22   24 1    
    46   22   80 1    
    47   23   81 1    
    48   23   82 1    
    49   23   83 1    
    50   24   25 am   BACKBONE|DICT|INTERRES
    51   24   84 1    
    52   25   26 2    
    53   27   28 2    
    54   27   29 am   BACKBONE|DICT|INTERRES
    55   29   30 1    
    56   29   85 1    
    57   30   31 1    
    58   30   32 1    
    59   30   86 1    
    60   31   87 1    
    61   31   88 1    
    62   31   89 1    
    63   32   33 2    
    64   32   34 am   BACKBONE|DICT|INTERRES
    65   34   35 1    
    66   34   90 1    
    67   35   36 1    
    68   35   37 1    
    69   35   91 1    
    70   36   92 1    
    71   36   93 1    
    72   36   94 1    
    73   37   38 2    
    74   37   39 am   BACKBONE|DICT|INTERRES
    75   39   40 1    
    76   39   95 1    
    77   40   41 1    
    78   40   42 1    
    79   40   96 1    
    80   41   97 1    
    81   41   98 1    
    82   41   99 1    
    83   42   43 2    
    84   42   44 am   BACKBONE|DICT|INTERRES
    85   44   45 1    
    86   44  100 1    
    87   45   46 1    
    88   45   47 1    
    89   45  101 1    
    90   46  102 1    
    91   46  103 1    
    92   46  104 1    
    93   47   48 2    
    94   47   49 am   BACKBONE|DICT|INTERRES
    95   49   50 1    
    96   49  105 1    
    97   50   51 1    
    98   50   52 1    
    99   50  106 1    
   100   51  107 1    
   101   51  108 1    
   102   51  109 1    
   103   52   53 2    
   104   52   54 am   BACKBONE|DICT|INTERRES
   105   54   55 1    
   106   54  110 1    
   107   55   56 1    
   108   55   59 1    
   109   55  111 1    
   110   56   57 am   BACKBONE|DICT|INTERRES
   111   56   58 2    
   112   57  112 1    
   113   57  113 1    
   114   59   60 1    
   115   59  114 1    
   116   59  115 1    
   117   60   61 1    
   118   61  116 1    
   119   61  117 1    
@<TRIPOS>SUBSTRUCTURE
     1 UNK         1 GROUP             0       ****    0 ROOT    
