@<TRIPOS>MOLECULE
3R8
117   119    1
SMALL
USER_CHARGES


@<TRIPOS>ATOM
      1 CA         14.1391  -23.1128  -47.3382 C.3       0 UNK        -0.2013 
      2 C          15.1775  -24.0212  -46.6980 C.2       0 UNK         0.4866 
      3 O          15.8565  -24.7705  -47.4018 O.2       0 UNK        -0.5176 
      4 N          15.3194  -23.9592  -45.3673 N.am      1 UNK        -0.4884 
      5 CA         16.2752  -24.7446  -44.5781 C.3       1 UNK         0.0853 
      6 C6         15.7574  -24.9540  -43.1302 C.3       10 UNK        -0.0849 
      7 S7         16.5649  -26.3640  -42.3023 S.3       10 UNK        -0.2776 
      8 C8         15.5439  -27.7611  -42.8706 C.3       10 UNK         0.0316 
      9 C9         16.4316  -28.9432  -43.2211 C.ar      10 UNK        -0.0863 
     10 C10        16.7776  -29.8811  -42.2438 C.ar      10 UNK        -0.1009 
     11 C11        17.6422  -30.9355  -42.5513 C.ar      10 UNK        -0.0712 
     12 C12        18.1616  -31.0471  -43.8445 C.ar      10 UNK        -0.0894 
     13 C13        17.8277  -30.1117  -44.8282 C.ar      10 UNK        -0.0745 
     14 C14        16.9441  -29.0736  -44.5153 C.ar      10 UNK        -0.0972 
     15 C15        18.4521  -30.2097  -46.2155 C.3       10 UNK         0.0209 
     16 S16        19.3033  -28.6775  -46.7268 S.3       10 UNK        -0.2568 
     17 C17        20.4444  -28.3827  -45.3302 C.3       10 UNK        -0.0983 
     18 CA         21.2402  -27.0614  -45.4827 C.3       3 UNK         0.0876 
     19 N          20.3457  -25.9161  -45.6757 N.am      3 UNK        -0.4424 
     20 C          20.7135  -24.6736  -46.0137 C.2       2 UNK         0.4918 
     21 O          21.8828  -24.3382  -46.2094 O.2       2 UNK        -0.4875 
     22 CA         19.5938  -23.6310  -46.2069 C.3       2 UNK         0.0481 
     23 CB         19.5749  -23.1232  -47.6588 C.3       2 UNK        -0.1831 
     24 N          18.2600  -24.1437  -45.8781 N.am      2 UNK        -0.4498 
     25 C          17.6939  -24.1316  -44.6644 C.2       1 UNK         0.5027 
     26 O          18.2301  -23.6415  -43.6693 O.2       1 UNK        -0.4969 
     27 C          22.1753  -26.8592  -44.2713 C.2       3 UNK         0.5005 
     28 O          21.8106  -26.1710  -43.3127 O.2       3 UNK        -0.5279 
     29 N          23.3523  -27.4989  -44.3137 N.am      4 UNK        -0.4463 
     30 CA         24.3628  -27.4883  -43.2515 C.3       4 UNK         0.0283 
     31 CB         25.7257  -27.8807  -43.8532 C.3       4 UNK        -0.1875 
     32 C          23.9605  -28.4026  -42.0793 C.2       4 UNK         0.4949 
     33 O          24.6105  -29.4243  -41.8439 O.2       4 UNK        -0.5039 
     34 N          22.8802  -28.0304  -41.3808 N.am      5 UNK        -0.4663 
     35 CA         22.2298  -28.7493  -40.2772 C.3       5 UNK         0.0242 
     36 CB         20.8379  -28.1320  -40.0457 C.3       5 UNK        -0.1982 
     37 C          23.0712  -28.8232  -38.9839 C.2       5 UNK         0.5017 
     38 O          22.6282  -28.3976  -37.9155 O.2       5 UNK        -0.5012 
     39 N          24.2755  -29.3731  -39.1232 N.am      6 UNK        -0.4439 
     40 CA         25.2485  -29.6979  -38.0874 C.3       6 UNK         0.0297 
     41 CB         26.0681  -28.4564  -37.6942 C.3       6 UNK        -0.2006 
     42 C          26.1439  -30.8339  -38.5999 C.2       6 UNK         0.4892 
     43 O          26.3873  -31.7907  -37.8642 O.2       6 UNK        -0.5089 
     44 N          26.5797  -30.7289  -39.8659 N.am      7 UNK        -0.4243 
     45 CA         27.2002  -31.8197  -40.6198 C.3       7 UNK         0.0196 
     46 CB         28.0384  -31.2365  -41.7698 C.3       7 UNK        -0.2007 
     47 C          26.1300  -32.7848  -41.1572 C.2       7 UNK         0.5020 
     48 O          26.2900  -34.0005  -41.0444 O.2       7 UNK        -0.5147 
     49 N          25.0500  -32.2194  -41.7118 N.am      8 UNK        -0.4734 
     50 CA         23.8347  -32.9262  -42.1115 C.3       8 UNK         0.0238 
     51 CB         23.1503  -32.1205  -43.2332 C.3       8 UNK        -0.1912 
     52 C          22.8829  -33.1069  -40.9144 C.2       8 UNK         0.5038 
     53 O          23.1308  -32.5687  -39.8322 O.2       8 UNK        -0.5046 
     54 N          21.7858  -33.8344  -41.1583 N.am      9 UNK        -0.4200 
     55 CA         20.6777  -34.0968  -40.2196 C.3       9 UNK         0.0839 
     56 C          20.9966  -35.1498  -39.1162 C.2       9 UNK         0.5513 
     57 N          22.1050  -35.8765  -39.1913 N.am      9 UNK        -0.7519 
     58 O          20.2103  -35.3366  -38.1909 O.2       9 UNK        -0.4960 
     59 C59        20.0124  -32.8148  -39.6293 C.3       10 UNK        -0.0876 
     60 S60        19.7042  -31.4954  -40.8507 S.3       10 UNK        -0.2414 
     61 C61        18.0588  -31.9281  -41.4789 C.3       10 UNK         0.0169 
     62 H62        13.6124  -22.5098  -46.5987 H         1 UNK         0.0903 
     63 H63        14.6178  -22.4383  -48.0476 H         1 UNK         0.0903 
     64 H64        13.4024  -23.7078  -47.8773 H         1 UNK         0.0903 
     65 H65        14.7612  -23.2983  -44.8441 H         1 UNK         0.3096 
     66 H66        16.3408  -25.7330  -45.0394 H         1 UNK         0.1121 
     67 H67        15.8958  -24.0558  -42.5253 H         1 UNK         0.0849 
     68 H68        14.6817  -25.1390  -43.1338 H         1 UNK         0.0849 
     69 H69        14.8324  -28.0325  -42.0891 H         1 UNK         0.0865 
     70 H70        14.9494  -27.4776  -43.7405 H         1 UNK         0.0865 
     71 H71        16.3962  -29.7742  -41.2374 H         1 UNK         0.1346 
     72 H72        18.8504  -31.8492  -44.0723 H         1 UNK         0.1412 
     73 H73        16.6901  -28.3436  -45.2717 H         1 UNK         0.1426 
     74 H74        17.6703  -30.4385  -46.9408 H         1 UNK         0.0716 
     75 H75        19.1666  -31.0331  -46.2618 H         1 UNK         0.0716 
     76 H76        19.8695  -28.3658  -44.4020 H         1 UNK         0.0695 
     77 H77        21.1202  -29.2371  -45.2583 H         1 UNK         0.0695 
     78 H78        21.8629  -27.1337  -46.3771 H         1 UNK         0.0983 
     79 H79        19.3649  -26.0990  -45.5345 H         1 UNK         0.3095 
     80 H80        19.8230  -22.7843  -45.5567 H         1 UNK         0.0454 
     81 H81        20.5358  -22.6870  -47.9356 H         1 UNK         0.0851 
     82 H82        19.3665  -23.9277  -48.3651 H         1 UNK         0.0851 
     83 H83        18.8195  -22.3498  -47.7988 H         1 UNK         0.0851 
     84 H84        17.7051  -24.5110  -46.6462 H         1 UNK         0.2976 
     85 H85        23.5618  -28.0740  -45.1175 H         1 UNK         0.3116 
     86 H86        24.4525  -26.4728  -42.8597 H         1 UNK         0.0646 
     87 H87        26.5077  -27.8615  -43.0929 H         1 UNK         0.0847 
     88 H88        26.0265  -27.1897  -44.6407 H         1 UNK         0.0847 
     89 H89        25.7092  -28.8862  -44.2759 H         1 UNK         0.0847 
     90 H90        22.4079  -27.1909  -41.7044 H         1 UNK         0.3040 
     91 H91        22.0838  -29.7813  -40.6023 H         1 UNK         0.1015 
     92 H92        20.2290  -28.1775  -40.9495 H         1 UNK         0.0786 
     93 H93        20.9055  -27.0882  -39.7371 H         1 UNK         0.0786 
     94 H94        20.2946  -28.6711  -39.2683 H         1 UNK         0.0786 
     95 H95        24.5064  -29.6755  -40.0663 H         1 UNK         0.3172 
     96 H96        24.7127  -30.0635  -37.2089 H         1 UNK         0.0595 
     97 H97        25.4308  -27.6784  -37.2737 H         1 UNK         0.0839 
     98 H98        26.5954  -28.0305  -38.5485 H         1 UNK         0.0839 
     99 H99        26.8145  -28.7064  -36.9391 H         1 UNK         0.0839 
    100 H100       26.3587  -29.8953  -40.3927 H         1 UNK         0.2998 
    101 H101       27.8656  -32.3804  -39.9593 H         1 UNK         0.0822 
    102 H102       28.8328  -30.5922  -41.3928 H         1 UNK         0.0787 
    103 H103       28.5126  -32.0314  -42.3471 H         1 UNK         0.0787 
    104 H104       27.4304  -30.6497  -42.4601 H         1 UNK         0.0787 
    105 H105       24.9967  -31.2050  -41.7542 H         1 UNK         0.3055 
    106 H106       24.1035  -33.9137  -42.4936 H         1 UNK         0.1106 
    107 H107       22.7538  -31.1730  -42.8663 H         1 UNK         0.0828 
    108 H108       23.8434  -31.9001  -44.0453 H         1 UNK         0.0828 
    109 H109       22.3152  -32.6715  -43.6666 H         1 UNK         0.0828 
    110 H110       21.6720  -34.2428  -42.0743 H         1 UNK         0.2931 
    111 H111       19.9177  -34.5783  -40.8357 H         1 UNK         0.0412 
    112 H112       22.2954  -36.5628  -38.4778 H         1 UNK         0.3472 
    113 H113       22.7581  -35.7373  -39.9455 H         1 UNK         0.3472 
    114 H114       20.6460  -32.3913  -38.8481 H         1 UNK         0.0970 
    115 H115       19.0701  -33.0656  -39.1391 H         1 UNK         0.0970 
    116 H116       17.3418  -31.9335  -40.6564 H         1 UNK         0.0612 
    117 H117       18.0773  -32.9381  -41.8911 H         1 UNK         0.0612 
@<TRIPOS>BOND
     1    1    2 1    
     2    1   62 1    
     3    1   63 1    
     4    1   64 1    
     5    2    3 2    
     6    2    4 am   BACKBONE|DICT|INTERRES
     7    4    5 1    
     8    4   65 1    
     9    5    6 1    
    10    5   25 1    
    11    5   66 1    
    12    6    7 1    
    13    6   67 1    
    14    6   68 1    
    15    7    8 1    
    16    8    9 1    
    17    8   69 1    
    18    8   70 1    
    19    9   10 ar   
    20    9   14 ar   
    21   10   11 ar   
    22   10   71 1    
    23   11   12 ar   
    24   11   61 1    
    25   12   13 ar   
    26   12   72 1    
    27   13   14 ar   
    28   13   15 1    
    29   14   73 1    
    30   15   16 1    
    31   15   74 1    
    32   15   75 1    
    33   16   17 1    
    34   17   18 1    
    35   17   76 1    
    36   17   77 1    
    37   18   19 1    
    38   18   27 1    
    39   18   78 1    
    40   19   20 am   BACKBONE|DICT|INTERRES
    41   19   79 1    
    42   20   21 2    
    43   20   22 1    
    44   22   23 1    
    45   22   24 1    
    46   22   80 1    
    47   23   81 1    
    48   23   82 1    
    49   23   83 1    
    50   24   25 am   BACKBONE|DICT|INTERRES
    51   24   84 1    
    52   25   26 2    
    53   27   28 2    
    54   27   29 am   BACKBONE|DICT|INTERRES
    55   29   30 1    
    56   29   85 1    
    57   30   31 1    
    58   30   32 1    
    59   30   86 1    
    60   31   87 1    
    61   31   88 1    
    62   31   89 1    
    63   32   33 2    
    64   32   34 am   BACKBONE|DICT|INTERRES
    65   34   35 1    
    66   34   90 1    
    67   35   36 1    
    68   35   37 1    
    69   35   91 1    
    70   36   92 1    
    71   36   93 1    
    72   36   94 1    
    73   37   38 2    
    74   37   39 am   BACKBONE|DICT|INTERRES
    75   39   40 1    
    76   39   95 1    
    77   40   41 1    
    78   40   42 1    
    79   40   96 1    
    80   41   97 1    
    81   41   98 1    
    82   41   99 1    
    83   42   43 2    
    84   42   44 am   BACKBONE|DICT|INTERRES
    85   44   45 1    
    86   44  100 1    
    87   45   46 1    
    88   45   47 1    
    89   45  101 1    
    90   46  102 1    
    91   46  103 1    
    92   46  104 1    
    93   47   48 2    
    94   47   49 am   BACKBONE|DICT|INTERRES
    95   49   50 1    
    96   49  105 1    
    97   50   51 1    
    98   50   52 1    
    99   50  106 1    
   100   51  107 1    
   101   51  108 1    
   102   51  109 1    
   103   52   53 2    
   104   52   54 am   BACKBONE|DICT|INTERRES
   105   54   55 1    
   106   54  110 1    
   107   55   56 1    
   108   55   59 1    
   109   55  111 1    
   110   56   57 am   BACKBONE|DICT|INTERRES
   111   56   58 2    
   112   57  112 1    
   113   57  113 1    
   114   59   60 1    
   115   59  114 1    
   116   59  115 1    
   117   60   61 1    
   118   61  116 1    
   119   61  117 1    
@<TRIPOS>SUBSTRUCTURE
     1 UNK         1 GROUP             0       ****    0 ROOT    
