@<TRIPOS>MOLECULE
3R8
117   119    1
SMALL
USER_CHARGES


@<TRIPOS>ATOM
      1 CA         15.6560  -25.9005  -41.2632 C.3       0 UNK        -0.2013 
      2 C          16.5762  -26.1212  -42.4546 C.2       0 UNK         0.4866 
      3 O          17.5379  -26.8798  -42.3387 O.2       0 UNK        -0.5176 
      4 N          16.2723  -25.4672  -43.5866 N.am      1 UNK        -0.4884 
      5 CA         17.0119  -25.4774  -44.8606 C.3       1 UNK         0.0853 
      6 C6         17.2180  -26.9008  -45.4520 C.3       10 UNK        -0.0849 
      7 S7         15.6640  -27.7903  -45.8255 S.3       10 UNK        -0.2776 
      8 C8         15.6506  -29.1658  -44.6129 C.3       10 UNK         0.0316 
      9 C9         16.9587  -29.9511  -44.4930 C.ar      10 UNK        -0.0863 
     10 C10        17.3269  -30.4682  -43.2459 C.ar      10 UNK        -0.1009 
     11 C11        18.5556  -31.1117  -43.0711 C.ar      10 UNK        -0.0712 
     12 C12        19.4263  -31.2329  -44.1570 C.ar      10 UNK        -0.0894 
     13 C13        19.0744  -30.7180  -45.4081 C.ar      10 UNK        -0.0745 
     14 C14        17.8240  -30.1202  -45.5815 C.ar      10 UNK        -0.0972 
     15 C15        20.0902  -30.7039  -46.5418 C.3       10 UNK         0.0209 
     16 S16        20.8174  -29.0403  -46.7683 S.3       10 UNK        -0.2568 
     17 C17        21.3403  -28.6405  -45.0643 C.3       10 UNK        -0.0983 
     18 CA         21.9838  -27.2446  -44.8878 C.3       3 UNK         0.0876 
     19 N          21.1326  -26.1839  -45.4338 N.am      3 UNK        -0.4424 
     20 C          21.4443  -24.8847  -45.5413 C.2       2 UNK         0.4918 
     21 O          22.5334  -24.4129  -45.2151 O.2       2 UNK        -0.4875 
     22 CA         20.3413  -23.9500  -46.0793 C.3       2 UNK         0.0481 
     23 CB         20.6045  -23.6082  -47.5543 C.3       2 UNK        -0.1831 
     24 N          18.9873  -24.5061  -45.9447 N.am      2 UNK        -0.4498 
     25 C          18.3618  -24.7239  -44.7768 C.2       1 UNK         0.5027 
     26 O          18.8385  -24.3815  -43.6921 O.2       1 UNK        -0.4969 
     27 C          22.3148  -27.0578  -43.3909 C.2       3 UNK         0.5005 
     28 O          23.2786  -27.6648  -42.9230 O.2       3 UNK        -0.5279 
     29 N          21.5136  -26.2623  -42.6609 N.am      4 UNK        -0.4463 
     30 CA         21.5440  -26.0729  -41.2031 C.3       4 UNK         0.0283 
     31 CB         20.4506  -25.0683  -40.8068 C.3       4 UNK        -0.1875 
     32 C          22.8948  -25.6474  -40.5970 C.2       4 UNK         0.4949 
     33 O          23.0966  -25.8426  -39.3986 O.2       4 UNK        -0.5039 
     34 N          23.8022  -25.1038  -41.4203 N.am      5 UNK        -0.4663 
     35 CA         25.1962  -24.8291  -41.0590 C.3       5 UNK         0.0242 
     36 CB         25.8579  -24.0239  -42.1887 C.3       5 UNK        -0.1982 
     37 C          26.0116  -26.1030  -40.7547 C.2       5 UNK         0.5017 
     38 O          26.9632  -26.0293  -39.9763 O.2       5 UNK        -0.5012 
     39 N          25.6237  -27.2338  -41.3605 N.am      6 UNK        -0.4439 
     40 CA         26.1853  -28.5633  -41.1188 C.3       6 UNK         0.0297 
     41 CB         26.6215  -29.1835  -42.4568 C.3       6 UNK        -0.2006 
     42 C          25.1644  -29.4697  -40.4127 C.2       6 UNK         0.4892 
     43 O          25.5389  -30.1666  -39.4688 O.2       6 UNK        -0.5089 
     44 N          23.9032  -29.4319  -40.8739 N.am      7 UNK        -0.4243 
     45 CA         22.7566  -30.2264  -40.4204 C.3       7 UNK         0.0196 
     46 CB         22.2995  -29.7606  -39.0189 C.3       7 UNK        -0.2007 
     47 C          23.0271  -31.7420  -40.5391 C.2       7 UNK         0.5020 
     48 O          23.4622  -32.1869  -41.6022 O.2       7 UNK        -0.5147 
     49 N          22.7613  -32.4992  -39.4634 N.am      8 UNK        -0.4734 
     50 CA         23.0430  -33.9333  -39.2877 C.3       8 UNK         0.0238 
     51 CB         24.5669  -34.1851  -39.2746 C.3       8 UNK        -0.1912 
     52 C          22.2981  -34.8664  -40.2661 C.2       8 UNK         0.5038 
     53 O          22.7946  -35.9539  -40.5679 O.2       8 UNK        -0.5046 
     54 N          21.1170  -34.4409  -40.7306 N.am      9 UNK        -0.4200 
     55 CA         20.1987  -35.2478  -41.5467 C.3       9 UNK         0.0839 
     56 C          19.4940  -36.3728  -40.7362 C.2       9 UNK         0.5513 
     57 N          19.0000  -37.4021  -41.4112 N.am      9 UNK        -0.7519 
     58 O          19.3715  -36.3159  -39.5136 O.2       9 UNK        -0.4960 
     59 C59        19.1949  -34.3615  -42.3316 C.3       10 UNK        -0.0876 
     60 S60        18.2172  -33.2188  -41.2908 S.3       10 UNK        -0.2414 
     61 C61        18.9676  -31.6105  -41.6932 C.3       10 UNK         0.0169 
     62 H62        16.2180  -25.4774  -40.4310 H         1 UNK         0.0903 
     63 H63        14.8354  -25.2230  -41.4984 H         1 UNK         0.0903 
     64 H64        15.2299  -26.8497  -40.9392 H         1 UNK         0.0903 
     65 H65        15.4704  -24.8522  -43.5794 H         1 UNK         0.3096 
     66 H66        16.3959  -24.9103  -45.5607 H         1 UNK         0.1121 
     67 H67        17.8518  -27.4915  -44.7913 H         1 UNK         0.0849 
     68 H68        17.7603  -26.8542  -46.3975 H         1 UNK         0.0849 
     69 H69        15.3832  -28.7461  -43.6419 H         1 UNK         0.0865 
     70 H70        14.8509  -29.8583  -44.8780 H         1 UNK         0.0865 
     71 H71        16.6698  -30.3429  -42.3961 H         1 UNK         0.1346 
     72 H72        20.4007  -31.6808  -44.0173 H         1 UNK         0.1412 
     73 H73        17.5653  -29.7135  -46.5492 H         1 UNK         0.1426 
     74 H74        20.8905  -31.4207  -46.3511 H         1 UNK         0.0716 
     75 H75        19.6110  -31.0161  -47.4708 H         1 UNK         0.0716 
     76 H76        20.4622  -28.7032  -44.4192 H         1 UNK         0.0695 
     77 H77        22.0254  -29.4240  -44.7327 H         1 UNK         0.0695 
     78 H78        22.9291  -27.2235  -45.4339 H         1 UNK         0.0983 
     79 H79        20.2299  -26.4843  -45.7671 H         1 UNK         0.3095 
     80 H80        20.3858  -23.0244  -45.5016 H         1 UNK         0.0454 
     81 H81        20.5630  -24.4938  -48.1896 H         1 UNK         0.0851 
     82 H82        19.8785  -22.8879  -47.9316 H         1 UNK         0.0851 
     83 H83        21.5928  -23.1637  -47.6811 H         1 UNK         0.0851 
     84 H84        18.5298  -24.7787  -46.8035 H         1 UNK         0.2976 
     85 H85        20.7485  -25.8046  -43.1399 H         1 UNK         0.3116 
     86 H86        21.2927  -27.0376  -40.7584 H         1 UNK         0.0646 
     87 H87        20.6093  -24.0956  -41.2740 H         1 UNK         0.0847 
     88 H88        19.4621  -25.4214  -41.0993 H         1 UNK         0.0847 
     89 H89        20.4282  -24.9137  -39.7271 H         1 UNK         0.0847 
     90 H90        23.5438  -24.9691  -42.3879 H         1 UNK         0.3040 
     91 H91        25.1956  -24.2187  -40.1531 H         1 UNK         0.1015 
     92 H92        25.8679  -24.5789  -43.1279 H         1 UNK         0.0786 
     93 H93        26.8926  -23.7821  -41.9414 H         1 UNK         0.0786 
     94 H94        25.3388  -23.0808  -42.3611 H         1 UNK         0.0786 
     95 H95        24.8057  -27.1969  -41.9647 H         1 UNK         0.3172 
     96 H96        27.0660  -28.4941  -40.4770 H         1 UNK         0.0595 
     97 H97        27.0324  -30.1830  -42.3076 H         1 UNK         0.0839 
     98 H98        27.3945  -28.5831  -42.9365 H         1 UNK         0.0839 
     99 H99        25.7875  -29.2740  -43.1543 H         1 UNK         0.0839 
    100 H100       23.7140  -28.8391  -41.6806 H         1 UNK         0.2998 
    101 H101       21.9478  -30.0087  -41.1196 H         1 UNK         0.0822 
    102 H102       22.1232  -28.6848  -39.0048 H         1 UNK         0.0787 
    103 H103       21.3630  -30.2368  -38.7255 H         1 UNK         0.0787 
    104 H104       23.0440  -29.9765  -38.2515 H         1 UNK         0.0787 
    105 H105       22.3938  -32.0280  -38.6478 H         1 UNK         0.3055 
    106 H106       22.6648  -34.1954  -38.2981 H         1 UNK         0.1106 
    107 H107       25.0712  -33.5327  -38.5617 H         1 UNK         0.0828 
    108 H108       24.7947  -35.2124  -38.9874 H         1 UNK         0.0828 
    109 H109       25.0125  -34.0156  -40.2554 H         1 UNK         0.0828 
    110 H110       20.7580  -33.5580  -40.4023 H         1 UNK         0.2931 
    111 H111       20.8129  -35.7545  -42.2944 H         1 UNK         0.0412 
    112 H112       18.5313  -38.1389  -40.9068 H         1 UNK         0.3472 
    113 H113       19.0932  -37.4638  -42.4135 H         1 UNK         0.3472 
    114 H114       19.7417  -33.7927  -43.0824 H         1 UNK         0.0970 
    115 H115       18.4998  -34.9803  -42.9018 H         1 UNK         0.0970 
    116 H116       18.6616  -30.8833  -40.9396 H         1 UNK         0.0612 
    117 H117       20.0530  -31.6853  -41.6186 H         1 UNK         0.0612 
@<TRIPOS>BOND
     1    1    2 1    
     2    1   62 1    
     3    1   63 1    
     4    1   64 1    
     5    2    3 2    
     6    2    4 am   BACKBONE|DICT|INTERRES
     7    4    5 1    
     8    4   65 1    
     9    5    6 1    
    10    5   25 1    
    11    5   66 1    
    12    6    7 1    
    13    6   67 1    
    14    6   68 1    
    15    7    8 1    
    16    8    9 1    
    17    8   69 1    
    18    8   70 1    
    19    9   10 ar   
    20    9   14 ar   
    21   10   11 ar   
    22   10   71 1    
    23   11   12 ar   
    24   11   61 1    
    25   12   13 ar   
    26   12   72 1    
    27   13   14 ar   
    28   13   15 1    
    29   14   73 1    
    30   15   16 1    
    31   15   74 1    
    32   15   75 1    
    33   16   17 1    
    34   17   18 1    
    35   17   76 1    
    36   17   77 1    
    37   18   19 1    
    38   18   27 1    
    39   18   78 1    
    40   19   20 am   BACKBONE|DICT|INTERRES
    41   19   79 1    
    42   20   21 2    
    43   20   22 1    
    44   22   23 1    
    45   22   24 1    
    46   22   80 1    
    47   23   81 1    
    48   23   82 1    
    49   23   83 1    
    50   24   25 am   BACKBONE|DICT|INTERRES
    51   24   84 1    
    52   25   26 2    
    53   27   28 2    
    54   27   29 am   BACKBONE|DICT|INTERRES
    55   29   30 1    
    56   29   85 1    
    57   30   31 1    
    58   30   32 1    
    59   30   86 1    
    60   31   87 1    
    61   31   88 1    
    62   31   89 1    
    63   32   33 2    
    64   32   34 am   BACKBONE|DICT|INTERRES
    65   34   35 1    
    66   34   90 1    
    67   35   36 1    
    68   35   37 1    
    69   35   91 1    
    70   36   92 1    
    71   36   93 1    
    72   36   94 1    
    73   37   38 2    
    74   37   39 am   BACKBONE|DICT|INTERRES
    75   39   40 1    
    76   39   95 1    
    77   40   41 1    
    78   40   42 1    
    79   40   96 1    
    80   41   97 1    
    81   41   98 1    
    82   41   99 1    
    83   42   43 2    
    84   42   44 am   BACKBONE|DICT|INTERRES
    85   44   45 1    
    86   44  100 1    
    87   45   46 1    
    88   45   47 1    
    89   45  101 1    
    90   46  102 1    
    91   46  103 1    
    92   46  104 1    
    93   47   48 2    
    94   47   49 am   BACKBONE|DICT|INTERRES
    95   49   50 1    
    96   49  105 1    
    97   50   51 1    
    98   50   52 1    
    99   50  106 1    
   100   51  107 1    
   101   51  108 1    
   102   51  109 1    
   103   52   53 2    
   104   52   54 am   BACKBONE|DICT|INTERRES
   105   54   55 1    
   106   54  110 1    
   107   55   56 1    
   108   55   59 1    
   109   55  111 1    
   110   56   57 am   BACKBONE|DICT|INTERRES
   111   56   58 2    
   112   57  112 1    
   113   57  113 1    
   114   59   60 1    
   115   59  114 1    
   116   59  115 1    
   117   60   61 1    
   118   61  116 1    
   119   61  117 1    
@<TRIPOS>SUBSTRUCTURE
     1 UNK         1 GROUP             0       ****    0 ROOT    
