@<TRIPOS>MOLECULE
3R8
117   119    1
SMALL
USER_CHARGES


@<TRIPOS>ATOM
      1 CA         17.9106  -22.5257  -40.1659 C.3       0 UNK        -0.2013 
      2 C          17.2649  -23.6546  -40.9554 C.2       0 UNK         0.4866 
      3 O          16.2667  -24.2220  -40.5102 O.2       0 UNK        -0.5176 
      4 N          17.8221  -23.9803  -42.1245 N.am      1 UNK        -0.4884 
      5 CA         17.3524  -25.0260  -43.0318 C.3       1 UNK         0.0853 
      6 C6         17.7252  -26.4536  -42.5484 C.3       10 UNK        -0.0849 
      7 S7         19.5202  -26.7370  -42.3359 S.3       10 UNK        -0.2776 
      8 C8         19.5385  -28.5044  -41.8663 C.3       10 UNK         0.0316 
      9 C9         19.6359  -29.4859  -43.0359 C.ar      10 UNK        -0.0863 
     10 C10        20.1353  -30.7694  -42.7953 C.ar      10 UNK        -0.1009 
     11 C11        20.2892  -31.6893  -43.8383 C.ar      10 UNK        -0.0712 
     12 C12        19.9270  -31.3215  -45.1383 C.ar      10 UNK        -0.0894 
     13 C13        19.4088  -30.0494  -45.3934 C.ar      10 UNK        -0.0745 
     14 C14        19.2531  -29.1471  -44.3389 C.ar      10 UNK        -0.0972 
     15 C15        19.0169  -29.6347  -46.8053 C.3       10 UNK         0.0209 
     16 S16        20.4472  -29.1859  -47.8478 S.3       10 UNK        -0.2568 
     17 C17        21.3946  -27.9951  -46.8351 C.3       10 UNK        -0.0983 
     18 CA         21.0475  -26.5090  -47.1062 C.3       3 UNK         0.0876 
     19 N          19.6434  -26.2068  -46.8082 N.am      3 UNK        -0.4424 
     20 C          18.9484  -25.2138  -47.3753 C.2       2 UNK         0.4918 
     21 O          19.4045  -24.4614  -48.2365 O.2       2 UNK        -0.4875 
     22 CA         17.4982  -25.0159  -46.8944 C.3       2 UNK         0.0481 
     23 CB         16.5367  -25.8528  -47.7535 C.3       2 UNK        -0.1831 
     24 N          17.2593  -25.3071  -45.4726 N.am      2 UNK        -0.4498 
     25 C          17.8751  -24.7046  -44.4440 C.2       1 UNK         0.5027 
     26 O          18.8219  -23.9234  -44.5760 O.2       1 UNK        -0.4969 
     27 C          22.0193  -25.6071  -46.3135 C.2       3 UNK         0.5005 
     28 O          23.1936  -25.5416  -46.6806 O.2       3 UNK        -0.5279 
     29 N          21.5412  -24.9757  -45.2256 N.am      4 UNK        -0.4463 
     30 CA         22.3183  -24.2712  -44.1945 C.3       4 UNK         0.0283 
     31 CB         22.9164  -22.9632  -44.7528 C.3       4 UNK        -0.1875 
     32 C          23.3704  -25.1844  -43.5271 C.2       4 UNK         0.4949 
     33 O          24.4972  -24.7557  -43.2724 O.2       4 UNK        -0.5039 
     34 N          22.9820  -26.4426  -43.2920 N.am      5 UNK        -0.4663 
     35 CA         23.8257  -27.5103  -42.7600 C.3       5 UNK         0.0242 
     36 CB         23.5134  -28.7968  -43.5478 C.3       5 UNK        -0.1982 
     37 C          23.5772  -27.7173  -41.2579 C.2       5 UNK         0.5017 
     38 O          22.6603  -27.1235  -40.6852 O.2       5 UNK        -0.5012 
     39 N          24.3959  -28.5828  -40.6482 N.am      6 UNK        -0.4439 
     40 CA         24.1908  -29.0957  -39.2932 C.3       6 UNK         0.0297 
     41 CB         25.4971  -29.7418  -38.8007 C.3       6 UNK        -0.2006 
     42 C          23.0438  -30.1208  -39.2647 C.2       6 UNK         0.4892 
     43 O          22.7591  -30.7556  -40.2806 O.2       6 UNK        -0.5089 
     44 N          22.4409  -30.3076  -38.0848 N.am      7 UNK        -0.4243 
     45 CA         21.3564  -31.2699  -37.8512 C.3       7 UNK         0.0196 
     46 CB         20.6825  -30.9420  -36.5088 C.3       7 UNK        -0.2007 
     47 C          21.7980  -32.7473  -37.8861 C.2       7 UNK         0.5020 
     48 O          20.9373  -33.6271  -37.9092 O.2       7 UNK        -0.5147 
     49 N          23.1148  -33.0025  -37.8804 N.am      8 UNK        -0.4734 
     50 CA         23.7407  -34.3292  -37.8380 C.3       8 UNK         0.0238 
     51 CB         25.2674  -34.1606  -37.7742 C.3       8 UNK        -0.1912 
     52 C          23.3544  -35.2732  -38.9917 C.2       8 UNK         0.5038 
     53 O          23.3396  -36.4872  -38.7832 O.2       8 UNK        -0.5046 
     54 N          23.0415  -34.7148  -40.1685 N.am      9 UNK        -0.4200 
     55 CA         22.5061  -35.4572  -41.3210 C.3       9 UNK         0.0839 
     56 C          20.9900  -35.8015  -41.2261 C.2       9 UNK         0.5513 
     57 N          20.2540  -35.3508  -40.2167 N.am      9 UNK        -0.7519 
     58 O          20.4707  -36.5090  -42.0853 O.2       9 UNK        -0.4960 
     59 C59        22.8913  -34.8068  -42.6789 C.3       10 UNK        -0.0876 
     60 S60        22.4979  -33.0306  -42.8259 S.3       10 UNK        -0.2414 
     61 C61        20.8304  -33.0835  -43.5548 C.3       10 UNK         0.0169 
     62 H62        17.1963  -21.7173  -40.0134 H         1 UNK         0.0903 
     63 H63        18.2307  -22.8873  -39.1892 H         1 UNK         0.0903 
     64 H64        18.7817  -22.1170  -40.6777 H         1 UNK         0.0903 
     65 H65        18.6177  -23.4674  -42.4862 H         1 UNK         0.3096 
     66 H66        16.2633  -24.9535  -43.0814 H         1 UNK         0.1121 
     67 H67        17.2448  -26.6411  -41.5868 H         1 UNK         0.0849 
     68 H68        17.3097  -27.2036  -43.2220 H         1 UNK         0.0849 
     69 H69        18.6549  -28.7390  -41.2718 H         1 UNK         0.0865 
     70 H70        20.3959  -28.6562  -41.2084 H         1 UNK         0.0865 
     71 H71        20.4306  -31.0517  -41.7932 H         1 UNK         0.1346 
     72 H72        20.0479  -32.0215  -45.9538 H         1 UNK         0.1412 
     73 H73        18.8550  -28.1692  -44.5520 H         1 UNK         0.1426 
     74 H74        18.3172  -28.7988  -46.7805 H         1 UNK         0.0716 
     75 H75        18.4811  -30.4547  -47.2855 H         1 UNK         0.0716 
     76 H76        22.4451  -28.1748  -47.0729 H         1 UNK         0.0695 
     77 H77        21.3050  -28.2300  -45.7757 H         1 UNK         0.0695 
     78 H78        21.2285  -26.3127  -48.1657 H         1 UNK         0.0983 
     79 H79        19.1891  -26.7834  -46.1196 H         1 UNK         0.3095 
     80 H80        17.2531  -23.9630  -47.0480 H         1 UNK         0.0454 
     81 H81        16.6939  -26.9228  -47.6142 H         1 UNK         0.0851 
     82 H82        16.6751  -25.6401  -48.8147 H         1 UNK         0.0851 
     83 H83        15.4958  -25.6318  -47.5169 H         1 UNK         0.0851 
     84 H84        16.4944  -25.9366  -45.2737 H         1 UNK         0.2976 
     85 H85        20.5430  -25.0092  -45.0531 H         1 UNK         0.3116 
     86 H86        21.6088  -24.0015  -43.4106 H         1 UNK         0.0646 
     87 H87        23.6769  -23.1553  -45.5101 H         1 UNK         0.0847 
     88 H88        23.3875  -22.3803  -43.9607 H         1 UNK         0.0847 
     89 H89        22.1460  -22.3361  -45.2013 H         1 UNK         0.0847 
     90 H90        22.0093  -26.6764  -43.4317 H         1 UNK         0.3040 
     91 H91        24.8796  -27.2586  -42.8995 H         1 UNK         0.1015 
     92 H92        23.6858  -28.6590  -44.6154 H         1 UNK         0.0786 
     93 H93        22.4770  -29.1086  -43.4156 H         1 UNK         0.0786 
     94 H94        24.1415  -29.6286  -43.2271 H         1 UNK         0.0786 
     95 H95        25.0945  -29.0557  -41.2027 H         1 UNK         0.3172 
     96 H96        23.9379  -28.2620  -38.6344 H         1 UNK         0.0595 
     97 H97        25.7809  -30.5997  -39.4122 H         1 UNK         0.0839 
     98 H98        25.4005  -30.0926  -37.7724 H         1 UNK         0.0839 
     99 H99        26.3228  -29.0300  -38.8186 H         1 UNK         0.0839 
    100 H100       22.7387  -29.7586  -37.2906 H         1 UNK         0.2998 
    101 H101       20.6158  -31.1425  -38.6438 H         1 UNK         0.0822 
    102 H102       20.2900  -29.9251  -36.4991 H         1 UNK         0.0787 
    103 H103       19.8424  -31.6117  -36.3184 H         1 UNK         0.0787 
    104 H104       21.3759  -31.0441  -35.6734 H         1 UNK         0.0787 
    105 H105       23.7394  -32.2103  -37.8685 H         1 UNK         0.3055 
    106 H106       23.4109  -34.8103  -36.9148 H         1 UNK         0.1106 
    107 H107       25.7658  -35.1295  -37.7174 H         1 UNK         0.0828 
    108 H108       25.6539  -33.6472  -38.6554 H         1 UNK         0.0828 
    109 H109       25.5693  -33.5930  -36.8940 H         1 UNK         0.0828 
    110 H110       23.0557  -33.7080  -40.2561 H         1 UNK         0.2931 
    111 H111       22.9979  -36.4321  -41.3222 H         1 UNK         0.0412 
    112 H112       19.2778  -35.5960  -40.1772 H         1 UNK         0.3472 
    113 H113       20.6538  -34.7752  -39.4829 H         1 UNK         0.3472 
    114 H114       22.4527  -35.3520  -43.5166 H         1 UNK         0.0970 
    115 H115       23.9692  -34.9018  -42.8160 H         1 UNK         0.0970 
    116 H116       20.8588  -33.6805  -44.4673 H         1 UNK         0.0612 
    117 H117       20.1483  -33.5875  -42.8703 H         1 UNK         0.0612 
@<TRIPOS>BOND
     1    1    2 1    
     2    1   62 1    
     3    1   63 1    
     4    1   64 1    
     5    2    3 2    
     6    2    4 am   BACKBONE|DICT|INTERRES
     7    4    5 1    
     8    4   65 1    
     9    5    6 1    
    10    5   25 1    
    11    5   66 1    
    12    6    7 1    
    13    6   67 1    
    14    6   68 1    
    15    7    8 1    
    16    8    9 1    
    17    8   69 1    
    18    8   70 1    
    19    9   10 ar   
    20    9   14 ar   
    21   10   11 ar   
    22   10   71 1    
    23   11   12 ar   
    24   11   61 1    
    25   12   13 ar   
    26   12   72 1    
    27   13   14 ar   
    28   13   15 1    
    29   14   73 1    
    30   15   16 1    
    31   15   74 1    
    32   15   75 1    
    33   16   17 1    
    34   17   18 1    
    35   17   76 1    
    36   17   77 1    
    37   18   19 1    
    38   18   27 1    
    39   18   78 1    
    40   19   20 am   BACKBONE|DICT|INTERRES
    41   19   79 1    
    42   20   21 2    
    43   20   22 1    
    44   22   23 1    
    45   22   24 1    
    46   22   80 1    
    47   23   81 1    
    48   23   82 1    
    49   23   83 1    
    50   24   25 am   BACKBONE|DICT|INTERRES
    51   24   84 1    
    52   25   26 2    
    53   27   28 2    
    54   27   29 am   BACKBONE|DICT|INTERRES
    55   29   30 1    
    56   29   85 1    
    57   30   31 1    
    58   30   32 1    
    59   30   86 1    
    60   31   87 1    
    61   31   88 1    
    62   31   89 1    
    63   32   33 2    
    64   32   34 am   BACKBONE|DICT|INTERRES
    65   34   35 1    
    66   34   90 1    
    67   35   36 1    
    68   35   37 1    
    69   35   91 1    
    70   36   92 1    
    71   36   93 1    
    72   36   94 1    
    73   37   38 2    
    74   37   39 am   BACKBONE|DICT|INTERRES
    75   39   40 1    
    76   39   95 1    
    77   40   41 1    
    78   40   42 1    
    79   40   96 1    
    80   41   97 1    
    81   41   98 1    
    82   41   99 1    
    83   42   43 2    
    84   42   44 am   BACKBONE|DICT|INTERRES
    85   44   45 1    
    86   44  100 1    
    87   45   46 1    
    88   45   47 1    
    89   45  101 1    
    90   46  102 1    
    91   46  103 1    
    92   46  104 1    
    93   47   48 2    
    94   47   49 am   BACKBONE|DICT|INTERRES
    95   49   50 1    
    96   49  105 1    
    97   50   51 1    
    98   50   52 1    
    99   50  106 1    
   100   51  107 1    
   101   51  108 1    
   102   51  109 1    
   103   52   53 2    
   104   52   54 am   BACKBONE|DICT|INTERRES
   105   54   55 1    
   106   54  110 1    
   107   55   56 1    
   108   55   59 1    
   109   55  111 1    
   110   56   57 am   BACKBONE|DICT|INTERRES
   111   56   58 2    
   112   57  112 1    
   113   57  113 1    
   114   59   60 1    
   115   59  114 1    
   116   59  115 1    
   117   60   61 1    
   118   61  116 1    
   119   61  117 1    
@<TRIPOS>SUBSTRUCTURE
     1 UNK         1 GROUP             0       ****    0 ROOT    
