@<TRIPOS>MOLECULE
3R8
117   119    1
SMALL
USER_CHARGES


@<TRIPOS>ATOM
      1 CA         15.1577  -23.4821  -41.5196 C.3       0 UNK        -0.2013 
      2 C          15.6182  -23.7743  -42.9401 C.2       0 UNK         0.4866 
      3 O          15.4070  -22.9526  -43.8331 O.2       0 UNK        -0.5176 
      4 N          16.2375  -24.9418  -43.1568 N.am      1 UNK        -0.4884 
      5 CA         16.8126  -25.3554  -44.4422 C.3       1 UNK         0.0853 
      6 C6         16.9456  -26.8975  -44.5198 C.3       10 UNK        -0.0849 
      7 S7         16.7605  -27.5145  -46.2246 S.3       10 UNK        -0.2776 
      8 C8         16.5463  -29.3010  -45.9240 C.3       10 UNK         0.0316 
      9 C9         17.7525  -29.9225  -45.2301 C.ar      10 UNK        -0.0863 
     10 C10        17.5909  -30.6617  -44.0546 C.ar      10 UNK        -0.1009 
     11 C11        18.6962  -31.2450  -43.4289 C.ar      10 UNK        -0.0712 
     12 C12        19.9705  -31.0598  -43.9733 C.ar      10 UNK        -0.0894 
     13 C13        20.1557  -30.3053  -45.1358 C.ar      10 UNK        -0.0745 
     14 C14        19.0308  -29.7664  -45.7729 C.ar      10 UNK        -0.0972 
     15 C15        21.5756  -30.1123  -45.6727 C.3       10 UNK         0.0209 
     16 S16        21.7729  -28.6995  -46.8165 S.3       10 UNK        -0.2568 
     17 C17        23.0377  -27.6630  -46.0007 C.3       10 UNK        -0.0983 
     18 CA         22.4963  -26.4310  -45.2226 C.3       3 UNK         0.0876 
     19 N          21.3634  -25.7718  -45.8784 N.am      3 UNK        -0.4424 
     20 C          21.1027  -24.4609  -45.8018 C.2       2 UNK         0.4918 
     21 O          21.8306  -23.6441  -45.2366 O.2       2 UNK        -0.4875 
     22 CA         19.8025  -23.9785  -46.4685 C.3       2 UNK         0.0481 
     23 CB         19.8854  -24.1048  -47.9991 C.3       2 UNK        -0.1831 
     24 N          18.6015  -24.6633  -45.9787 N.am      2 UNK        -0.4498 
     25 C          18.1557  -24.6366  -44.7137 C.2       1 UNK         0.5027 
     26 O          18.7535  -24.0778  -43.7901 O.2       1 UNK        -0.4969 
     27 C          22.1569  -26.7476  -43.7563 C.2       3 UNK         0.5005 
     28 O          22.8821  -26.3081  -42.8611 O.2       3 UNK        -0.5279 
     29 N          21.0543  -27.4829  -43.5400 N.am      4 UNK        -0.4463 
     30 CA         20.5143  -27.9011  -42.2409 C.3       4 UNK         0.0283 
     31 CB         19.7938  -26.7133  -41.5621 C.3       4 UNK        -0.1875 
     32 C          21.5908  -28.5696  -41.3605 C.2       4 UNK         0.4949 
     33 O          22.1456  -29.5971  -41.7557 O.2       4 UNK        -0.5039 
     34 N          21.9103  -27.9408  -40.2201 N.am      5 UNK        -0.4663 
     35 CA         22.9092  -28.3639  -39.2356 C.3       5 UNK         0.0242 
     36 CB         22.9139  -27.3657  -38.0671 C.3       5 UNK        -0.1982 
     37 C          24.3352  -28.5558  -39.7841 C.2       5 UNK         0.5017 
     38 O          25.1129  -29.2685  -39.1495 O.2       5 UNK        -0.5012 
     39 N          24.6498  -27.9918  -40.9619 N.am      6 UNK        -0.4439 
     40 CA         25.8911  -28.2616  -41.6982 C.3       6 UNK         0.0297 
     41 CB         25.9930  -27.3221  -42.9095 C.3       6 UNK        -0.2006 
     42 C          26.0393  -29.7321  -42.1431 C.2       6 UNK         0.4892 
     43 O          27.1700  -30.1823  -42.3301 O.2       6 UNK        -0.5089 
     44 N          24.9167  -30.4556  -42.2726 N.am      7 UNK        -0.4243 
     45 CA         24.8663  -31.9006  -42.5104 C.3       7 UNK         0.0196 
     46 CB         24.0665  -32.1702  -43.7959 C.3       7 UNK        -0.2007 
     47 C          24.2699  -32.6473  -41.3003 C.2       7 UNK         0.5020 
     48 O          23.8199  -33.7831  -41.4564 O.2       7 UNK        -0.5147 
     49 N          24.2646  -32.0061  -40.1207 N.am      8 UNK        -0.4734 
     50 CA         23.8016  -32.4648  -38.8005 C.3       8 UNK         0.0238 
     51 CB         24.6166  -33.6811  -38.3195 C.3       8 UNK        -0.1912 
     52 C          22.2900  -32.7348  -38.6632 C.2       8 UNK         0.5038 
     53 O          21.7260  -32.3990  -37.6208 O.2       8 UNK        -0.5046 
     54 N          21.6743  -33.3379  -39.6860 N.am      9 UNK        -0.4200 
     55 CA         20.2947  -33.8543  -39.7137 C.3       9 UNK         0.0839 
     56 C          20.0814  -35.0756  -38.7663 C.2       9 UNK         0.5513 
     57 N          18.8564  -35.5695  -38.6378 N.am      9 UNK        -0.7519 
     58 O          21.0143  -35.6173  -38.1757 O.2       9 UNK        -0.4960 
     59 C59        19.2034  -32.7518  -39.5423 C.3       10 UNK        -0.0876 
     60 S60        19.3559  -31.3844  -40.7378 S.3       10 UNK        -0.2414 
     61 C61        18.5186  -32.1026  -42.1842 C.3       10 UNK         0.0169 
     62 H62        14.0794  -23.3264  -41.4990 H         1 UNK         0.0903 
     63 H63        15.3955  -24.2977  -40.8369 H         1 UNK         0.0903 
     64 H64        15.6400  -22.5782  -41.1483 H         1 UNK         0.0903 
     65 H65        16.4101  -25.5598  -42.3772 H         1 UNK         0.3096 
     66 H66        16.1134  -25.0297  -45.2166 H         1 UNK         0.1121 
     67 H67        17.8911  -27.2492  -44.1028 H         1 UNK         0.0849 
     68 H68        16.1634  -27.3728  -43.9250 H         1 UNK         0.0849 
     69 H69        15.6363  -29.4568  -45.3423 H         1 UNK         0.0865 
     70 H70        16.3905  -29.8046  -46.8790 H         1 UNK         0.0865 
     71 H71        16.6033  -30.7977  -43.6352 H         1 UNK         0.1346 
     72 H72        20.8212  -31.4975  -43.4712 H         1 UNK         0.1412 
     73 H73        19.1343  -29.2073  -46.6917 H         1 UNK         0.1426 
     74 H74        21.8816  -31.0230  -46.1888 H         1 UNK         0.0716 
     75 H75        22.2576  -29.9891  -44.8308 H         1 UNK         0.0716 
     76 H76        23.6873  -28.2802  -45.3776 H         1 UNK         0.0695 
     77 H77        23.6853  -27.3008  -46.8006 H         1 UNK         0.0695 
     78 H78        23.3223  -25.7163  -45.1823 H         1 UNK         0.0983 
     79 H79        20.7257  -26.3735  -46.3787 H         1 UNK         0.3095 
     80 H80        19.6887  -22.9187  -46.2307 H         1 UNK         0.0454 
     81 H81        19.9305  -25.1451  -48.3234 H         1 UNK         0.0851 
     82 H82        19.0244  -23.6418  -48.4815 H         1 UNK         0.0851 
     83 H83        20.7753  -23.6049  -48.3843 H         1 UNK         0.0851 
     84 H84        18.0608  -25.1744  -46.6633 H         1 UNK         0.2976 
     85 H85        20.5721  -27.8526  -44.3471 H         1 UNK         0.3116 
     86 H86        19.7650  -28.6668  -42.4415 H         1 UNK         0.0646 
     87 H87        19.3468  -27.0094  -40.6120 H         1 UNK         0.0847 
     88 H88        18.9828  -26.3405  -42.1846 H         1 UNK         0.0847 
     89 H89        20.4651  -25.8742  -41.3752 H         1 UNK         0.0847 
     90 H90        21.4258  -27.0789  -40.0158 H         1 UNK         0.3040 
     91 H91        22.5868  -29.3357  -38.8549 H         1 UNK         0.1015 
     92 H92        21.9344  -27.3034  -37.5925 H         1 UNK         0.0786 
     93 H93        23.1951  -26.3638  -38.3943 H         1 UNK         0.0786 
     94 H94        23.6245  -27.6682  -37.2963 H         1 UNK         0.0786 
     95 H95        23.9512  -27.4241  -41.4333 H         1 UNK         0.3172 
     96 H96        26.7233  -28.0383  -41.0274 H         1 UNK         0.0595 
     97 H97        25.9096  -26.2763  -42.6128 H         1 UNK         0.0839 
     98 H98        25.2147  -27.5264  -43.6438 H         1 UNK         0.0839 
     99 H99        26.9529  -27.4407  -43.4140 H         1 UNK         0.0839 
    100 H100       24.0180  -30.0114  -42.0940 H         1 UNK         0.2998 
    101 H101       25.8731  -32.2985  -42.6522 H         1 UNK         0.0822 
    102 H102       24.4585  -31.5996  -44.6380 H         1 UNK         0.0787 
    103 H103       24.1091  -33.2248  -44.0711 H         1 UNK         0.0787 
    104 H104       23.0177  -31.9103  -43.6682 H         1 UNK         0.0787 
    105 H105       24.6593  -31.0721  -40.1096 H         1 UNK         0.3055 
    106 H106       24.0215  -31.6418  -38.1180 H         1 UNK         0.1106 
    107 H107       24.4509  -34.5575  -38.9469 H         1 UNK         0.0828 
    108 H108       25.6852  -33.4669  -38.3156 H         1 UNK         0.0828 
    109 H109       24.3377  -33.9576  -37.3018 H         1 UNK         0.0828 
    110 H110       22.2621  -33.6001  -40.4727 H         1 UNK         0.2931 
    111 H111       20.1868  -34.2686  -40.7161 H         1 UNK         0.0412 
    112 H112       18.0732  -35.1748  -39.1339 H         1 UNK         0.3472 
    113 H113       18.7155  -36.3691  -38.0397 H         1 UNK         0.3472 
    114 H114       18.2013  -33.1696  -39.6454 H         1 UNK         0.0970 
    115 H115       19.2438  -32.3300  -38.5371 H         1 UNK         0.0970 
    116 H116       18.9239  -33.0948  -42.3853 H         1 UNK         0.0612 
    117 H117       17.4613  -32.2385  -41.9516 H         1 UNK         0.0612 
@<TRIPOS>BOND
     1    1    2 1    
     2    1   62 1    
     3    1   63 1    
     4    1   64 1    
     5    2    3 2    
     6    2    4 am   BACKBONE|DICT|INTERRES
     7    4    5 1    
     8    4   65 1    
     9    5    6 1    
    10    5   25 1    
    11    5   66 1    
    12    6    7 1    
    13    6   67 1    
    14    6   68 1    
    15    7    8 1    
    16    8    9 1    
    17    8   69 1    
    18    8   70 1    
    19    9   10 ar   
    20    9   14 ar   
    21   10   11 ar   
    22   10   71 1    
    23   11   12 ar   
    24   11   61 1    
    25   12   13 ar   
    26   12   72 1    
    27   13   14 ar   
    28   13   15 1    
    29   14   73 1    
    30   15   16 1    
    31   15   74 1    
    32   15   75 1    
    33   16   17 1    
    34   17   18 1    
    35   17   76 1    
    36   17   77 1    
    37   18   19 1    
    38   18   27 1    
    39   18   78 1    
    40   19   20 am   BACKBONE|DICT|INTERRES
    41   19   79 1    
    42   20   21 2    
    43   20   22 1    
    44   22   23 1    
    45   22   24 1    
    46   22   80 1    
    47   23   81 1    
    48   23   82 1    
    49   23   83 1    
    50   24   25 am   BACKBONE|DICT|INTERRES
    51   24   84 1    
    52   25   26 2    
    53   27   28 2    
    54   27   29 am   BACKBONE|DICT|INTERRES
    55   29   30 1    
    56   29   85 1    
    57   30   31 1    
    58   30   32 1    
    59   30   86 1    
    60   31   87 1    
    61   31   88 1    
    62   31   89 1    
    63   32   33 2    
    64   32   34 am   BACKBONE|DICT|INTERRES
    65   34   35 1    
    66   34   90 1    
    67   35   36 1    
    68   35   37 1    
    69   35   91 1    
    70   36   92 1    
    71   36   93 1    
    72   36   94 1    
    73   37   38 2    
    74   37   39 am   BACKBONE|DICT|INTERRES
    75   39   40 1    
    76   39   95 1    
    77   40   41 1    
    78   40   42 1    
    79   40   96 1    
    80   41   97 1    
    81   41   98 1    
    82   41   99 1    
    83   42   43 2    
    84   42   44 am   BACKBONE|DICT|INTERRES
    85   44   45 1    
    86   44  100 1    
    87   45   46 1    
    88   45   47 1    
    89   45  101 1    
    90   46  102 1    
    91   46  103 1    
    92   46  104 1    
    93   47   48 2    
    94   47   49 am   BACKBONE|DICT|INTERRES
    95   49   50 1    
    96   49  105 1    
    97   50   51 1    
    98   50   52 1    
    99   50  106 1    
   100   51  107 1    
   101   51  108 1    
   102   51  109 1    
   103   52   53 2    
   104   52   54 am   BACKBONE|DICT|INTERRES
   105   54   55 1    
   106   54  110 1    
   107   55   56 1    
   108   55   59 1    
   109   55  111 1    
   110   56   57 am   BACKBONE|DICT|INTERRES
   111   56   58 2    
   112   57  112 1    
   113   57  113 1    
   114   59   60 1    
   115   59  114 1    
   116   59  115 1    
   117   60   61 1    
   118   61  116 1    
   119   61  117 1    
@<TRIPOS>SUBSTRUCTURE
     1 UNK         1 GROUP             0       ****    0 ROOT    
