@<TRIPOS>MOLECULE
3R8
117   119    1
SMALL
USER_CHARGES


@<TRIPOS>ATOM
      1 CA         12.7443  -26.1522  -46.1025 C.3       0 UNK        -0.2013 
      2 C          14.1047  -25.6190  -45.6785 C.2       0 UNK         0.4866 
      3 O          14.2942  -24.4032  -45.6356 O.2       0 UNK        -0.5176 
      4 N          15.0440  -26.5224  -45.3653 N.am      1 UNK        -0.4884 
      5 CA         16.4275  -26.2496  -44.9535 C.3       1 UNK         0.0853 
      6 C6         16.5480  -25.5189  -43.5850 C.3       10 UNK        -0.0849 
      7 S7         15.8159  -26.4796  -42.2155 S.3       10 UNK        -0.2776 
      8 C8         17.2930  -27.1084  -41.3530 C.3       10 UNK         0.0316 
      9 C9         17.9416  -28.2631  -42.1027 C.ar      10 UNK        -0.0863 
     10 C10        17.4836  -29.5698  -41.9113 C.ar      10 UNK        -0.1009 
     11 C11        18.0923  -30.6397  -42.5744 C.ar      10 UNK        -0.0712 
     12 C12        19.1499  -30.3931  -43.4555 C.ar      10 UNK        -0.0894 
     13 C13        19.6199  -29.0925  -43.6499 C.ar      10 UNK        -0.0745 
     14 C14        19.0161  -28.0329  -42.9661 C.ar      10 UNK        -0.0972 
     15 C15        20.7906  -28.8282  -44.5814 C.3       10 UNK         0.0209 
     16 S16        20.2154  -28.1679  -46.1739 S.3       10 UNK        -0.2568 
     17 C17        21.6341  -27.1335  -46.6902 C.3       10 UNK        -0.0983 
     18 CA         21.5080  -25.6282  -46.3183 C.3       3 UNK         0.0876 
     19 N          20.2082  -25.0841  -46.7150 N.am      3 UNK        -0.4424 
     20 C          19.8852  -23.7877  -46.7660 C.2       2 UNK         0.4918 
     21 O          20.7127  -22.8767  -46.7170 O.2       2 UNK        -0.4875 
     22 CA         18.3856  -23.4388  -46.8271 C.3       2 UNK         0.0481 
     23 CB         17.8708  -23.3959  -48.2793 C.3       2 UNK        -0.1831 
     24 N          17.5471  -24.2808  -45.9556 N.am      2 UNK        -0.4498 
     25 C          17.2109  -25.5729  -46.0997 C.2       1 UNK         0.5027 
     26 O          17.5208  -26.2492  -47.0810 O.2       1 UNK        -0.4969 
     27 C          21.7657  -25.3925  -44.8122 C.2       3 UNK         0.5005 
     28 O          20.8194  -25.1956  -44.0439 O.2       3 UNK        -0.5279 
     29 N          23.0392  -25.4623  -44.4065 N.am      4 UNK        -0.4463 
     30 CA         23.4461  -25.4854  -43.0020 C.3       4 UNK         0.0283 
     31 CB         24.8168  -24.8044  -42.8524 C.3       4 UNK        -0.1875 
     32 C          23.5091  -26.9442  -42.5290 C.2       4 UNK         0.4949 
     33 O          24.2007  -27.7494  -43.1565 O.2       4 UNK        -0.5039 
     34 N          22.7905  -27.2616  -41.4463 N.am      5 UNK        -0.4663 
     35 CA         22.8506  -28.5652  -40.7794 C.3       5 UNK         0.0242 
     36 CB         21.5849  -28.7589  -39.9283 C.3       5 UNK        -0.1982 
     37 C          24.1162  -28.6685  -39.9107 C.2       5 UNK         0.5017 
     38 O          24.6002  -27.6480  -39.4124 O.2       5 UNK        -0.5012 
     39 N          24.6175  -29.8930  -39.7295 N.am      6 UNK        -0.4439 
     40 CA         25.8196  -30.2017  -38.9556 C.3       6 UNK         0.0297 
     41 CB         27.0879  -29.8326  -39.7604 C.3       6 UNK        -0.2006 
     42 C          25.7316  -31.6748  -38.5387 C.2       6 UNK         0.4892 
     43 O          24.7717  -32.0422  -37.8604 O.2       6 UNK        -0.5089 
     44 N          26.6927  -32.5025  -38.9768 N.am      7 UNK        -0.4243 
     45 CA         26.5967  -33.9659  -38.9308 C.3       7 UNK         0.0196 
     46 CB         27.9545  -34.5900  -39.2905 C.3       7 UNK        -0.2007 
     47 C          25.4891  -34.4769  -39.8697 C.2       7 UNK         0.5020 
     48 O          24.7424  -35.3850  -39.5025 O.2       7 UNK        -0.5147 
     49 N          25.3591  -33.8287  -41.0375 N.am      8 UNK        -0.4734 
     50 CA         24.1940  -33.9260  -41.9143 C.3       8 UNK         0.0238 
     51 CB         24.4916  -33.2134  -43.2440 C.3       8 UNK        -0.1912 
     52 C          22.9803  -33.2945  -41.2152 C.2       8 UNK         0.5038 
     53 O          23.0505  -32.1205  -40.8377 O.2       8 UNK        -0.5046 
     54 N          21.9222  -34.0942  -41.0346 N.am      9 UNK        -0.4200 
     55 CA         20.7244  -33.7656  -40.2447 C.3       9 UNK         0.0839 
     56 C          20.9688  -33.7167  -38.7030 C.2       9 UNK         0.5513 
     57 N          22.0700  -34.2543  -38.1902 N.am      9 UNK        -0.7519 
     58 O          20.1388  -33.2135  -37.9507 O.2       9 UNK        -0.4960 
     59 C59        19.9726  -32.5198  -40.7972 C.3       10 UNK        -0.0876 
     60 S60        18.1550  -32.6619  -40.6798 S.3       10 UNK        -0.2414 
     61 C61        17.6246  -32.0653  -42.3184 C.3       10 UNK         0.0169 
     62 H62        12.7099  -27.2415  -46.0916 H         1 UNK         0.0903 
     63 H63        11.9709  -25.7825  -45.4297 H         1 UNK         0.0903 
     64 H64        12.5075  -25.8156  -47.1115 H         1 UNK         0.0903 
     65 H65        14.8161  -27.5040  -45.4423 H         1 UNK         0.3096 
     66 H66        16.8981  -27.2273  -44.8327 H         1 UNK         0.1121 
     67 H67        17.5941  -25.3117  -43.3510 H         1 UNK         0.0849 
     68 H68        16.0468  -24.5503  -43.6119 H         1 UNK         0.0849 
     69 H69        18.0075  -26.2988  -41.1955 H         1 UNK         0.0865 
     70 H70        16.9990  -27.4432  -40.3570 H         1 UNK         0.0865 
     71 H71        16.6638  -29.7588  -41.2313 H         1 UNK         0.1346 
     72 H72        19.6202  -31.2156  -43.9767 H         1 UNK         0.1412 
     73 H73        19.3831  -27.0273  -43.1100 H         1 UNK         0.1426 
     74 H74        21.3690  -29.7370  -44.7545 H         1 UNK         0.0716 
     75 H75        21.4670  -28.1248  -44.1018 H         1 UNK         0.0716 
     76 H76        21.7071  -27.2193  -47.7754 H         1 UNK         0.0695 
     77 H77        22.5616  -27.5641  -46.3076 H         1 UNK         0.0695 
     78 H78        22.2754  -25.0771  -46.8665 H         1 UNK         0.0983 
     79 H79        19.4532  -25.7586  -46.7744 H         1 UNK         0.3095 
     80 H80        18.2868  -22.4297  -46.4240 H         1 UNK         0.0454 
     81 H81        18.4144  -22.6485  -48.8584 H         1 UNK         0.0851 
     82 H82        16.8143  -23.1310  -48.3180 H         1 UNK         0.0851 
     83 H83        17.9974  -24.3499  -48.7912 H         1 UNK         0.0851 
     84 H84        17.2265  -23.8189  -45.1161 H         1 UNK         0.2976 
     85 H85        23.7603  -25.6800  -45.0804 H         1 UNK         0.3116 
     86 H86        22.7279  -24.9335  -42.3912 H         1 UNK         0.0646 
     87 H87        25.5885  -25.3088  -43.4355 H         1 UNK         0.0847 
     88 H88        24.7796  -23.7636  -43.1742 H         1 UNK         0.0847 
     89 H89        25.1411  -24.8105  -41.8108 H         1 UNK         0.0847 
     90 H90        22.2738  -26.5357  -40.9710 H         1 UNK         0.3040 
     91 H91        22.8814  -29.3517  -41.5380 H         1 UNK         0.1015 
     92 H92        20.6866  -28.7492  -40.5462 H         1 UNK         0.0786 
     93 H93        21.6087  -29.7185  -39.4099 H         1 UNK         0.0786 
     94 H94        21.4831  -27.9817  -39.1701 H         1 UNK         0.0786 
     95 H95        24.1075  -30.6969  -40.0967 H         1 UNK         0.3172 
     96 H96        25.8093  -29.6161  -38.0340 H         1 UNK         0.0595 
     97 H97        27.1296  -30.3490  -40.7202 H         1 UNK         0.0839 
     98 H98        27.9960  -30.0711  -39.2049 H         1 UNK         0.0839 
     99 H99        27.1235  -28.7628  -39.9670 H         1 UNK         0.0839 
    100 H100       27.4650  -32.1105  -39.4960 H         1 UNK         0.2998 
    101 H101       26.3378  -34.2629  -37.9120 H         1 UNK         0.0822 
    102 H102       27.9050  -35.6789  -39.2455 H         1 UNK         0.0787 
    103 H103       28.7325  -34.2734  -38.5955 H         1 UNK         0.0787 
    104 H104       28.2733  -34.3198  -40.2980 H         1 UNK         0.0787 
    105 H105       26.0081  -33.0833  -41.2393 H         1 UNK         0.3055 
    106 H106       23.9980  -34.9813  -42.1179 H         1 UNK         0.1106 
    107 H107       24.7040  -32.1531  -43.0990 H         1 UNK         0.0828 
    108 H108       25.3462  -33.6606  -43.7520 H         1 UNK         0.0828 
    109 H109       23.6397  -33.2837  -43.9216 H         1 UNK         0.0828 
    110 H110       21.9713  -35.0480  -41.3629 H         1 UNK         0.2931 
    111 H111       20.0776  -34.6315  -40.3905 H         1 UNK         0.0412 
    112 H112       22.2162  -34.2111  -37.1943 H         1 UNK         0.3472 
    113 H113       22.7817  -34.6605  -38.7828 H         1 UNK         0.3472 
    114 H114       20.2295  -32.3831  -41.8472 H         1 UNK         0.0970 
    115 H115       20.2960  -31.6043  -40.2994 H         1 UNK         0.0970 
    116 H116       16.5360  -32.1067  -42.3759 H         1 UNK         0.0612 
    117 H117       17.9997  -32.7432  -43.0867 H         1 UNK         0.0612 
@<TRIPOS>BOND
     1    1    2 1    
     2    1   62 1    
     3    1   63 1    
     4    1   64 1    
     5    2    3 2    
     6    2    4 am   BACKBONE|DICT|INTERRES
     7    4    5 1    
     8    4   65 1    
     9    5    6 1    
    10    5   25 1    
    11    5   66 1    
    12    6    7 1    
    13    6   67 1    
    14    6   68 1    
    15    7    8 1    
    16    8    9 1    
    17    8   69 1    
    18    8   70 1    
    19    9   10 ar   
    20    9   14 ar   
    21   10   11 ar   
    22   10   71 1    
    23   11   12 ar   
    24   11   61 1    
    25   12   13 ar   
    26   12   72 1    
    27   13   14 ar   
    28   13   15 1    
    29   14   73 1    
    30   15   16 1    
    31   15   74 1    
    32   15   75 1    
    33   16   17 1    
    34   17   18 1    
    35   17   76 1    
    36   17   77 1    
    37   18   19 1    
    38   18   27 1    
    39   18   78 1    
    40   19   20 am   BACKBONE|DICT|INTERRES
    41   19   79 1    
    42   20   21 2    
    43   20   22 1    
    44   22   23 1    
    45   22   24 1    
    46   22   80 1    
    47   23   81 1    
    48   23   82 1    
    49   23   83 1    
    50   24   25 am   BACKBONE|DICT|INTERRES
    51   24   84 1    
    52   25   26 2    
    53   27   28 2    
    54   27   29 am   BACKBONE|DICT|INTERRES
    55   29   30 1    
    56   29   85 1    
    57   30   31 1    
    58   30   32 1    
    59   30   86 1    
    60   31   87 1    
    61   31   88 1    
    62   31   89 1    
    63   32   33 2    
    64   32   34 am   BACKBONE|DICT|INTERRES
    65   34   35 1    
    66   34   90 1    
    67   35   36 1    
    68   35   37 1    
    69   35   91 1    
    70   36   92 1    
    71   36   93 1    
    72   36   94 1    
    73   37   38 2    
    74   37   39 am   BACKBONE|DICT|INTERRES
    75   39   40 1    
    76   39   95 1    
    77   40   41 1    
    78   40   42 1    
    79   40   96 1    
    80   41   97 1    
    81   41   98 1    
    82   41   99 1    
    83   42   43 2    
    84   42   44 am   BACKBONE|DICT|INTERRES
    85   44   45 1    
    86   44  100 1    
    87   45   46 1    
    88   45   47 1    
    89   45  101 1    
    90   46  102 1    
    91   46  103 1    
    92   46  104 1    
    93   47   48 2    
    94   47   49 am   BACKBONE|DICT|INTERRES
    95   49   50 1    
    96   49  105 1    
    97   50   51 1    
    98   50   52 1    
    99   50  106 1    
   100   51  107 1    
   101   51  108 1    
   102   51  109 1    
   103   52   53 2    
   104   52   54 am   BACKBONE|DICT|INTERRES
   105   54   55 1    
   106   54  110 1    
   107   55   56 1    
   108   55   59 1    
   109   55  111 1    
   110   56   57 am   BACKBONE|DICT|INTERRES
   111   56   58 2    
   112   57  112 1    
   113   57  113 1    
   114   59   60 1    
   115   59  114 1    
   116   59  115 1    
   117   60   61 1    
   118   61  116 1    
   119   61  117 1    
@<TRIPOS>SUBSTRUCTURE
     1 UNK         1 GROUP             0       ****    0 ROOT    
