@<TRIPOS>MOLECULE
3R8
117   119    1
SMALL
USER_CHARGES


@<TRIPOS>ATOM
      1 CA         13.0578  -28.0981  -40.1967 C.3       0 UNK        -0.2013 
      2 C          14.2172  -27.3019  -40.7770 C.2       0 UNK         0.4866 
      3 O          14.8345  -26.5100  -40.0637 O.2       0 UNK        -0.5176 
      4 N          14.5096  -27.4971  -42.0683 N.am      1 UNK        -0.4884 
      5 CA         15.6398  -26.8882  -42.7770 C.3       1 UNK         0.0853 
      6 C6         15.4205  -26.8688  -44.3154 C.3       10 UNK        -0.0849 
      7 S7         14.8796  -28.4601  -45.0353 S.3       10 UNK        -0.2776 
      8 C8         16.0366  -28.6651  -46.4352 C.3       10 UNK         0.0316 
      9 C9         17.4678  -29.0034  -46.0239 C.ar      10 UNK        -0.0863 
     10 C10        17.7276  -29.8730  -44.9596 C.ar      10 UNK        -0.1009 
     11 C11        19.0386  -30.1909  -44.6017 C.ar      10 UNK        -0.0712 
     12 C12        20.1024  -29.6550  -45.3328 C.ar      10 UNK        -0.0894 
     13 C13        19.8605  -28.8154  -46.4230 C.ar      10 UNK        -0.0745 
     14 C14        18.5421  -28.4825  -46.7538 C.ar      10 UNK        -0.0972 
     15 C15        21.0128  -28.3147  -47.2828 C.3       10 UNK         0.0209 
     16 S16        21.5776  -26.6545  -46.7984 S.3       10 UNK        -0.2568 
     17 C17        22.8837  -27.0126  -45.5755 C.3       10 UNK        -0.0983 
     18 CA         22.6446  -26.2624  -44.2411 C.3       3 UNK         0.0876 
     19 N          21.5860  -26.8890  -43.4489 N.am      3 UNK        -0.4424 
     20 C          20.3594  -26.3901  -43.2855 C.2       2 UNK         0.4918 
     21 O          19.9469  -25.3608  -43.8288 O.2       2 UNK        -0.4875 
     22 CA         19.4499  -27.1393  -42.3070 C.3       2 UNK         0.0481 
     23 CB         19.7812  -26.7494  -40.8551 C.3       2 UNK        -0.1831 
     24 N          18.0694  -26.7780  -42.6042 N.am      2 UNK        -0.4498 
     25 C          16.9872  -27.5246  -42.3676 C.2       1 UNK         0.5027 
     26 O          17.0256  -28.6449  -41.8496 O.2       1 UNK        -0.4969 
     27 C          23.9196  -26.2173  -43.3820 C.2       3 UNK         0.5005 
     28 O          24.0165  -26.9361  -42.3859 O.2       3 UNK        -0.5279 
     29 N          24.9001  -25.3969  -43.7857 N.am      4 UNK        -0.4463 
     30 CA         26.1704  -25.1978  -43.0706 C.3       4 UNK         0.0283 
     31 CB         26.9888  -24.1072  -43.7806 C.3       4 UNK        -0.1875 
     32 C          27.0178  -26.4745  -42.8983 C.2       4 UNK         0.4949 
     33 O          27.7602  -26.5789  -41.9220 O.2       4 UNK        -0.5039 
     34 N          26.8785  -27.4197  -43.8361 N.am      5 UNK        -0.4663 
     35 CA         27.5401  -28.7263  -43.8226 C.3       5 UNK         0.0242 
     36 CB         28.0437  -29.0259  -45.2462 C.3       5 UNK        -0.1982 
     37 C          26.6229  -29.8596  -43.3203 C.2       5 UNK         0.5017 
     38 O          27.0514  -31.0145  -43.3370 O.2       5 UNK        -0.5012 
     39 N          25.3862  -29.5444  -42.9102 N.am      6 UNK        -0.4439 
     40 CA         24.3643  -30.5155  -42.5256 C.3       6 UNK         0.0297 
     41 CB         23.6590  -31.0586  -43.7832 C.3       6 UNK        -0.2006 
     42 C          23.3987  -29.8520  -41.5397 C.2       6 UNK         0.4892 
     43 O          22.2786  -29.4935  -41.9146 O.2       6 UNK        -0.5089 
     44 N          23.8735  -29.6631  -40.3012 N.am      7 UNK        -0.4243 
     45 CA         23.1393  -29.0579  -39.1879 C.3       7 UNK         0.0196 
     46 CB         24.1045  -28.8309  -38.0115 C.3       7 UNK        -0.2007 
     47 C          21.9389  -29.9293  -38.7814 C.2       7 UNK         0.5020 
     48 O          22.1061  -30.8981  -38.0387 O.2       7 UNK        -0.5147 
     49 N          20.7700  -29.6094  -39.3540 N.am      8 UNK        -0.4734 
     50 CA         19.4963  -30.3403  -39.2720 C.3       8 UNK         0.0238 
     51 CB         18.9373  -30.3089  -37.8341 C.3       8 UNK        -0.1912 
     52 C          19.5637  -31.7707  -39.8480 C.2       8 UNK         0.5038 
     53 O          18.6925  -32.5867  -39.5437 O.2       8 UNK        -0.5046 
     54 N          20.5871  -32.0415  -40.6733 N.am      9 UNK        -0.4200 
     55 CA         20.8822  -33.3319  -41.3165 C.3       9 UNK         0.0839 
     56 C          21.1985  -34.4841  -40.3116 C.2       9 UNK         0.5513 
     57 N          21.6180  -34.1881  -39.0861 N.am      9 UNK        -0.7519 
     58 O          21.1016  -35.6607  -40.6509 O.2       9 UNK        -0.4960 
     59 C59        19.8244  -33.7053  -42.3987 C.3       10 UNK        -0.0876 
     60 S60        19.9697  -32.7101  -43.9245 S.3       10 UNK        -0.2414 
     61 C61        19.3003  -31.0980  -43.4126 C.3       10 UNK         0.0169 
     62 H62        13.4099  -28.7349  -39.3857 H         1 UNK         0.0903 
     63 H63        12.3014  -27.4234  -39.7970 H         1 UNK         0.0903 
     64 H64        12.5841  -28.7331  -40.9451 H         1 UNK         0.0903 
     65 H65        13.9951  -28.1824  -42.6043 H         1 UNK         0.3096 
     66 H66        15.6907  -25.8458  -42.4526 H         1 UNK         0.1121 
     67 H67        16.3144  -26.5122  -44.8312 H         1 UNK         0.0849 
     68 H68        14.6466  -26.1365  -44.5507 H         1 UNK         0.0849 
     69 H69        15.6674  -29.4698  -47.0721 H         1 UNK         0.0865 
     70 H70        16.0139  -27.7594  -47.0435 H         1 UNK         0.0865 
     71 H71        16.9077  -30.2959  -44.3957 H         1 UNK         0.1346 
     72 H72        21.1158  -29.9119  -45.0628 H         1 UNK         0.1412 
     73 H73        18.3548  -27.8325  -47.5979 H         1 UNK         0.1426 
     74 H74        20.6904  -28.2749  -48.3243 H         1 UNK         0.0716 
     75 H75        21.8465  -29.0182  -47.2601 H         1 UNK         0.0716 
     76 H76        22.9619  -28.0867  -45.4033 H         1 UNK         0.0695 
     77 H77        23.8268  -26.7118  -46.0353 H         1 UNK         0.0695 
     78 H78        22.3858  -25.2228  -44.4557 H         1 UNK         0.0983 
     79 H79        21.8798  -27.6968  -42.9064 H         1 UNK         0.3095 
     80 H80        19.5922  -28.2119  -42.4481 H         1 UNK         0.0454 
     81 H81        20.8214  -26.9694  -40.6150 H         1 UNK         0.0851 
     82 H82        19.6337  -25.6818  -40.6868 H         1 UNK         0.0851 
     83 H83        19.1515  -27.2829  -40.1433 H         1 UNK         0.0851 
     84 H84        17.9813  -25.8936  -43.0903 H         1 UNK         0.2976 
     85 H85        24.7592  -24.8391  -44.6168 H         1 UNK         0.3116 
     86 H86        25.9254  -24.8393  -42.0685 H         1 UNK         0.0646 
     87 H87        27.9268  -23.9195  -43.2560 H         1 UNK         0.0847 
     88 H88        26.4474  -23.1617  -43.8162 H         1 UNK         0.0847 
     89 H89        27.2402  -24.3912  -44.8033 H         1 UNK         0.0847 
     90 H90        26.2486  -27.2393  -44.6044 H         1 UNK         0.3040 
     91 H91        28.4054  -28.7014  -43.1564 H         1 UNK         0.1015 
     92 H92        27.2206  -29.1087  -45.9572 H         1 UNK         0.0786 
     93 H93        28.5983  -29.9647  -45.2789 H         1 UNK         0.0786 
     94 H94        28.7167  -28.2449  -45.6008 H         1 UNK         0.0786 
     95 H95        25.1125  -28.5680  -42.8322 H         1 UNK         0.3172 
     96 H96        24.8280  -31.3554  -42.0035 H         1 UNK         0.0595 
     97 H97        22.8211  -31.7037  -43.5195 H         1 UNK         0.0839 
     98 H98        23.2710  -30.2510  -44.4015 H         1 UNK         0.0839 
     99 H99        24.3402  -31.6483  -44.3965 H         1 UNK         0.0839 
    100 H100       24.8087  -29.9836  -40.0955 H         1 UNK         0.2998 
    101 H101       22.7744  -28.0814  -39.5131 H         1 UNK         0.0822 
    102 H102       23.5842  -28.3867  -37.1618 H         1 UNK         0.0787 
    103 H103       24.5533  -29.7637  -37.6671 H         1 UNK         0.0787 
    104 H104       24.9118  -28.1519  -38.2871 H         1 UNK         0.0787 
    105 H105       20.7837  -28.8509  -40.0216 H         1 UNK         0.3055 
    106 H106       18.7919  -29.8040  -39.9109 H         1 UNK         0.1106 
    107 H107       19.5502  -30.8937  -37.1477 H         1 UNK         0.0828 
    108 H108       18.8830  -29.2897  -37.4518 H         1 UNK         0.0828 
    109 H109       17.9277  -30.7199  -37.7968 H         1 UNK         0.0828 
    110 H110       21.2373  -31.2932  -40.8700 H         1 UNK         0.2931 
    111 H111       21.8305  -33.1826  -41.8333 H         1 UNK         0.0412 
    112 H112       21.8330  -34.9347  -38.4440 H         1 UNK         0.3472 
    113 H113       21.7120  -33.2259  -38.7925 H         1 UNK         0.3472 
    114 H114       18.8090  -33.6361  -42.0065 H         1 UNK         0.0970 
    115 H115       19.9431  -34.7430  -42.7139 H         1 UNK         0.0970 
    116 H116       20.0135  -30.5978  -42.7607 H         1 UNK         0.0612 
    117 H117       18.3898  -31.2466  -42.8299 H         1 UNK         0.0612 
@<TRIPOS>BOND
     1    1    2 1    
     2    1   62 1    
     3    1   63 1    
     4    1   64 1    
     5    2    3 2    
     6    2    4 am   BACKBONE|DICT|INTERRES
     7    4    5 1    
     8    4   65 1    
     9    5    6 1    
    10    5   25 1    
    11    5   66 1    
    12    6    7 1    
    13    6   67 1    
    14    6   68 1    
    15    7    8 1    
    16    8    9 1    
    17    8   69 1    
    18    8   70 1    
    19    9   10 ar   
    20    9   14 ar   
    21   10   11 ar   
    22   10   71 1    
    23   11   12 ar   
    24   11   61 1    
    25   12   13 ar   
    26   12   72 1    
    27   13   14 ar   
    28   13   15 1    
    29   14   73 1    
    30   15   16 1    
    31   15   74 1    
    32   15   75 1    
    33   16   17 1    
    34   17   18 1    
    35   17   76 1    
    36   17   77 1    
    37   18   19 1    
    38   18   27 1    
    39   18   78 1    
    40   19   20 am   BACKBONE|DICT|INTERRES
    41   19   79 1    
    42   20   21 2    
    43   20   22 1    
    44   22   23 1    
    45   22   24 1    
    46   22   80 1    
    47   23   81 1    
    48   23   82 1    
    49   23   83 1    
    50   24   25 am   BACKBONE|DICT|INTERRES
    51   24   84 1    
    52   25   26 2    
    53   27   28 2    
    54   27   29 am   BACKBONE|DICT|INTERRES
    55   29   30 1    
    56   29   85 1    
    57   30   31 1    
    58   30   32 1    
    59   30   86 1    
    60   31   87 1    
    61   31   88 1    
    62   31   89 1    
    63   32   33 2    
    64   32   34 am   BACKBONE|DICT|INTERRES
    65   34   35 1    
    66   34   90 1    
    67   35   36 1    
    68   35   37 1    
    69   35   91 1    
    70   36   92 1    
    71   36   93 1    
    72   36   94 1    
    73   37   38 2    
    74   37   39 am   BACKBONE|DICT|INTERRES
    75   39   40 1    
    76   39   95 1    
    77   40   41 1    
    78   40   42 1    
    79   40   96 1    
    80   41   97 1    
    81   41   98 1    
    82   41   99 1    
    83   42   43 2    
    84   42   44 am   BACKBONE|DICT|INTERRES
    85   44   45 1    
    86   44  100 1    
    87   45   46 1    
    88   45   47 1    
    89   45  101 1    
    90   46  102 1    
    91   46  103 1    
    92   46  104 1    
    93   47   48 2    
    94   47   49 am   BACKBONE|DICT|INTERRES
    95   49   50 1    
    96   49  105 1    
    97   50   51 1    
    98   50   52 1    
    99   50  106 1    
   100   51  107 1    
   101   51  108 1    
   102   51  109 1    
   103   52   53 2    
   104   52   54 am   BACKBONE|DICT|INTERRES
   105   54   55 1    
   106   54  110 1    
   107   55   56 1    
   108   55   59 1    
   109   55  111 1    
   110   56   57 am   BACKBONE|DICT|INTERRES
   111   56   58 2    
   112   57  112 1    
   113   57  113 1    
   114   59   60 1    
   115   59  114 1    
   116   59  115 1    
   117   60   61 1    
   118   61  116 1    
   119   61  117 1    
@<TRIPOS>SUBSTRUCTURE
     1 UNK         1 GROUP             0       ****    0 ROOT    
