@<TRIPOS>MOLECULE
3R8
117   119    1
SMALL
USER_CHARGES


@<TRIPOS>ATOM
      1 CA         13.8968  -25.0694  -42.7379 C.3       0 UNK        -0.2013 
      2 C          15.2506  -25.6240  -43.1537 C.2       0 UNK         0.4866 
      3 O          15.8674  -25.1049  -44.0852 O.2       0 UNK        -0.5176 
      4 N          15.7273  -26.6700  -42.4669 N.am      1 UNK        -0.4884 
      5 CA         17.0015  -27.3537  -42.7249 C.3       1 UNK         0.0853 
      6 C6         16.9860  -28.8150  -42.2059 C.3       10 UNK        -0.0849 
      7 S7         15.7174  -29.8259  -43.0451 S.3       10 UNK        -0.2776 
      8 C8         16.5982  -31.4005  -43.3529 C.3       10 UNK         0.0316 
      9 C9         17.8313  -31.3163  -44.2567 C.ar      10 UNK        -0.0863 
     10 C10        18.7898  -32.3332  -44.1773 C.ar      10 UNK        -0.1009 
     11 C11        19.9402  -32.3016  -44.9729 C.ar      10 UNK        -0.0712 
     12 C12        20.1292  -31.2368  -45.8585 C.ar      10 UNK        -0.0894 
     13 C13        19.1691  -30.2284  -45.9738 C.ar      10 UNK        -0.0745 
     14 C14        18.0206  -30.2778  -45.1786 C.ar      10 UNK        -0.0972 
     15 C15        19.3571  -29.1028  -46.9818 C.3       10 UNK         0.0209 
     16 S16        19.6471  -27.4958  -46.1804 S.3       10 UNK        -0.2568 
     17 C17        21.2781  -27.7627  -45.4045 C.3       10 UNK        -0.0983 
     18 CA         21.8169  -26.4752  -44.7266 C.3       3 UNK         0.0876 
     19 N          20.8568  -25.9734  -43.7431 N.am      3 UNK        -0.4424 
     20 C          20.7235  -24.7177  -43.3035 C.2       2 UNK         0.4918 
     21 O          21.5001  -23.8109  -43.6087 O.2       2 UNK        -0.4875 
     22 CA         19.5090  -24.4285  -42.3944 C.3       2 UNK         0.0481 
     23 CB         19.0300  -22.9712  -42.5189 C.3       2 UNK        -0.1831 
     24 N          18.3802  -25.3223  -42.6805 N.am      2 UNK        -0.4498 
     25 C          18.1936  -26.5443  -42.1669 C.2       1 UNK         0.5027 
     26 O          18.9347  -27.0312  -41.3137 O.2       1 UNK        -0.4969 
     27 C          23.2025  -26.6831  -44.0810 C.2       3 UNK         0.5005 
     28 O          23.6940  -27.8117  -44.0175 O.2       3 UNK        -0.5279 
     29 N          23.7862  -25.6008  -43.5503 N.am      4 UNK        -0.4463 
     30 CA         25.0730  -25.5819  -42.8504 C.3       4 UNK         0.0283 
     31 CB         25.3459  -24.1515  -42.3576 C.3       4 UNK        -0.1875 
     32 C          26.2376  -26.0794  -43.7372 C.2       4 UNK         0.4949 
     33 O          26.2254  -25.8110  -44.9386 O.2       4 UNK        -0.5039 
     34 N          27.2520  -26.7652  -43.1902 N.am      5 UNK        -0.4663 
     35 CA         27.4585  -27.1047  -41.7763 C.3       5 UNK         0.0242 
     36 CB         28.9674  -27.2936  -41.5430 C.3       5 UNK        -0.1982 
     37 C          26.6890  -28.3532  -41.3007 C.2       5 UNK         0.5017 
     38 O          26.6861  -28.6174  -40.0983 O.2       5 UNK        -0.5012 
     39 N          26.0696  -29.1025  -42.2250 N.am      6 UNK        -0.4439 
     40 CA         25.3182  -30.3290  -41.9317 C.3       6 UNK         0.0297 
     41 CB         25.0130  -31.0740  -43.2409 C.3       6 UNK        -0.2006 
     42 C          24.0268  -30.0706  -41.1340 C.2       6 UNK         0.4892 
     43 O          23.7456  -30.8064  -40.1870 O.2       6 UNK        -0.5089 
     44 N          23.2966  -29.0156  -41.5228 N.am      7 UNK        -0.4243 
     45 CA         22.0303  -28.5433  -40.9564 C.3       7 UNK         0.0196 
     46 CB         22.2458  -27.9707  -39.5373 C.3       7 UNK        -0.2007 
     47 C          20.9273  -29.6140  -41.0615 C.2       7 UNK         0.5020 
     48 O          20.7502  -30.1889  -42.1351 O.2       7 UNK        -0.5147 
     49 N          20.1908  -29.8541  -39.9703 N.am      8 UNK        -0.4734 
     50 CA         19.1572  -30.8820  -39.8737 C.3       8 UNK         0.0238 
     51 CB         18.1987  -30.5241  -38.7233 C.3       8 UNK        -0.1912 
     52 C          19.8017  -32.2650  -39.6915 C.2       8 UNK         0.5038 
     53 O          19.9961  -32.6998  -38.5543 O.2       8 UNK        -0.5046 
     54 N          20.1534  -32.9001  -40.8164 N.am      9 UNK        -0.4200 
     55 CA         20.7731  -34.2315  -40.9043 C.3       9 UNK         0.0839 
     56 C          19.9876  -35.3370  -40.1445 C.2       9 UNK         0.5513 
     57 N          20.6824  -36.2340  -39.4585 N.am      9 UNK        -0.7519 
     58 O          18.7628  -35.4154  -40.2184 O.2       9 UNK        -0.4960 
     59 C59        20.9832  -34.6675  -42.3772 C.3       10 UNK        -0.0876 
     60 S60        21.9190  -33.4573  -43.3743 S.3       10 UNK        -0.2414 
     61 C61        20.9599  -33.4336  -44.9228 C.3       10 UNK         0.0169 
     62 H62        13.1998  -25.1172  -43.5741 H         1 UNK         0.0903 
     63 H63        13.4661  -25.6256  -41.9054 H         1 UNK         0.0903 
     64 H64        13.9955  -24.0273  -42.4353 H         1 UNK         0.0903 
     65 H65        15.1818  -27.0496  -41.7059 H         1 UNK         0.3096 
     66 H66        17.1512  -27.3999  -43.8065 H         1 UNK         0.1121 
     67 H67        17.9629  -29.2741  -42.3672 H         1 UNK         0.0849 
     68 H68        16.8061  -28.8449  -41.1301 H         1 UNK         0.0849 
     69 H69        16.8767  -31.8270  -42.3881 H         1 UNK         0.0865 
     70 H70        15.8944  -32.1016  -43.8032 H         1 UNK         0.0865 
     71 H71        18.6347  -33.1572  -43.4961 H         1 UNK         0.1346 
     72 H72        21.0153  -31.2047  -46.4774 H         1 UNK         0.1412 
     73 H73        17.2802  -29.4980  -45.2842 H         1 UNK         0.1426 
     74 H74        18.4632  -29.0285  -47.6025 H         1 UNK         0.0716 
     75 H75        20.1830  -29.3184  -47.6615 H         1 UNK         0.0716 
     76 H76        21.9730  -28.1112  -46.1708 H         1 UNK         0.0695 
     77 H77        21.1854  -28.5721  -44.6763 H         1 UNK         0.0695 
     78 H78        21.9419  -25.7175  -45.5035 H         1 UNK         0.0983 
     79 H79        20.1870  -26.6522  -43.4153 H         1 UNK         0.3095 
     80 H80        19.8369  -24.5845  -41.3648 H         1 UNK         0.0454 
     81 H81        18.7282  -22.7325  -43.5394 H         1 UNK         0.0851 
     82 H82        19.8186  -22.2715  -42.2388 H         1 UNK         0.0851 
     83 H83        18.1811  -22.7755  -41.8637 H         1 UNK         0.0851 
     84 H84        17.7023  -25.0028  -43.3677 H         1 UNK         0.2976 
     85 H85        23.2856  -24.7205  -43.6215 H         1 UNK         0.3116 
     86 H86        24.9535  -26.2320  -41.9842 H         1 UNK         0.0646 
     87 H87        25.4120  -23.4471  -43.1879 H         1 UNK         0.0847 
     88 H88        26.2869  -24.0932  -41.8095 H         1 UNK         0.0847 
     89 H89        24.5600  -23.8049  -41.6862 H         1 UNK         0.0847 
     90 H90        27.9873  -27.0699  -43.8123 H         1 UNK         0.3040 
     91 H91        27.1365  -26.2700  -41.1513 H         1 UNK         0.1015 
     92 H92        29.5261  -26.3958  -41.8088 H         1 UNK         0.0786 
     93 H93        29.3666  -28.1236  -42.1275 H         1 UNK         0.0786 
     94 H94        29.1803  -27.5032  -40.4936 H         1 UNK         0.0786 
     95 H95        26.0920  -28.7961  -43.1879 H         1 UNK         0.3172 
     96 H96        25.9590  -30.9717  -41.3241 H         1 UNK         0.0595 
     97 H97        24.3553  -30.4987  -43.8940 H         1 UNK         0.0839 
     98 H98        24.5168  -32.0228  -43.0357 H         1 UNK         0.0839 
     99 H99        25.9243  -31.3009  -43.7940 H         1 UNK         0.0839 
    100 H100       23.5802  -28.5560  -42.3867 H         1 UNK         0.2998 
    101 H101       21.7028  -27.7203  -41.5914 H         1 UNK         0.0822 
    102 H102       22.5321  -28.7424  -38.8217 H         1 UNK         0.0787 
    103 H103       23.0326  -27.2160  -39.5382 H         1 UNK         0.0787 
    104 H104       21.3425  -27.4843  -39.1666 H         1 UNK         0.0787 
    105 H105       20.4128  -29.3525  -39.1230 H         1 UNK         0.3055 
    106 H106       18.5774  -30.8996  -40.7978 H         1 UNK         0.1106 
    107 H107       17.4121  -31.2735  -38.6263 H         1 UNK         0.0828 
    108 H108       18.7150  -30.4676  -37.7641 H         1 UNK         0.0828 
    109 H109       17.7123  -29.5642  -38.8964 H         1 UNK         0.0828 
    110 H110       20.0676  -32.3996  -41.6918 H         1 UNK         0.2931 
    111 H111       21.7565  -34.1353  -40.4398 H         1 UNK         0.0412 
    112 H112       21.6882  -36.1833  -39.4028 H         1 UNK         0.3472 
    113 H113       20.1912  -36.9696  -38.9742 H         1 UNK         0.3472 
    114 H114       21.5329  -35.6102  -42.4131 H         1 UNK         0.0970 
    115 H115       20.0208  -34.8711  -42.8487 H         1 UNK         0.0970 
    116 H116       21.6667  -33.3370  -45.7482 H         1 UNK         0.0612 
    117 H117       20.4586  -34.3900  -45.0768 H         1 UNK         0.0612 
@<TRIPOS>BOND
     1    1    2 1    
     2    1   62 1    
     3    1   63 1    
     4    1   64 1    
     5    2    3 2    
     6    2    4 am   BACKBONE|DICT|INTERRES
     7    4    5 1    
     8    4   65 1    
     9    5    6 1    
    10    5   25 1    
    11    5   66 1    
    12    6    7 1    
    13    6   67 1    
    14    6   68 1    
    15    7    8 1    
    16    8    9 1    
    17    8   69 1    
    18    8   70 1    
    19    9   10 ar   
    20    9   14 ar   
    21   10   11 ar   
    22   10   71 1    
    23   11   12 ar   
    24   11   61 1    
    25   12   13 ar   
    26   12   72 1    
    27   13   14 ar   
    28   13   15 1    
    29   14   73 1    
    30   15   16 1    
    31   15   74 1    
    32   15   75 1    
    33   16   17 1    
    34   17   18 1    
    35   17   76 1    
    36   17   77 1    
    37   18   19 1    
    38   18   27 1    
    39   18   78 1    
    40   19   20 am   BACKBONE|DICT|INTERRES
    41   19   79 1    
    42   20   21 2    
    43   20   22 1    
    44   22   23 1    
    45   22   24 1    
    46   22   80 1    
    47   23   81 1    
    48   23   82 1    
    49   23   83 1    
    50   24   25 am   BACKBONE|DICT|INTERRES
    51   24   84 1    
    52   25   26 2    
    53   27   28 2    
    54   27   29 am   BACKBONE|DICT|INTERRES
    55   29   30 1    
    56   29   85 1    
    57   30   31 1    
    58   30   32 1    
    59   30   86 1    
    60   31   87 1    
    61   31   88 1    
    62   31   89 1    
    63   32   33 2    
    64   32   34 am   BACKBONE|DICT|INTERRES
    65   34   35 1    
    66   34   90 1    
    67   35   36 1    
    68   35   37 1    
    69   35   91 1    
    70   36   92 1    
    71   36   93 1    
    72   36   94 1    
    73   37   38 2    
    74   37   39 am   BACKBONE|DICT|INTERRES
    75   39   40 1    
    76   39   95 1    
    77   40   41 1    
    78   40   42 1    
    79   40   96 1    
    80   41   97 1    
    81   41   98 1    
    82   41   99 1    
    83   42   43 2    
    84   42   44 am   BACKBONE|DICT|INTERRES
    85   44   45 1    
    86   44  100 1    
    87   45   46 1    
    88   45   47 1    
    89   45  101 1    
    90   46  102 1    
    91   46  103 1    
    92   46  104 1    
    93   47   48 2    
    94   47   49 am   BACKBONE|DICT|INTERRES
    95   49   50 1    
    96   49  105 1    
    97   50   51 1    
    98   50   52 1    
    99   50  106 1    
   100   51  107 1    
   101   51  108 1    
   102   51  109 1    
   103   52   53 2    
   104   52   54 am   BACKBONE|DICT|INTERRES
   105   54   55 1    
   106   54  110 1    
   107   55   56 1    
   108   55   59 1    
   109   55  111 1    
   110   56   57 am   BACKBONE|DICT|INTERRES
   111   56   58 2    
   112   57  112 1    
   113   57  113 1    
   114   59   60 1    
   115   59  114 1    
   116   59  115 1    
   117   60   61 1    
   118   61  116 1    
   119   61  117 1    
@<TRIPOS>SUBSTRUCTURE
     1 UNK         1 GROUP             0       ****    0 ROOT    
