@<TRIPOS>MOLECULE
3R8
117   119    1
SMALL
USER_CHARGES


@<TRIPOS>ATOM
      1 CA         14.7126  -27.2420  -49.5651 C.3       0 UNK        -0.2013 
      2 C          15.2724  -27.7888  -48.2603 C.2       0 UNK         0.4866 
      3 O          15.0672  -28.9636  -47.9535 O.2       0 UNK        -0.5176 
      4 N          15.9766  -26.9464  -47.4974 N.am      1 UNK        -0.4884 
      5 CA         16.6342  -27.2940  -46.2355 C.3       1 UNK         0.0853 
      6 C6         16.0630  -26.4887  -45.0383 C.3       10 UNK        -0.0849 
      7 S7         14.2802  -26.7297  -44.7215 S.3       10 UNK        -0.2776 
      8 C8         14.1471  -28.5102  -44.3357 C.3       10 UNK         0.0316 
      9 C9         15.2007  -29.0063  -43.3514 C.ar      10 UNK        -0.0863 
     10 C10        16.0364  -30.0680  -43.7070 C.ar      10 UNK        -0.1009 
     11 C11        17.0111  -30.5328  -42.8213 C.ar      10 UNK        -0.0712 
     12 C12        17.1487  -29.9314  -41.5674 C.ar      10 UNK        -0.0894 
     13 C13        16.3265  -28.8603  -41.2015 C.ar      10 UNK        -0.0745 
     14 C14        15.3440  -28.4138  -42.0924 C.ar      10 UNK        -0.0972 
     15 C15        16.4957  -28.1719  -39.8508 C.3       10 UNK         0.0209 
     16 S16        18.2045  -27.6154  -39.5184 S.3       10 UNK        -0.2568 
     17 C17        18.5896  -26.5725  -40.9682 C.3       10 UNK        -0.0983 
     18 CA         19.9737  -26.9357  -41.5839 C.3       3 UNK         0.0876 
     19 N          19.9302  -26.8921  -43.0513 N.am      3 UNK        -0.4424 
     20 C          20.7313  -27.5630  -43.8917 C.2       2 UNK         0.4918 
     21 O          21.6851  -28.2511  -43.5222 O.2       2 UNK        -0.4875 
     22 CA         20.3812  -27.4522  -45.3833 C.3       2 UNK         0.0481 
     23 CB         21.1904  -28.4130  -46.2754 C.3       2 UNK        -0.1831 
     24 N          18.9468  -27.6917  -45.5491 N.am      2 UNK        -0.4498 
     25 C          18.1403  -27.0076  -46.3683 C.2       1 UNK         0.5027 
     26 O          18.5341  -26.1438  -47.1575 O.2       1 UNK        -0.4969 
     27 C          21.1507  -26.1135  -40.9977 C.2       3 UNK         0.5005 
     28 O          20.9599  -25.2942  -40.0958 O.2       3 UNK        -0.5279 
     29 N          22.3549  -26.3300  -41.5392 N.am      4 UNK        -0.4463 
     30 CA         23.6156  -25.7554  -41.0743 C.3       4 UNK         0.0283 
     31 CB         24.6670  -25.9237  -42.1848 C.3       4 UNK        -0.1875 
     32 C          24.0906  -26.4400  -39.7839 C.2       4 UNK         0.4949 
     33 O          23.7030  -27.5788  -39.5139 O.2       4 UNK        -0.5039 
     34 N          24.9856  -25.7683  -39.0464 N.am      5 UNK        -0.4663 
     35 CA         25.6046  -26.2695  -37.8089 C.3       5 UNK         0.0242 
     36 CB         26.4750  -25.1610  -37.1950 C.3       5 UNK        -0.1982 
     37 C          26.4260  -27.5625  -37.9877 C.2       5 UNK         0.5017 
     38 O          26.5927  -28.3120  -37.0254 O.2       5 UNK        -0.5012 
     39 N          26.8941  -27.8111  -39.2186 N.am      6 UNK        -0.4439 
     40 CA         27.5509  -29.0478  -39.6458 C.3       6 UNK         0.0297 
     41 CB         28.2828  -28.7830  -40.9728 C.3       6 UNK        -0.2006 
     42 C          26.5913  -30.2472  -39.7972 C.2       6 UNK         0.4892 
     43 O          27.0802  -31.3713  -39.9149 O.2       6 UNK        -0.5089 
     44 N          25.2694  -29.9977  -39.8108 N.am      7 UNK        -0.4243 
     45 CA         24.1791  -30.9609  -40.0125 C.3       7 UNK         0.0196 
     46 CB         24.0791  -31.9381  -38.8219 C.3       7 UNK        -0.2007 
     47 C          24.2822  -31.6718  -41.3743 C.2       7 UNK         0.5020 
     48 O          24.2788  -32.9023  -41.4358 O.2       7 UNK        -0.5147 
     49 N          24.3844  -30.8714  -42.4456 N.am      8 UNK        -0.4734 
     50 CA         24.6321  -31.3089  -43.8268 C.3       8 UNK         0.0238 
     51 CB         24.7402  -30.0712  -44.7323 C.3       8 UNK        -0.1912 
     52 C          23.6045  -32.3048  -44.3977 C.2       8 UNK         0.5038 
     53 O          23.9736  -33.1256  -45.2390 O.2       8 UNK        -0.5046 
     54 N          22.3578  -32.2250  -43.9217 N.am      9 UNK        -0.4200 
     55 CA         21.2611  -33.1585  -44.2197 C.3       9 UNK         0.0839 
     56 C          20.8354  -34.0200  -42.9950 C.2       9 UNK         0.5513 
     57 N          21.6040  -34.0686  -41.9130 N.am      9 UNK        -0.7519 
     58 O          19.7996  -34.6794  -43.0309 O.2       9 UNK        -0.4960 
     59 C59        20.0720  -32.4438  -44.9158 C.3       10 UNK        -0.0876 
     60 S60        19.4275  -30.9943  -44.0125 S.3       10 UNK        -0.2414 
     61 C61        17.9301  -31.6664  -43.2388 C.3       10 UNK         0.0169 
     62 H62        15.1095  -27.8054  -50.4092 H         1 UNK         0.0903 
     63 H63        13.6268  -27.3336  -49.5741 H         1 UNK         0.0903 
     64 H64        14.9649  -26.1916  -49.7094 H         1 UNK         0.0903 
     65 H65        16.1740  -26.0122  -47.8307 H         1 UNK         0.3096 
     66 H66        16.5247  -28.3610  -46.0344 H         1 UNK         0.1121 
     67 H67        16.6009  -26.7278  -44.1193 H         1 UNK         0.0849 
     68 H68        16.2174  -25.4194  -45.1970 H         1 UNK         0.0849 
     69 H69        14.1972  -29.0697  -45.2711 H         1 UNK         0.0865 
     70 H70        13.1574  -28.7063  -43.9213 H         1 UNK         0.0865 
     71 H71        15.9356  -30.5325  -44.6789 H         1 UNK         0.1346 
     72 H72        17.9119  -30.2808  -40.8854 H         1 UNK         0.1412 
     73 H73        14.7001  -27.5891  -41.8180 H         1 UNK         0.1426 
     74 H74        16.1925  -28.8633  -39.0637 H         1 UNK         0.0716 
     75 H75        15.8336  -27.3082  -39.7723 H         1 UNK         0.0716 
     76 H76        18.5160  -25.5203  -40.6882 H         1 UNK         0.0695 
     77 H77        17.8018  -26.7130  -41.7083 H         1 UNK         0.0695 
     78 H78        20.1902  -27.9755  -41.3258 H         1 UNK         0.0983 
     79 H79        19.2112  -26.3079  -43.4505 H         1 UNK         0.3095 
     80 H80        20.6237  -26.4291  -45.6777 H         1 UNK         0.0454 
     81 H81        20.9139  -28.3070  -47.3242 H         1 UNK         0.0851 
     82 H82        21.0394  -29.4546  -45.9928 H         1 UNK         0.0851 
     83 H83        22.2584  -28.2061  -46.2012 H         1 UNK         0.0851 
     84 H84        18.5520  -28.3856  -44.9264 H         1 UNK         0.2976 
     85 H85        22.4107  -27.0479  -42.2565 H         1 UNK         0.3116 
     86 H86        23.4682  -24.6913  -40.8779 H         1 UNK         0.0646 
     87 H87        25.6174  -25.4688  -41.9028 H         1 UNK         0.0847 
     88 H88        24.3457  -25.4436  -43.1094 H         1 UNK         0.0847 
     89 H89        24.8598  -26.9746  -42.4054 H         1 UNK         0.0847 
     90 H90        25.2600  -24.8418  -39.3429 H         1 UNK         0.3040 
     91 H91        24.7984  -26.5009  -37.1090 H         1 UNK         0.1015 
     92 H92        25.8859  -24.2721  -36.9686 H         1 UNK         0.0786 
     93 H93        27.2861  -24.8674  -37.8627 H         1 UNK         0.0786 
     94 H94        26.9277  -25.4927  -36.2592 H         1 UNK         0.0786 
     95 H95        26.7198  -27.1187  -39.9318 H         1 UNK         0.3172 
     96 H96        28.2942  -29.3177  -38.8927 H         1 UNK         0.0595 
     97 H97        27.5905  -28.5085  -41.7699 H         1 UNK         0.0839 
     98 H98        28.8233  -29.6707  -41.3047 H         1 UNK         0.0839 
     99 H99        29.0153  -27.9819  -40.8710 H         1 UNK         0.0839 
    100 H100       24.9594  -29.0378  -39.6870 H         1 UNK         0.2998 
    101 H101       23.2553  -30.3802  -40.0370 H         1 UNK         0.0822 
    102 H102       23.9772  -31.4021  -37.8783 H         1 UNK         0.0787 
    103 H103       23.2078  -32.5864  -38.9228 H         1 UNK         0.0787 
    104 H104       24.9558  -32.5825  -38.7486 H         1 UNK         0.0787 
    105 H105       24.3558  -29.8736  -42.2933 H         1 UNK         0.3055 
    106 H106       25.5974  -31.8199  -43.8306 H         1 UNK         0.1106 
    107 H107       24.9404  -30.3576  -45.7659 H         1 UNK         0.0828 
    108 H108       23.8177  -29.4901  -44.7285 H         1 UNK         0.0828 
    109 H109       25.5523  -29.4158  -44.4172 H         1 UNK         0.0828 
    110 H110       22.1467  -31.5097  -43.2408 H         1 UNK         0.2931 
    111 H111       21.6207  -33.9002  -44.9348 H         1 UNK         0.0412 
    112 H112       21.3142  -34.6403  -41.1357 H         1 UNK         0.3472 
    113 H113       22.5037  -33.6000  -41.8821 H         1 UNK         0.3472 
    114 H114       20.4023  -32.0882  -45.8928 H         1 UNK         0.0970 
    115 H115       19.2645  -33.1455  -45.1311 H         1 UNK         0.0970 
    116 H116       17.4116  -32.3265  -43.9358 H         1 UNK         0.0612 
    117 H117       18.2058  -32.2752  -42.3765 H         1 UNK         0.0612 
@<TRIPOS>BOND
     1    1    2 1    
     2    1   62 1    
     3    1   63 1    
     4    1   64 1    
     5    2    3 2    
     6    2    4 am   BACKBONE|DICT|INTERRES
     7    4    5 1    
     8    4   65 1    
     9    5    6 1    
    10    5   25 1    
    11    5   66 1    
    12    6    7 1    
    13    6   67 1    
    14    6   68 1    
    15    7    8 1    
    16    8    9 1    
    17    8   69 1    
    18    8   70 1    
    19    9   10 ar   
    20    9   14 ar   
    21   10   11 ar   
    22   10   71 1    
    23   11   12 ar   
    24   11   61 1    
    25   12   13 ar   
    26   12   72 1    
    27   13   14 ar   
    28   13   15 1    
    29   14   73 1    
    30   15   16 1    
    31   15   74 1    
    32   15   75 1    
    33   16   17 1    
    34   17   18 1    
    35   17   76 1    
    36   17   77 1    
    37   18   19 1    
    38   18   27 1    
    39   18   78 1    
    40   19   20 am   BACKBONE|DICT|INTERRES
    41   19   79 1    
    42   20   21 2    
    43   20   22 1    
    44   22   23 1    
    45   22   24 1    
    46   22   80 1    
    47   23   81 1    
    48   23   82 1    
    49   23   83 1    
    50   24   25 am   BACKBONE|DICT|INTERRES
    51   24   84 1    
    52   25   26 2    
    53   27   28 2    
    54   27   29 am   BACKBONE|DICT|INTERRES
    55   29   30 1    
    56   29   85 1    
    57   30   31 1    
    58   30   32 1    
    59   30   86 1    
    60   31   87 1    
    61   31   88 1    
    62   31   89 1    
    63   32   33 2    
    64   32   34 am   BACKBONE|DICT|INTERRES
    65   34   35 1    
    66   34   90 1    
    67   35   36 1    
    68   35   37 1    
    69   35   91 1    
    70   36   92 1    
    71   36   93 1    
    72   36   94 1    
    73   37   38 2    
    74   37   39 am   BACKBONE|DICT|INTERRES
    75   39   40 1    
    76   39   95 1    
    77   40   41 1    
    78   40   42 1    
    79   40   96 1    
    80   41   97 1    
    81   41   98 1    
    82   41   99 1    
    83   42   43 2    
    84   42   44 am   BACKBONE|DICT|INTERRES
    85   44   45 1    
    86   44  100 1    
    87   45   46 1    
    88   45   47 1    
    89   45  101 1    
    90   46  102 1    
    91   46  103 1    
    92   46  104 1    
    93   47   48 2    
    94   47   49 am   BACKBONE|DICT|INTERRES
    95   49   50 1    
    96   49  105 1    
    97   50   51 1    
    98   50   52 1    
    99   50  106 1    
   100   51  107 1    
   101   51  108 1    
   102   51  109 1    
   103   52   53 2    
   104   52   54 am   BACKBONE|DICT|INTERRES
   105   54   55 1    
   106   54  110 1    
   107   55   56 1    
   108   55   59 1    
   109   55  111 1    
   110   56   57 am   BACKBONE|DICT|INTERRES
   111   56   58 2    
   112   57  112 1    
   113   57  113 1    
   114   59   60 1    
   115   59  114 1    
   116   59  115 1    
   117   60   61 1    
   118   61  116 1    
   119   61  117 1    
@<TRIPOS>SUBSTRUCTURE
     1 UNK         1 GROUP             0       ****    0 ROOT    
