@<TRIPOS>MOLECULE
3R8
117   119    1
SMALL
USER_CHARGES


@<TRIPOS>ATOM
      1 CA         14.8132  -23.9216  -40.9362 C.3       0 UNK        -0.2013 
      2 C          14.8912  -24.1972  -42.4306 C.2       0 UNK         0.4866 
      3 O          14.3271  -23.4404  -43.2221 O.2       0 UNK        -0.5176 
      4 N          15.5784  -25.2782  -42.8206 N.am      1 UNK        -0.4884 
      5 CA         15.8204  -25.6549  -44.2180 C.3       1 UNK         0.0853 
      6 C6         16.0229  -27.1866  -44.3563 C.3       10 UNK        -0.0849 
      7 S7         15.4658  -27.8088  -45.9801 S.3       10 UNK        -0.2776 
      8 C8         15.4382  -29.6062  -45.6866 C.3       10 UNK         0.0316 
      9 C9         16.8263  -30.1402  -45.3679 C.ar      10 UNK        -0.0863 
     10 C10        17.1392  -30.5730  -44.0751 C.ar      10 UNK        -0.1009 
     11 C11        18.4245  -31.0344  -43.7754 C.ar      10 UNK        -0.0712 
     12 C12        19.3969  -31.0626  -44.7790 C.ar      10 UNK        -0.0894 
     13 C13        19.1007  -30.6102  -46.0681 C.ar      10 UNK        -0.0745 
     14 C14        17.8075  -30.1716  -46.3629 C.ar      10 UNK        -0.0972 
     15 C15        20.1950  -30.5375  -47.1233 C.3       10 UNK         0.0209 
     16 S16        20.6591  -28.8143  -47.5086 S.3       10 UNK        -0.2568 
     17 C17        21.1318  -28.1682  -45.8662 C.3       10 UNK        -0.0983 
     18 CA         21.1382  -26.6218  -45.8000 C.3       3 UNK         0.0876 
     19 N          19.8490  -26.0430  -46.1896 N.am      3 UNK        -0.4424 
     20 C          19.6768  -24.7728  -46.5760 C.2       2 UNK         0.4918 
     21 O          20.5970  -23.9614  -46.6878 O.2       2 UNK        -0.4875 
     22 CA         18.2422  -24.3268  -46.9143 C.3       2 UNK         0.0481 
     23 CB         17.9632  -24.5260  -48.4126 C.3       2 UNK        -0.1831 
     24 N          17.2052  -25.0106  -46.1362 N.am      2 UNK        -0.4498 
     25 C          16.9945  -24.8485  -44.8227 C.2       1 UNK         0.5027 
     26 O          17.6764  -24.1048  -44.1118 O.2       1 UNK        -0.4969 
     27 C          21.5176  -26.1660  -44.3774 C.2       3 UNK         0.5005 
     28 O          20.6384  -26.0353  -43.5212 O.2       3 UNK        -0.5279 
     29 N          22.8211  -25.9804  -44.1344 N.am      4 UNK        -0.4463 
     30 CA         23.3728  -25.7459  -42.7996 C.3       4 UNK         0.0283 
     31 CB         24.7701  -25.1175  -42.9268 C.3       4 UNK        -0.1875 
     32 C          23.4468  -27.0669  -42.0178 C.2       4 UNK         0.4949 
     33 O          23.8348  -28.0884  -42.5903 O.2       4 UNK        -0.5039 
     34 N          23.1029  -27.0181  -40.7261 N.am      5 UNK        -0.4663 
     35 CA         23.2282  -28.1518  -39.8099 C.3       5 UNK         0.0242 
     36 CB         22.3260  -27.9235  -38.5865 C.3       5 UNK        -0.1982 
     37 C          24.6929  -28.3380  -39.3818 C.2       5 UNK         0.5017 
     38 O          25.3737  -27.3471  -39.1039 O.2       5 UNK        -0.5012 
     39 N          25.1381  -29.5950  -39.3180 N.am      6 UNK        -0.4439 
     40 CA         26.4873  -30.0147  -38.9421 C.3       6 UNK         0.0297 
     41 CB         27.5193  -29.5894  -40.0151 C.3       6 UNK        -0.2006 
     42 C          26.4175  -31.5274  -38.6976 C.2       6 UNK         0.4892 
     43 O          25.7210  -31.9488  -37.7732 O.2       6 UNK        -0.5089 
     44 N          27.0788  -32.3213  -39.5527 N.am      7 UNK        -0.4243 
     45 CA         26.8362  -33.7620  -39.6840 C.3       7 UNK         0.0196 
     46 CB         27.9623  -34.4034  -40.5105 C.3       7 UNK        -0.2007 
     47 C          25.4615  -34.0402  -40.3218 C.2       7 UNK         0.5020 
     48 O          24.8001  -35.0107  -39.9519 O.2       7 UNK        -0.5147 
     49 N          25.0423  -33.1567  -41.2398 N.am      8 UNK        -0.4734 
     50 CA         23.6765  -33.0755  -41.7542 C.3       8 UNK         0.0238 
     51 CB         23.6655  -32.2059  -43.0227 C.3       8 UNK        -0.1912 
     52 C          22.7427  -32.4707  -40.6941 C.2       8 UNK         0.5038 
     53 O          23.1730  -31.5988  -39.9341 O.2       8 UNK        -0.5046 
     54 N          21.4847  -32.9248  -40.6925 N.am      9 UNK        -0.4200 
     55 CA         20.4072  -32.4957  -39.7816 C.3       9 UNK         0.0839 
     56 C          20.5754  -32.9682  -38.3048 C.2       9 UNK         0.5513 
     57 N          21.4922  -33.8777  -37.9963 N.am      9 UNK        -0.7519 
     58 O          19.8381  -32.5292  -37.4258 O.2       9 UNK        -0.4960 
     59 C59        20.0715  -30.9748  -39.8738 C.3       10 UNK        -0.0876 
     60 S60        19.8858  -30.2876  -41.5585 S.3       10 UNK        -0.2414 
     61 C61        18.7764  -31.4842  -42.3665 C.3       10 UNK         0.0169 
     62 H62        15.3397  -24.6771  -40.3533 H         1 UNK         0.0903 
     63 H63        15.2548  -22.9512  -40.7108 H         1 UNK         0.0903 
     64 H64        13.7733  -23.9068  -40.6108 H         1 UNK         0.0903 
     65 H65        16.0571  -25.8359  -42.1274 H         1 UNK         0.3096 
     66 H66        14.9271  -25.3773  -44.7834 H         1 UNK         0.1121 
     67 H67        17.0619  -27.4756  -44.1815 H         1 UNK         0.0849 
     68 H68        15.4370  -27.7108  -43.5991 H         1 UNK         0.0849 
     69 H69        14.7359  -29.8327  -44.8827 H         1 UNK         0.0865 
     70 H70        15.0549  -30.1067  -46.5770 H         1 UNK         0.0865 
     71 H71        16.3872  -30.5382  -43.2986 H         1 UNK         0.1346 
     72 H72        20.3975  -31.3961  -44.5405 H         1 UNK         0.1412 
     73 H73        17.5769  -29.8119  -47.3567 H         1 UNK         0.1426 
     74 H74        19.8512  -31.0263  -48.0360 H         1 UNK         0.0716 
     75 H75        21.0843  -31.0804  -46.7993 H         1 UNK         0.0716 
     76 H76        20.4479  -28.5555  -45.1105 H         1 UNK         0.0695 
     77 H77        22.1169  -28.5689  -45.6185 H         1 UNK         0.0695 
     78 H78        21.8970  -26.2547  -46.4952 H         1 UNK         0.0983 
     79 H79        19.0439  -26.6440  -46.1036 H         1 UNK         0.3095 
     80 H80        18.1713  -23.2588  -46.6974 H         1 UNK         0.0454 
     81 H81        18.7039  -24.0041  -49.0202 H         1 UNK         0.0851 
     82 H82        17.9961  -25.5795  -48.6939 H         1 UNK         0.0851 
     83 H83        16.9851  -24.1334  -48.6912 H         1 UNK         0.0851 
     84 H84        16.6138  -25.6618  -46.6362 H         1 UNK         0.2976 
     85 H85        23.4891  -26.1577  -44.8710 H         1 UNK         0.3116 
     86 H86        22.7272  -25.0447  -42.2655 H         1 UNK         0.0646 
     87 H87        25.1969  -24.9167  -41.9430 H         1 UNK         0.0847 
     88 H88        24.7329  -24.1690  -43.4629 H         1 UNK         0.0847 
     89 H89        25.4640  -25.7749  -43.4525 H         1 UNK         0.0847 
     90 H90        22.8379  -26.1327  -40.3190 H         1 UNK         0.3040 
     91 H91        22.8857  -29.0500  -40.3284 H         1 UNK         0.1015 
     92 H92        21.2821  -27.8096  -38.8799 H         1 UNK         0.0786 
     93 H93        22.6188  -27.0339  -38.0273 H         1 UNK         0.0786 
     94 H94        22.3792  -28.7718  -37.9025 H         1 UNK         0.0786 
     95 H95        24.4796  -30.3555  -39.4971 H         1 UNK         0.3172 
     96 H96        26.7507  -29.5447  -37.9926 H         1 UNK         0.0595 
     97 H97        27.6001  -28.5042  -40.0770 H         1 UNK         0.0839 
     98 H98        27.2522  -29.9503  -41.0091 H         1 UNK         0.0839 
     99 H99        28.5174  -29.9586  -39.7750 H         1 UNK         0.0839 
    100 H100       27.6597  -31.8898  -40.2570 H         1 UNK         0.2998 
    101 H101       26.8413  -34.2090  -38.6873 H         1 UNK         0.0822 
    102 H102       28.9341  -34.2538  -40.0396 H         1 UNK         0.0787 
    103 H103       27.8108  -35.4798  -40.6033 H         1 UNK         0.0787 
    104 H104       28.0106  -33.9931  -41.5200 H         1 UNK         0.0787 
    105 H105       25.6472  -32.3805  -41.4603 H         1 UNK         0.3055 
    106 H106       23.3362  -34.0825  -42.0069 H         1 UNK         0.1106 
    107 H107       23.9845  -31.1828  -42.8156 H         1 UNK         0.0828 
    108 H108       24.3213  -32.6143  -43.7918 H         1 UNK         0.0828 
    109 H109       22.6630  -32.1500  -43.4489 H         1 UNK         0.0828 
    110 H110       21.2302  -33.6500  -41.3468 H         1 UNK         0.2931 
    111 H111       19.5250  -33.0365  -40.1240 H         1 UNK         0.0412 
    112 H112       21.5826  -34.1814  -37.0395 H         1 UNK         0.3472 
    113 H113       22.1113  -34.2440  -38.7023 H         1 UNK         0.3472 
    114 H114       20.8429  -30.3934  -39.3678 H         1 UNK         0.0970 
    115 H115       19.1464  -30.7650  -39.3342 H         1 UNK         0.0970 
    116 H116       17.8769  -31.6079  -41.7614 H         1 UNK         0.0612 
    117 H117       19.2580  -32.4606  -42.4212 H         1 UNK         0.0612 
@<TRIPOS>BOND
     1    1    2 1    
     2    1   62 1    
     3    1   63 1    
     4    1   64 1    
     5    2    3 2    
     6    2    4 am   BACKBONE|DICT|INTERRES
     7    4    5 1    
     8    4   65 1    
     9    5    6 1    
    10    5   25 1    
    11    5   66 1    
    12    6    7 1    
    13    6   67 1    
    14    6   68 1    
    15    7    8 1    
    16    8    9 1    
    17    8   69 1    
    18    8   70 1    
    19    9   10 ar   
    20    9   14 ar   
    21   10   11 ar   
    22   10   71 1    
    23   11   12 ar   
    24   11   61 1    
    25   12   13 ar   
    26   12   72 1    
    27   13   14 ar   
    28   13   15 1    
    29   14   73 1    
    30   15   16 1    
    31   15   74 1    
    32   15   75 1    
    33   16   17 1    
    34   17   18 1    
    35   17   76 1    
    36   17   77 1    
    37   18   19 1    
    38   18   27 1    
    39   18   78 1    
    40   19   20 am   BACKBONE|DICT|INTERRES
    41   19   79 1    
    42   20   21 2    
    43   20   22 1    
    44   22   23 1    
    45   22   24 1    
    46   22   80 1    
    47   23   81 1    
    48   23   82 1    
    49   23   83 1    
    50   24   25 am   BACKBONE|DICT|INTERRES
    51   24   84 1    
    52   25   26 2    
    53   27   28 2    
    54   27   29 am   BACKBONE|DICT|INTERRES
    55   29   30 1    
    56   29   85 1    
    57   30   31 1    
    58   30   32 1    
    59   30   86 1    
    60   31   87 1    
    61   31   88 1    
    62   31   89 1    
    63   32   33 2    
    64   32   34 am   BACKBONE|DICT|INTERRES
    65   34   35 1    
    66   34   90 1    
    67   35   36 1    
    68   35   37 1    
    69   35   91 1    
    70   36   92 1    
    71   36   93 1    
    72   36   94 1    
    73   37   38 2    
    74   37   39 am   BACKBONE|DICT|INTERRES
    75   39   40 1    
    76   39   95 1    
    77   40   41 1    
    78   40   42 1    
    79   40   96 1    
    80   41   97 1    
    81   41   98 1    
    82   41   99 1    
    83   42   43 2    
    84   42   44 am   BACKBONE|DICT|INTERRES
    85   44   45 1    
    86   44  100 1    
    87   45   46 1    
    88   45   47 1    
    89   45  101 1    
    90   46  102 1    
    91   46  103 1    
    92   46  104 1    
    93   47   48 2    
    94   47   49 am   BACKBONE|DICT|INTERRES
    95   49   50 1    
    96   49  105 1    
    97   50   51 1    
    98   50   52 1    
    99   50  106 1    
   100   51  107 1    
   101   51  108 1    
   102   51  109 1    
   103   52   53 2    
   104   52   54 am   BACKBONE|DICT|INTERRES
   105   54   55 1    
   106   54  110 1    
   107   55   56 1    
   108   55   59 1    
   109   55  111 1    
   110   56   57 am   BACKBONE|DICT|INTERRES
   111   56   58 2    
   112   57  112 1    
   113   57  113 1    
   114   59   60 1    
   115   59  114 1    
   116   59  115 1    
   117   60   61 1    
   118   61  116 1    
   119   61  117 1    
@<TRIPOS>SUBSTRUCTURE
     1 UNK         1 GROUP             0       ****    0 ROOT    
