@<TRIPOS>MOLECULE
3R8
117   119    1
SMALL
USER_CHARGES


@<TRIPOS>ATOM
      1 CA         20.6607  -28.2040  -41.0199 C.3       0 UNK        -0.2013 
      2 C          19.4249  -27.3705  -41.3130 C.2       0 UNK         0.4866 
      3 O          19.0118  -26.5788  -40.4648 O.2       0 UNK        -0.5176 
      4 N          18.8319  -27.5502  -42.5002 N.am      1 UNK        -0.4884 
      5 CA         17.6562  -26.8082  -42.9709 C.3       1 UNK         0.0853 
      6 C6         16.6461  -27.7048  -43.7462 C.3       10 UNK        -0.0849 
      7 S7         16.1605  -29.2145  -42.8334 S.3       10 UNK        -0.2776 
      8 C8         16.7823  -30.5516  -43.9104 C.3       10 UNK         0.0316 
      9 C9         18.3024  -30.5625  -43.9810 C.ar      10 UNK        -0.0863 
     10 C10        19.0523  -31.1942  -42.9835 C.ar      10 UNK        -0.1009 
     11 C11        20.4497  -31.1575  -43.0204 C.ar      10 UNK        -0.0712 
     12 C12        21.0948  -30.4832  -44.0606 C.ar      10 UNK        -0.0894 
     13 C13        20.3540  -29.8489  -45.0603 C.ar      10 UNK        -0.0745 
     14 C14        18.9601  -29.9136  -45.0300 C.ar      10 UNK        -0.0972 
     15 C15        21.0556  -29.0332  -46.1312 C.3       10 UNK         0.0209 
     16 S16        21.6192  -27.4645  -45.4116 S.3       10 UNK        -0.2568 
     17 C17        21.8582  -26.4021  -46.8784 C.3       10 UNK        -0.0983 
     18 CA         21.3287  -24.9604  -46.6609 C.3       3 UNK         0.0876 
     19 N          19.9014  -24.9596  -46.3235 N.am      3 UNK        -0.4424 
     20 C          19.1125  -23.8786  -46.2852 C.2       2 UNK         0.4918 
     21 O          19.4713  -22.7601  -46.6541 O.2       2 UNK        -0.4875 
     22 CA         17.6857  -24.0609  -45.7271 C.3       2 UNK         0.0481 
     23 CB         16.6643  -24.0666  -46.8760 C.3       2 UNK        -0.1831 
     24 N          17.4697  -25.2523  -44.8909 N.am      2 UNK        -0.4498 
     25 C          18.1196  -25.5553  -43.7547 C.2       1 UNK         0.5027 
     26 O          19.0615  -24.8827  -43.3280 O.2       1 UNK        -0.4969 
     27 C          22.1968  -24.2082  -45.6236 C.2       3 UNK         0.5005 
     28 O          23.2539  -23.6933  -45.9924 O.2       3 UNK        -0.5279 
     29 N          21.7471  -24.1809  -44.3560 N.am      4 UNK        -0.4463 
     30 CA         22.4319  -23.6400  -43.1766 C.3       4 UNK         0.0283 
     31 CB         22.5258  -22.1018  -43.2587 C.3       4 UNK        -0.1875 
     32 C          23.7927  -24.3144  -42.8976 C.2       4 UNK         0.4949 
     33 O          24.7362  -23.6409  -42.4792 O.2       4 UNK        -0.5039 
     34 N          23.8735  -25.6301  -43.1310 N.am      5 UNK        -0.4663 
     35 CA         25.0636  -26.4529  -42.9259 C.3       5 UNK         0.0242 
     36 CB         25.7957  -26.6212  -44.2675 C.3       5 UNK        -0.1982 
     37 C          24.6487  -27.8149  -42.3580 C.2       5 UNK         0.5017 
     38 O          23.5474  -28.2805  -42.6531 O.2       5 UNK        -0.5012 
     39 N          25.5502  -28.4324  -41.5799 N.am      6 UNK        -0.4439 
     40 CA         25.3778  -29.7062  -40.8651 C.3       6 UNK         0.0297 
     41 CB         25.1982  -30.8746  -41.8621 C.3       6 UNK        -0.2006 
     42 C          24.2748  -29.6429  -39.7841 C.2       6 UNK         0.4892 
     43 O          23.8758  -28.5502  -39.3737 O.2       6 UNK        -0.5089 
     44 N          23.8314  -30.8103  -39.3052 N.am      7 UNK        -0.4243 
     45 CA         22.7797  -30.9726  -38.3058 C.3       7 UNK         0.0196 
     46 CB         23.3325  -30.7003  -36.8939 C.3       7 UNK        -0.2007 
     47 C          22.2273  -32.3973  -38.4063 C.2       7 UNK         0.5020 
     48 O          22.9632  -33.3052  -38.8015 O.2       7 UNK        -0.5147 
     49 N          20.9534  -32.5611  -38.0244 N.am      8 UNK        -0.4734 
     50 CA         20.1545  -33.7950  -38.0240 C.3       8 UNK         0.0238 
     51 CB         20.7329  -34.8500  -37.0566 C.3       8 UNK        -0.1912 
     52 C          19.9087  -34.3625  -39.4333 C.2       8 UNK         0.5038 
     53 O          18.7939  -34.2398  -39.9411 O.2       8 UNK        -0.5046 
     54 N          20.9491  -34.9550  -40.0327 N.am      9 UNK        -0.4200 
     55 CA         20.9655  -35.5605  -41.3771 C.3       9 UNK         0.0839 
     56 C          20.0137  -36.7835  -41.5574 C.2       9 UNK         0.5513 
     57 N          19.6088  -37.4631  -40.4910 N.am      9 UNK        -0.7519 
     58 O          19.6609  -37.1465  -42.6768 O.2       9 UNK        -0.4960 
     59 C59        20.8247  -34.5066  -42.5131 C.3       10 UNK        -0.0876 
     60 S60        22.1629  -33.2657  -42.4676 S.3       10 UNK        -0.2414 
     61 C61        21.2708  -31.7843  -41.9064 C.3       10 UNK         0.0169 
     62 H62        20.4169  -29.0217  -40.3431 H         1 UNK         0.0903 
     63 H63        21.0784  -28.6241  -41.9323 H         1 UNK         0.0903 
     64 H64        21.4340  -27.5917  -40.5561 H         1 UNK         0.0903 
     65 H65        19.2113  -28.2291  -43.1472 H         1 UNK         0.3096 
     66 H66        17.1182  -26.4205  -42.1030 H         1 UNK         0.1121 
     67 H67        15.7257  -27.1495  -43.9360 H         1 UNK         0.0849 
     68 H68        17.0336  -27.9791  -44.7260 H         1 UNK         0.0849 
     69 H69        16.4277  -31.5088  -43.5251 H         1 UNK         0.0865 
     70 H70        16.3502  -30.4493  -44.9072 H         1 UNK         0.0865 
     71 H71        18.5471  -31.6916  -42.1663 H         1 UNK         0.1346 
     72 H72        22.1748  -30.4174  -44.0694 H         1 UNK         0.1412 
     73 H73        18.3880  -29.4261  -45.8071 H         1 UNK         0.1426 
     74 H74        20.3821  -28.8431  -46.9681 H         1 UNK         0.0716 
     75 H75        21.9097  -29.5829  -46.5290 H         1 UNK         0.0716 
     76 H76        21.3531  -26.8464  -47.7370 H         1 UNK         0.0695 
     77 H77        22.9199  -26.3925  -47.1330 H         1 UNK         0.0695 
     78 H78        21.4375  -24.4206  -47.6042 H         1 UNK         0.0983 
     79 H79        19.5268  -25.8394  -46.0022 H         1 UNK         0.3095 
     80 H80        17.4814  -23.1912  -45.0995 H         1 UNK         0.0454 
     81 H81        16.7905  -24.9345  -47.5243 H         1 UNK         0.0851 
     82 H82        16.7706  -23.1775  -47.4994 H         1 UNK         0.0851 
     83 H83        15.6409  -24.0717  -46.5004 H         1 UNK         0.0851 
     84 H84        16.7146  -25.8561  -45.1813 H         1 UNK         0.2976 
     85 H85        20.8467  -24.6112  -44.1624 H         1 UNK         0.3116 
     86 H86        21.7956  -23.8842  -42.3247 H         1 UNK         0.0646 
     87 H87        23.1950  -21.7791  -44.0569 H         1 UNK         0.0847 
     88 H88        22.9065  -21.6825  -42.3269 H         1 UNK         0.0847 
     89 H89        21.5485  -21.6542  -43.4385 H         1 UNK         0.0847 
     90 H90        23.0521  -26.1411  -43.4324 H         1 UNK         0.3040 
     91 H91        25.7291  -25.9708  -42.2071 H         1 UNK         0.1015 
     92 H92        25.1611  -27.1052  -45.0107 H         1 UNK         0.0786 
     93 H93        26.6920  -27.2319  -44.1534 H         1 UNK         0.0786 
     94 H94        26.1065  -25.6577  -44.6715 H         1 UNK         0.0786 
     95 H95        26.4173  -27.9501  -41.3889 H         1 UNK         0.3172 
     96 H96        26.3122  -29.8743  -40.3282 H         1 UNK         0.0595 
     97 H97        24.2398  -30.8268  -42.3785 H         1 UNK         0.0839 
     98 H98        25.2543  -31.8438  -41.3662 H         1 UNK         0.0839 
     99 H99        25.9799  -30.8655  -42.6215 H         1 UNK         0.0839 
    100 H100       24.1818  -31.6835  -39.6803 H         1 UNK         0.2998 
    101 H101       21.9738  -30.2691  -38.5265 H         1 UNK         0.0822 
    102 H102       23.6950  -29.6769  -36.7966 H         1 UNK         0.0787 
    103 H103       22.5609  -30.8412  -36.1361 H         1 UNK         0.0787 
    104 H104       24.1568  -31.3718  -36.6502 H         1 UNK         0.0787 
    105 H105       20.4499  -31.7374  -37.7232 H         1 UNK         0.3055 
    106 H106       19.1734  -33.5151  -37.6358 H         1 UNK         0.1106 
    107 H107       20.1062  -35.7424  -37.0343 H         1 UNK         0.0828 
    108 H108       21.7384  -35.1673  -37.3326 H         1 UNK         0.0828 
    109 H109       20.7778  -34.4642  -36.0382 H         1 UNK         0.0828 
    110 H110       21.8439  -34.9035  -39.5602 H         1 UNK         0.2931 
    111 H111       21.9625  -35.9917  -41.4739 H         1 UNK         0.0412 
    112 H112       19.0025  -38.2593  -40.6128 H         1 UNK         0.3472 
    113 H113       19.9039  -37.1884  -39.5681 H         1 UNK         0.3472 
    114 H114       19.8496  -34.0197  -42.4712 H         1 UNK         0.0970 
    115 H115       20.8751  -34.9874  -43.4914 H         1 UNK         0.0970 
    116 H116       20.6421  -32.0321  -41.0515 H         1 UNK         0.0612 
    117 H117       21.9944  -31.0523  -41.5479 H         1 UNK         0.0612 
@<TRIPOS>BOND
     1    1    2 1    
     2    1   62 1    
     3    1   63 1    
     4    1   64 1    
     5    2    3 2    
     6    2    4 am   BACKBONE|DICT|INTERRES
     7    4    5 1    
     8    4   65 1    
     9    5    6 1    
    10    5   25 1    
    11    5   66 1    
    12    6    7 1    
    13    6   67 1    
    14    6   68 1    
    15    7    8 1    
    16    8    9 1    
    17    8   69 1    
    18    8   70 1    
    19    9   10 ar   
    20    9   14 ar   
    21   10   11 ar   
    22   10   71 1    
    23   11   12 ar   
    24   11   61 1    
    25   12   13 ar   
    26   12   72 1    
    27   13   14 ar   
    28   13   15 1    
    29   14   73 1    
    30   15   16 1    
    31   15   74 1    
    32   15   75 1    
    33   16   17 1    
    34   17   18 1    
    35   17   76 1    
    36   17   77 1    
    37   18   19 1    
    38   18   27 1    
    39   18   78 1    
    40   19   20 am   BACKBONE|DICT|INTERRES
    41   19   79 1    
    42   20   21 2    
    43   20   22 1    
    44   22   23 1    
    45   22   24 1    
    46   22   80 1    
    47   23   81 1    
    48   23   82 1    
    49   23   83 1    
    50   24   25 am   BACKBONE|DICT|INTERRES
    51   24   84 1    
    52   25   26 2    
    53   27   28 2    
    54   27   29 am   BACKBONE|DICT|INTERRES
    55   29   30 1    
    56   29   85 1    
    57   30   31 1    
    58   30   32 1    
    59   30   86 1    
    60   31   87 1    
    61   31   88 1    
    62   31   89 1    
    63   32   33 2    
    64   32   34 am   BACKBONE|DICT|INTERRES
    65   34   35 1    
    66   34   90 1    
    67   35   36 1    
    68   35   37 1    
    69   35   91 1    
    70   36   92 1    
    71   36   93 1    
    72   36   94 1    
    73   37   38 2    
    74   37   39 am   BACKBONE|DICT|INTERRES
    75   39   40 1    
    76   39   95 1    
    77   40   41 1    
    78   40   42 1    
    79   40   96 1    
    80   41   97 1    
    81   41   98 1    
    82   41   99 1    
    83   42   43 2    
    84   42   44 am   BACKBONE|DICT|INTERRES
    85   44   45 1    
    86   44  100 1    
    87   45   46 1    
    88   45   47 1    
    89   45  101 1    
    90   46  102 1    
    91   46  103 1    
    92   46  104 1    
    93   47   48 2    
    94   47   49 am   BACKBONE|DICT|INTERRES
    95   49   50 1    
    96   49  105 1    
    97   50   51 1    
    98   50   52 1    
    99   50  106 1    
   100   51  107 1    
   101   51  108 1    
   102   51  109 1    
   103   52   53 2    
   104   52   54 am   BACKBONE|DICT|INTERRES
   105   54   55 1    
   106   54  110 1    
   107   55   56 1    
   108   55   59 1    
   109   55  111 1    
   110   56   57 am   BACKBONE|DICT|INTERRES
   111   56   58 2    
   112   57  112 1    
   113   57  113 1    
   114   59   60 1    
   115   59  114 1    
   116   59  115 1    
   117   60   61 1    
   118   61  116 1    
   119   61  117 1    
@<TRIPOS>SUBSTRUCTURE
     1 UNK         1 GROUP             0       ****    0 ROOT    
