@<TRIPOS>MOLECULE
3R8
117   119    1
SMALL
USER_CHARGES


@<TRIPOS>ATOM
      1 CA         14.0054  -28.1053  -47.9761 C.3       0 UNK        -0.2013 
      2 C          15.0369  -28.2558  -46.8686 C.2       0 UNK         0.4866 
      3 O          15.6085  -29.3342  -46.7061 O.2       0 UNK        -0.5176 
      4 N          15.2863  -27.1822  -46.1083 N.am      1 UNK        -0.4884 
      5 CA         16.2396  -27.1261  -44.9930 C.3       1 UNK         0.0853 
      6 C6         15.8679  -26.0079  -43.9830 C.3       10 UNK        -0.0849 
      7 S7         14.3227  -26.4096  -43.0953 S.3       10 UNK        -0.2776 
      8 C8         14.8973  -26.6573  -41.3766 C.3       10 UNK         0.0316 
      9 C9         16.0869  -27.6065  -41.2562 C.ar      10 UNK        -0.0863 
     10 C10        16.0503  -28.8775  -41.8379 C.ar      10 UNK        -0.1009 
     11 C11        17.1611  -29.7213  -41.7663 C.ar      10 UNK        -0.0712 
     12 C12        18.2959  -29.3113  -41.0603 C.ar      10 UNK        -0.0894 
     13 C13        18.3446  -28.0484  -40.4627 C.ar      10 UNK        -0.0745 
     14 C14        17.2356  -27.2020  -40.5670 C.ar      10 UNK        -0.0972 
     15 C15        19.5876  -27.5816  -39.7065 C.3       10 UNK         0.0209 
     16 S16        21.1606  -27.8614  -40.5956 S.3       10 UNK        -0.2568 
     17 C17        20.8788  -27.0048  -42.1796 C.3       10 UNK        -0.0983 
     18 CA         21.4382  -27.8205  -43.3779 C.3       3 UNK         0.0876 
     19 N          20.5502  -27.7231  -44.5335 N.am      3 UNK        -0.4424 
     20 C          20.5502  -28.5426  -45.5891 C.2       2 UNK         0.4918 
     21 O          21.2970  -29.5171  -45.6921 O.2       2 UNK        -0.4875 
     22 CA         19.5290  -28.2220  -46.7029 C.3       2 UNK         0.0481 
     23 CB         19.5043  -29.2984  -47.8036 C.3       2 UNK        -0.1831 
     24 N          18.1677  -28.0550  -46.1852 N.am      2 UNK        -0.4498 
     25 C          17.6885  -27.0039  -45.5083 C.2       1 UNK         0.5027 
     26 O          18.3485  -25.9866  -45.2845 O.2       1 UNK        -0.4969 
     27 C          22.8543  -27.3428  -43.7518 C.2       3 UNK         0.5005 
     28 O          22.9876  -26.3933  -44.5294 O.2       3 UNK        -0.5279 
     29 N          23.8806  -27.9539  -43.1471 N.am      4 UNK        -0.4463 
     30 CA         25.2750  -27.5088  -43.2520 C.3       4 UNK         0.0283 
     31 CB         26.1915  -28.7420  -43.3010 C.3       4 UNK        -0.1875 
     32 C          25.6734  -26.5773  -42.0900 C.2       4 UNK         0.4949 
     33 O          26.8428  -26.2036  -42.0020 O.2       4 UNK        -0.5039 
     34 N          24.7151  -26.2509  -41.2055 N.am      5 UNK        -0.4663 
     35 CA         24.8638  -25.4809  -39.9602 C.3       5 UNK         0.0242 
     36 CB         25.3242  -24.0350  -40.2442 C.3       5 UNK        -0.1982 
     37 C          25.7371  -26.1961  -38.9078 C.2       5 UNK         0.5017 
     38 O          26.3349  -25.5421  -38.0517 O.2       5 UNK        -0.5012 
     39 N          25.7730  -27.5306  -38.9859 N.am      6 UNK        -0.4439 
     40 CA         26.4767  -28.4421  -38.0905 C.3       6 UNK         0.0297 
     41 CB         28.0028  -28.3858  -38.3071 C.3       6 UNK        -0.2006 
     42 C          25.9055  -29.8409  -38.3299 C.2       6 UNK         0.4892 
     43 O          25.2640  -30.3975  -37.4387 O.2       6 UNK        -0.5089 
     44 N          26.0934  -30.3486  -39.5557 N.am      7 UNK        -0.4243 
     45 CA         25.4087  -31.5347  -40.0661 C.3       7 UNK         0.0196 
     46 CB         26.2691  -32.2004  -41.1528 C.3       7 UNK        -0.2007 
     47 C          24.0305  -31.1453  -40.6237 C.2       7 UNK         0.5020 
     48 O          23.8679  -30.0424  -41.1563 O.2       7 UNK        -0.5147 
     49 N          23.0742  -32.0696  -40.5006 N.am      8 UNK        -0.4734 
     50 CA         21.7086  -31.9318  -41.0062 C.3       8 UNK         0.0238 
     51 CB         20.7697  -32.7395  -40.0889 C.3       8 UNK        -0.1912 
     52 C          21.5946  -32.3834  -42.4754 C.2       8 UNK         0.5038 
     53 O          22.5919  -32.7694  -43.0903 O.2       8 UNK        -0.5046 
     54 N          20.3633  -32.3241  -42.9956 N.am      9 UNK        -0.4200 
     55 CA         19.9467  -32.7283  -44.3470 C.3       9 UNK         0.0839 
     56 C          20.3544  -34.1815  -44.7142 C.2       9 UNK         0.5513 
     57 N          20.8125  -34.4086  -45.9375 N.am      9 UNK        -0.7519 
     58 O          20.2077  -35.1063  -43.9176 O.2       9 UNK        -0.4960 
     59 C59        18.4147  -32.5514  -44.5280 C.3       10 UNK        -0.0876 
     60 S60        17.8530  -30.8567  -44.1589 S.3       10 UNK        -0.2414 
     61 C61        17.1565  -31.0559  -42.4895 C.3       10 UNK         0.0169 
     62 H62        13.1928  -28.8164  -47.8298 H         1 UNK         0.0903 
     63 H63        13.5781  -27.1031  -48.0031 H         1 UNK         0.0903 
     64 H64        14.4634  -28.3056  -48.9444 H         1 UNK         0.0903 
     65 H65        14.7930  -26.3208  -46.2968 H         1 UNK         0.3096 
     66 H66        16.1973  -28.0786  -44.4611 H         1 UNK         0.1121 
     67 H67        16.6665  -25.8541  -43.2551 H         1 UNK         0.0849 
     68 H68        15.7450  -25.0510  -44.4932 H         1 UNK         0.0849 
     69 H69        15.1397  -25.6813  -40.9533 H         1 UNK         0.0865 
     70 H70        14.0716  -27.0503  -40.7821 H         1 UNK         0.0865 
     71 H71        15.1705  -29.1932  -42.3823 H         1 UNK         0.1346 
     72 H72        19.1545  -29.9630  -40.9978 H         1 UNK         0.1412 
     73 H73        17.2691  -26.2208  -40.1129 H         1 UNK         0.1426 
     74 H74        19.6304  -28.1047  -38.7505 H         1 UNK         0.0716 
     75 H75        19.5165  -26.5184  -39.4716 H         1 UNK         0.0716 
     76 H76        21.3006  -25.9989  -42.1222 H         1 UNK         0.0695 
     77 H77        19.8066  -26.8490  -42.3017 H         1 UNK         0.0695 
     78 H78        21.4898  -28.8791  -43.1102 H         1 UNK         0.0983 
     79 H79        19.9281  -26.9226  -44.5656 H         1 UNK         0.3095 
     80 H80        19.8401  -27.2819  -47.1625 H         1 UNK         0.0454 
     81 H81        19.2072  -30.2703  -47.4070 H         1 UNK         0.0851 
     82 H82        20.4883  -29.4174  -48.2590 H         1 UNK         0.0851 
     83 H83        18.8099  -29.0353  -48.6016 H         1 UNK         0.0851 
     84 H84        17.5318  -28.8354  -46.3232 H         1 UNK         0.2976 
     85 H85        23.7068  -28.7204  -42.4964 H         1 UNK         0.3116 
     86 H86        25.4216  -26.9508  -44.1791 H         1 UNK         0.0646 
     87 H87        26.1825  -29.2808  -42.3557 H         1 UNK         0.0847 
     88 H88        27.2247  -28.4546  -43.5006 H         1 UNK         0.0847 
     89 H89        25.8902  -29.4339  -44.0877 H         1 UNK         0.0847 
     90 H90        23.7907  -26.6221  -41.3767 H         1 UNK         0.3040 
     91 H91        23.8660  -25.4229  -39.5217 H         1 UNK         0.1015 
     92 H92        24.6909  -23.5563  -40.9910 H         1 UNK         0.0786 
     93 H93        26.3534  -23.9981  -40.6021 H         1 UNK         0.0786 
     94 H94        25.2750  -23.4251  -39.3412 H         1 UNK         0.0786 
     95 H95        25.2016  -27.9727  -39.6944 H         1 UNK         0.3172 
     96 H96        26.2564  -28.1598  -37.0588 H         1 UNK         0.0595 
     97 H97        28.2774  -28.5481  -39.3497 H         1 UNK         0.0839 
     98 H98        28.5100  -29.1453  -37.7105 H         1 UNK         0.0839 
     99 H99        28.4089  -27.4197  -38.0072 H         1 UNK         0.0839 
    100 H100       26.6248  -29.8138  -40.2259 H         1 UNK         0.2998 
    101 H101       25.2743  -32.2489  -39.2504 H         1 UNK         0.0822 
    102 H102       27.2543  -32.4678  -40.7702 H         1 UNK         0.0787 
    103 H103       25.8005  -33.1190  -41.5087 H         1 UNK         0.0787 
    104 H104       26.4091  -31.5563  -42.0204 H         1 UNK         0.0787 
    105 H105       23.3147  -32.9661  -40.1026 H         1 UNK         0.3055 
    106 H106       21.4207  -30.8794  -40.9602 H         1 UNK         0.1106 
    107 H107       19.7210  -32.5811  -40.3412 H         1 UNK         0.0828 
    108 H108       20.9631  -33.8110  -40.1569 H         1 UNK         0.0828 
    109 H109       20.8881  -32.4450  -39.0458 H         1 UNK         0.0828 
    110 H110       19.6134  -31.9940  -42.4112 H         1 UNK         0.2931 
    111 H111       20.4507  -32.0503  -45.0382 H         1 UNK         0.0412 
    112 H112       20.9271  -33.6557  -46.5986 H         1 UNK         0.3472 
    113 H113       21.0648  -35.3487  -46.2007 H         1 UNK         0.3472 
    114 H114       17.8622  -33.2625  -43.9103 H         1 UNK         0.0970 
    115 H115       18.1321  -32.7703  -45.5596 H         1 UNK         0.0970 
    116 H116       17.7307  -31.7862  -41.9187 H         1 UNK         0.0612 
    117 H117       16.1422  -31.4506  -42.5661 H         1 UNK         0.0612 
@<TRIPOS>BOND
     1    1    2 1    
     2    1   62 1    
     3    1   63 1    
     4    1   64 1    
     5    2    3 2    
     6    2    4 am   BACKBONE|DICT|INTERRES
     7    4    5 1    
     8    4   65 1    
     9    5    6 1    
    10    5   25 1    
    11    5   66 1    
    12    6    7 1    
    13    6   67 1    
    14    6   68 1    
    15    7    8 1    
    16    8    9 1    
    17    8   69 1    
    18    8   70 1    
    19    9   10 ar   
    20    9   14 ar   
    21   10   11 ar   
    22   10   71 1    
    23   11   12 ar   
    24   11   61 1    
    25   12   13 ar   
    26   12   72 1    
    27   13   14 ar   
    28   13   15 1    
    29   14   73 1    
    30   15   16 1    
    31   15   74 1    
    32   15   75 1    
    33   16   17 1    
    34   17   18 1    
    35   17   76 1    
    36   17   77 1    
    37   18   19 1    
    38   18   27 1    
    39   18   78 1    
    40   19   20 am   BACKBONE|DICT|INTERRES
    41   19   79 1    
    42   20   21 2    
    43   20   22 1    
    44   22   23 1    
    45   22   24 1    
    46   22   80 1    
    47   23   81 1    
    48   23   82 1    
    49   23   83 1    
    50   24   25 am   BACKBONE|DICT|INTERRES
    51   24   84 1    
    52   25   26 2    
    53   27   28 2    
    54   27   29 am   BACKBONE|DICT|INTERRES
    55   29   30 1    
    56   29   85 1    
    57   30   31 1    
    58   30   32 1    
    59   30   86 1    
    60   31   87 1    
    61   31   88 1    
    62   31   89 1    
    63   32   33 2    
    64   32   34 am   BACKBONE|DICT|INTERRES
    65   34   35 1    
    66   34   90 1    
    67   35   36 1    
    68   35   37 1    
    69   35   91 1    
    70   36   92 1    
    71   36   93 1    
    72   36   94 1    
    73   37   38 2    
    74   37   39 am   BACKBONE|DICT|INTERRES
    75   39   40 1    
    76   39   95 1    
    77   40   41 1    
    78   40   42 1    
    79   40   96 1    
    80   41   97 1    
    81   41   98 1    
    82   41   99 1    
    83   42   43 2    
    84   42   44 am   BACKBONE|DICT|INTERRES
    85   44   45 1    
    86   44  100 1    
    87   45   46 1    
    88   45   47 1    
    89   45  101 1    
    90   46  102 1    
    91   46  103 1    
    92   46  104 1    
    93   47   48 2    
    94   47   49 am   BACKBONE|DICT|INTERRES
    95   49   50 1    
    96   49  105 1    
    97   50   51 1    
    98   50   52 1    
    99   50  106 1    
   100   51  107 1    
   101   51  108 1    
   102   51  109 1    
   103   52   53 2    
   104   52   54 am   BACKBONE|DICT|INTERRES
   105   54   55 1    
   106   54  110 1    
   107   55   56 1    
   108   55   59 1    
   109   55  111 1    
   110   56   57 am   BACKBONE|DICT|INTERRES
   111   56   58 2    
   112   57  112 1    
   113   57  113 1    
   114   59   60 1    
   115   59  114 1    
   116   59  115 1    
   117   60   61 1    
   118   61  116 1    
   119   61  117 1    
@<TRIPOS>SUBSTRUCTURE
     1 UNK         1 GROUP             0       ****    0 ROOT    
