@<TRIPOS>MOLECULE
3R8
117   119    1
SMALL
USER_CHARGES


@<TRIPOS>ATOM
      1 CA         18.5458  -28.0017  -40.2902 C.3       0 UNK        -0.2013 
      2 C          18.5869  -26.7969  -41.2175 C.2       0 UNK         0.4866 
      3 O          19.1094  -25.7491  -40.8363 O.2       0 UNK        -0.5176 
      4 N          18.0359  -26.9378  -42.4299 N.am      1 UNK        -0.4884 
      5 CA         18.0763  -25.9171  -43.4846 C.3       1 UNK         0.0853 
      6 C6         16.8758  -26.0019  -44.4728 C.3       10 UNK        -0.0849 
      7 S7         15.2575  -26.2742  -43.6536 S.3       10 UNK        -0.2776 
      8 C8         14.6013  -27.7782  -44.4666 C.3       10 UNK         0.0316 
      9 C9         15.6588  -28.8588  -44.6493 C.ar      10 UNK        -0.0863 
     10 C10        16.2571  -29.4576  -43.5382 C.ar      10 UNK        -0.1009 
     11 C11        17.3239  -30.3466  -43.6998 C.ar      10 UNK        -0.0712 
     12 C12        17.7537  -30.6758  -44.9903 C.ar      10 UNK        -0.0894 
     13 C13        17.1436  -30.1022  -46.1119 C.ar      10 UNK        -0.0745 
     14 C14        16.0920  -29.2009  -45.9336 C.ar      10 UNK        -0.0972 
     15 C15        17.6290  -30.4248  -47.5195 C.3       10 UNK         0.0209 
     16 S16        18.7680  -29.1495  -48.1586 S.3       10 UNK        -0.2568 
     17 C17        20.2795  -29.5793  -47.2400 C.3       10 UNK        -0.0983 
     18 CA         21.3640  -28.4728  -47.1930 C.3       3 UNK         0.0876 
     19 N          20.8314  -27.1798  -46.7534 N.am      3 UNK        -0.4424 
     20 C          21.5359  -26.0464  -46.6346 C.2       2 UNK         0.4918 
     21 O          22.7009  -25.9300  -47.0161 O.2       2 UNK        -0.4875 
     22 CA         20.8562  -24.8319  -45.9639 C.3       2 UNK         0.0481 
     23 CB         20.5753  -23.7412  -47.0110 C.3       2 UNK        -0.1831 
     24 N          19.6228  -25.0764  -45.1986 N.am      2 UNK        -0.4498 
     25 C          19.4295  -25.9843  -44.2295 C.2       1 UNK         0.5027 
     26 O          20.2535  -26.8587  -43.9446 O.2       1 UNK        -0.4969 
     27 C          22.5057  -28.9793  -46.2850 C.2       3 UNK         0.5005 
     28 O          23.4933  -29.5133  -46.7933 O.2       3 UNK        -0.5279 
     29 N          22.3189  -28.8542  -44.9620 N.am      4 UNK        -0.4463 
     30 CA         23.1358  -29.5093  -43.9393 C.3       4 UNK         0.0283 
     31 CB         22.8620  -31.0304  -43.9448 C.3       4 UNK        -0.1875 
     32 C          22.8851  -28.8675  -42.5666 C.2       4 UNK         0.4949 
     33 O          22.6745  -29.5780  -41.5814 O.2       4 UNK        -0.5039 
     34 N          22.8957  -27.5282  -42.5264 N.am      5 UNK        -0.4663 
     35 CA         22.5929  -26.7256  -41.3371 C.3       5 UNK         0.0242 
     36 CB         22.5006  -25.2394  -41.7221 C.3       5 UNK        -0.1982 
     37 C          23.6031  -26.9292  -40.1993 C.2       5 UNK         0.5017 
     38 O          23.1989  -27.1696  -39.0619 O.2       5 UNK        -0.5012 
     39 N          24.8988  -26.8726  -40.5392 N.am      6 UNK        -0.4439 
     40 CA         26.0167  -27.0572  -39.6063 C.3       6 UNK         0.0297 
     41 CB         27.3273  -26.6448  -40.2956 C.3       6 UNK        -0.2006 
     42 C          26.1277  -28.4901  -39.0546 C.2       6 UNK         0.4892 
     43 O          26.6362  -28.6737  -37.9485 O.2       6 UNK        -0.5089 
     44 N          25.6415  -29.4697  -39.8275 N.am      7 UNK        -0.4243 
     45 CA         25.5768  -30.8820  -39.4512 C.3       7 UNK         0.0196 
     46 CB         25.7390  -31.7338  -40.7214 C.3       7 UNK        -0.2007 
     47 C          24.2700  -31.2465  -38.7233 C.2       7 UNK         0.5020 
     48 O          24.1284  -32.3985  -38.3130 O.2       7 UNK        -0.5147 
     49 N          23.3264  -30.2968  -38.6092 N.am      8 UNK        -0.4734 
     50 CA         21.9765  -30.4475  -38.0479 C.3       8 UNK         0.0238 
     51 CB         22.0452  -30.6197  -36.5159 C.3       8 UNK        -0.1912 
     52 C          21.1658  -31.5602  -38.7442 C.2       8 UNK         0.5038 
     53 O          20.5156  -32.3649  -38.0744 O.2       8 UNK        -0.5046 
     54 N          21.2494  -31.5943  -40.0809 N.am      9 UNK        -0.4200 
     55 CA         20.6975  -32.6334  -40.9659 C.3       9 UNK         0.0839 
     56 C          21.4610  -33.9926  -40.9455 C.2       9 UNK         0.5513 
     57 N          22.5754  -34.1319  -40.2367 N.am      9 UNK        -0.7519 
     58 O          21.0523  -34.9380  -41.6144 O.2       9 UNK        -0.4960 
     59 C59        19.1495  -32.7981  -40.8345 C.3       10 UNK        -0.0876 
     60 S60        18.2866  -32.6615  -42.4364 S.3       10 UNK        -0.2414 
     61 C61        18.0652  -30.8579  -42.4724 C.3       10 UNK         0.0169 
     62 H62        19.3482  -28.6967  -40.5374 H         1 UNK         0.0903 
     63 H63        18.6749  -27.6903  -39.2538 H         1 UNK         0.0903 
     64 H64        17.5909  -28.5204  -40.3643 H         1 UNK         0.0903 
     65 H65        17.6423  -27.8240  -42.7105 H         1 UNK         0.3096 
     66 H66        18.0310  -24.9371  -43.0039 H         1 UNK         0.1121 
     67 H67        17.0536  -26.7653  -45.2288 H         1 UNK         0.0849 
     68 H68        16.7919  -25.0690  -45.0325 H         1 UNK         0.0849 
     69 H69        13.7778  -28.1751  -43.8714 H         1 UNK         0.0865 
     70 H70        14.1714  -27.4940  -45.4284 H         1 UNK         0.0865 
     71 H71        15.9244  -29.1817  -42.5465 H         1 UNK         0.1346 
     72 H72        18.5820  -31.3592  -45.1177 H         1 UNK         0.1412 
     73 H73        15.6400  -28.7346  -46.7988 H         1 UNK         0.1426 
     74 H74        18.1172  -31.4003  -47.5448 H         1 UNK         0.0716 
     75 H75        16.7723  -30.4979  -48.1912 H         1 UNK         0.0716 
     76 H76        20.6880  -30.4893  -47.6846 H         1 UNK         0.0695 
     77 H77        19.9881  -29.8450  -46.2243 H         1 UNK         0.0695 
     78 H78        21.7691  -28.3361  -48.1978 H         1 UNK         0.0983 
     79 H79        19.8790  -27.1863  -46.4211 H         1 UNK         0.3095 
     80 H80        21.5823  -24.4330  -45.2529 H         1 UNK         0.0454 
     81 H81        20.2328  -22.8175  -46.5443 H         1 UNK         0.0851 
     82 H82        19.8174  -24.0584  -47.7283 H         1 UNK         0.0851 
     83 H83        21.4755  -23.4962  -47.5768 H         1 UNK         0.0851 
     84 H84        18.8769  -24.4194  -45.3769 H         1 UNK         0.2976 
     85 H85        21.5098  -28.3375  -44.6230 H         1 UNK         0.3116 
     86 H86        24.1903  -29.3452  -44.1695 H         1 UNK         0.0646 
     87 H87        23.1960  -31.4932  -44.8731 H         1 UNK         0.0847 
     88 H88        23.3834  -31.5409  -43.1359 H         1 UNK         0.0847 
     89 H89        21.7982  -31.2399  -43.8362 H         1 UNK         0.0847 
     90 H90        23.0490  -27.0239  -43.3878 H         1 UNK         0.3040 
     91 H91        21.6161  -27.0421  -40.9661 H         1 UNK         0.1015 
     92 H92        23.4329  -24.8667  -42.1476 H         1 UNK         0.0786 
     93 H93        22.2692  -24.6263  -40.8499 H         1 UNK         0.0786 
     94 H94        21.7079  -25.0672  -42.4492 H         1 UNK         0.0786 
     95 H95        25.1310  -26.6796  -41.5031 H         1 UNK         0.3172 
     96 H96        25.8552  -26.3915  -38.7557 H         1 UNK         0.0595 
     97 H97        27.5382  -27.2628  -41.1693 H         1 UNK         0.0839 
     98 H98        28.1739  -26.7454  -39.6147 H         1 UNK         0.0839 
     99 H99        27.2972  -25.6038  -40.6180 H         1 UNK         0.0839 
    100 H100       25.2222  -29.2185  -40.7110 H         1 UNK         0.2998 
    101 H101       26.4017  -31.1179  -38.7754 H         1 UNK         0.0822 
    102 H102       25.7437  -32.7985  -40.4836 H         1 UNK         0.0787 
    103 H103       24.9249  -31.5615  -41.4243 H         1 UNK         0.0787 
    104 H104       26.6771  -31.5135  -41.2311 H         1 UNK         0.0787 
    105 H105       23.5287  -29.3817  -38.9937 H         1 UNK         0.3055 
    106 H106       21.4501  -29.5138  -38.2541 H         1 UNK         0.1106 
    107 H107       22.5997  -29.8049  -36.0505 H         1 UNK         0.0828 
    108 H108       21.0466  -30.6228  -36.0772 H         1 UNK         0.0828 
    109 H109       22.5266  -31.5570  -36.2348 H         1 UNK         0.0828 
    110 H110       21.8218  -30.8912  -40.5443 H         1 UNK         0.2931 
    111 H111       20.9097  -32.2366  -41.9573 H         1 UNK         0.0412 
    112 H112       22.9262  -33.3869  -39.6465 H         1 UNK         0.3472 
    113 H113       23.0534  -35.0186  -40.2523 H         1 UNK         0.3472 
    114 H114       18.7280  -32.0517  -40.1600 H         1 UNK         0.0970 
    115 H115       18.8855  -33.7546  -40.3792 H         1 UNK         0.0970 
    116 H116       17.5346  -30.5661  -41.5657 H         1 UNK         0.0612 
    117 H117       19.0448  -30.3788  -42.4335 H         1 UNK         0.0612 
@<TRIPOS>BOND
     1    1    2 1    
     2    1   62 1    
     3    1   63 1    
     4    1   64 1    
     5    2    3 2    
     6    2    4 am   BACKBONE|DICT|INTERRES
     7    4    5 1    
     8    4   65 1    
     9    5    6 1    
    10    5   25 1    
    11    5   66 1    
    12    6    7 1    
    13    6   67 1    
    14    6   68 1    
    15    7    8 1    
    16    8    9 1    
    17    8   69 1    
    18    8   70 1    
    19    9   10 ar   
    20    9   14 ar   
    21   10   11 ar   
    22   10   71 1    
    23   11   12 ar   
    24   11   61 1    
    25   12   13 ar   
    26   12   72 1    
    27   13   14 ar   
    28   13   15 1    
    29   14   73 1    
    30   15   16 1    
    31   15   74 1    
    32   15   75 1    
    33   16   17 1    
    34   17   18 1    
    35   17   76 1    
    36   17   77 1    
    37   18   19 1    
    38   18   27 1    
    39   18   78 1    
    40   19   20 am   BACKBONE|DICT|INTERRES
    41   19   79 1    
    42   20   21 2    
    43   20   22 1    
    44   22   23 1    
    45   22   24 1    
    46   22   80 1    
    47   23   81 1    
    48   23   82 1    
    49   23   83 1    
    50   24   25 am   BACKBONE|DICT|INTERRES
    51   24   84 1    
    52   25   26 2    
    53   27   28 2    
    54   27   29 am   BACKBONE|DICT|INTERRES
    55   29   30 1    
    56   29   85 1    
    57   30   31 1    
    58   30   32 1    
    59   30   86 1    
    60   31   87 1    
    61   31   88 1    
    62   31   89 1    
    63   32   33 2    
    64   32   34 am   BACKBONE|DICT|INTERRES
    65   34   35 1    
    66   34   90 1    
    67   35   36 1    
    68   35   37 1    
    69   35   91 1    
    70   36   92 1    
    71   36   93 1    
    72   36   94 1    
    73   37   38 2    
    74   37   39 am   BACKBONE|DICT|INTERRES
    75   39   40 1    
    76   39   95 1    
    77   40   41 1    
    78   40   42 1    
    79   40   96 1    
    80   41   97 1    
    81   41   98 1    
    82   41   99 1    
    83   42   43 2    
    84   42   44 am   BACKBONE|DICT|INTERRES
    85   44   45 1    
    86   44  100 1    
    87   45   46 1    
    88   45   47 1    
    89   45  101 1    
    90   46  102 1    
    91   46  103 1    
    92   46  104 1    
    93   47   48 2    
    94   47   49 am   BACKBONE|DICT|INTERRES
    95   49   50 1    
    96   49  105 1    
    97   50   51 1    
    98   50   52 1    
    99   50  106 1    
   100   51  107 1    
   101   51  108 1    
   102   51  109 1    
   103   52   53 2    
   104   52   54 am   BACKBONE|DICT|INTERRES
   105   54   55 1    
   106   54  110 1    
   107   55   56 1    
   108   55   59 1    
   109   55  111 1    
   110   56   57 am   BACKBONE|DICT|INTERRES
   111   56   58 2    
   112   57  112 1    
   113   57  113 1    
   114   59   60 1    
   115   59  114 1    
   116   59  115 1    
   117   60   61 1    
   118   61  116 1    
   119   61  117 1    
@<TRIPOS>SUBSTRUCTURE
     1 UNK         1 GROUP             0       ****    0 ROOT    
