@<TRIPOS>MOLECULE
3R8
117   119    1
SMALL
USER_CHARGES


@<TRIPOS>ATOM
      1 CA         21.7345  -31.5953  -47.7978 C.3       0 UNK        -0.2013 
      2 C          20.9519  -30.2906  -47.7913 C.2       0 UNK         0.4866 
      3 O          21.2016  -29.4248  -48.6296 O.2       0 UNK        -0.5176 
      4 N          20.0119  -30.1485  -46.8474 N.am      1 UNK        -0.4884 
      5 CA         19.1764  -28.9619  -46.6235 C.3       1 UNK         0.0853 
      6 C6         18.2290  -28.6522  -47.8138 C.3       10 UNK        -0.0849 
      7 S7         16.7132  -27.7541  -47.3340 S.3       10 UNK        -0.2776 
      8 C8         15.6653  -29.0762  -46.6396 C.3       10 UNK         0.0316 
      9 C9         15.8494  -29.2172  -45.1332 C.ar      10 UNK        -0.0863 
     10 C10        16.4442  -30.3593  -44.5857 C.ar      10 UNK        -0.1009 
     11 C11        16.5985  -30.4900  -43.2009 C.ar      10 UNK        -0.0712 
     12 C12        16.1067  -29.4813  -42.3639 C.ar      10 UNK        -0.0894 
     13 C13        15.5520  -28.3149  -42.8972 C.ar      10 UNK        -0.0745 
     14 C14        15.4136  -28.1970  -44.2826 C.ar      10 UNK        -0.0972 
     15 C15        15.1158  -27.1703  -41.9874 C.3       10 UNK         0.0209 
     16 S16        16.3946  -26.6635  -40.7815 S.3       10 UNK        -0.2568 
     17 C17        17.8685  -26.3964  -41.8280 C.3       10 UNK        -0.0983 
     18 CA         18.9602  -27.4784  -41.5741 C.3       3 UNK         0.0876 
     19 N          19.8762  -27.6227  -42.7042 N.am      3 UNK        -0.4424 
     20 C          20.7795  -26.7194  -43.1157 C.2       2 UNK         0.4918 
     21 O          20.9531  -25.6273  -42.5739 O.2       2 UNK        -0.4875 
     22 CA         21.6269  -27.0929  -44.3445 C.3       2 UNK         0.0481 
     23 CB         22.9774  -27.6766  -43.9038 C.3       2 UNK        -0.1831 
     24 N          20.9317  -28.0647  -45.1888 N.am      2 UNK        -0.4498 
     25 C          19.9953  -27.7612  -46.0978 C.2       1 UNK         0.5027 
     26 O          19.7640  -26.6138  -46.4832 O.2       1 UNK        -0.4969 
     27 C          19.7549  -27.3320  -40.2577 C.2       3 UNK         0.5005 
     28 O          20.4501  -28.2721  -39.8696 O.2       3 UNK        -0.5279 
     29 N          19.6635  -26.1651  -39.6068 N.am      4 UNK        -0.4463 
     30 CA         20.3890  -25.8296  -38.3813 C.3       4 UNK         0.0283 
     31 CB         19.7715  -24.5645  -37.7641 C.3       4 UNK        -0.1875 
     32 C          21.9044  -25.6409  -38.5816 C.2       4 UNK         0.4949 
     33 O          22.6475  -25.7526  -37.6065 O.2       4 UNK        -0.5039 
     34 N          22.3560  -25.3682  -39.8153 N.am      5 UNK        -0.4663 
     35 CA         23.7571  -25.0884  -40.1571 C.3       5 UNK         0.0242 
     36 CB         23.8007  -24.1991  -41.4145 C.3       5 UNK        -0.1982 
     37 C          24.6270  -26.3576  -40.2948 C.2       5 UNK         0.5017 
     38 O          25.4384  -26.4418  -41.2186 O.2       5 UNK        -0.5012 
     39 N          24.4599  -27.3057  -39.3611 N.am      6 UNK        -0.4439 
     40 CA         25.1764  -28.5797  -39.2336 C.3       6 UNK         0.0297 
     41 CB         26.6296  -28.3277  -38.7684 C.3       6 UNK        -0.2006 
     42 C          25.0544  -29.4546  -40.4997 C.2       6 UNK         0.4892 
     43 O          23.9379  -29.6482  -40.9837 O.2       6 UNK        -0.5089 
     44 N          26.1861  -29.9933  -40.9838 N.am      7 UNK        -0.4243 
     45 CA         26.3550  -30.7817  -42.2151 C.3       7 UNK         0.0196 
     46 CB         26.2063  -29.8656  -43.4478 C.3       7 UNK        -0.2007 
     47 C          25.4480  -32.0262  -42.3030 C.2       7 UNK         0.5020 
     48 O          25.0132  -32.3895  -43.3968 O.2       7 UNK        -0.5147 
     49 N          25.1430  -32.6348  -41.1458 N.am      8 UNK        -0.4734 
     50 CA         24.1998  -33.7490  -40.9603 C.3       8 UNK         0.0238 
     51 CB         24.7770  -35.0524  -41.5537 C.3       8 UNK        -0.1912 
     52 C          22.7795  -33.4320  -41.4799 C.2       8 UNK         0.5038 
     53 O          22.1137  -34.3157  -42.0223 O.2       8 UNK        -0.5046 
     54 N          22.3584  -32.1694  -41.3160 N.am      9 UNK        -0.4200 
     55 CA         21.1250  -31.5695  -41.8469 C.3       9 UNK         0.0839 
     56 C          21.2148  -31.1481  -43.3428 C.2       9 UNK         0.5513 
     57 N          22.3175  -31.3744  -44.0476 N.am      9 UNK        -0.7519 
     58 O          20.2872  -30.5404  -43.8702 O.2       9 UNK        -0.4960 
     59 C59        19.8415  -32.3870  -41.5088 C.3       10 UNK        -0.0876 
     60 S60        18.3830  -31.3356  -41.2068 S.3       10 UNK        -0.2414 
     61 C61        17.3008  -31.7208  -42.6300 C.3       10 UNK         0.0169 
     62 H62        21.6185  -32.0959  -48.7587 H         1 UNK         0.0903 
     63 H63        21.3979  -32.2794  -47.0187 H         1 UNK         0.0903 
     64 H64        22.7952  -31.3985  -47.6434 H         1 UNK         0.0903 
     65 H65        19.8841  -30.8838  -46.1630 H         1 UNK         0.3096 
     66 H66        18.5522  -29.2371  -45.7761 H         1 UNK         0.1121 
     67 H67        17.9243  -29.5789  -48.3024 H         1 UNK         0.0849 
     68 H68        18.7510  -28.0780  -48.5814 H         1 UNK         0.0849 
     69 H69        14.6210  -28.8337  -46.8419 H         1 UNK         0.0865 
     70 H70        15.8581  -30.0200  -47.1519 H         1 UNK         0.0865 
     71 H71        16.7992  -31.1438  -45.2402 H         1 UNK         0.1346 
     72 H72        16.1995  -29.5775  -41.2911 H         1 UNK         0.1412 
     73 H73        14.9733  -27.3044  -44.7066 H         1 UNK         0.1426 
     74 H74        14.2198  -27.4731  -41.4443 H         1 UNK         0.0716 
     75 H75        14.8376  -26.2954  -42.5772 H         1 UNK         0.0716 
     76 H76        18.2464  -25.3833  -41.6843 H         1 UNK         0.0695 
     77 H77        17.5569  -26.4296  -42.8730 H         1 UNK         0.0695 
     78 H78        18.4617  -28.4428  -41.5007 H         1 UNK         0.0983 
     79 H79        19.8416  -28.5182  -43.1751 H         1 UNK         0.3095 
     80 H80        21.8168  -26.1837  -44.9184 H         1 UNK         0.0454 
     81 H81        22.8535  -28.5620  -43.2797 H         1 UNK         0.0851 
     82 H82        23.5458  -26.9520  -43.3203 H         1 UNK         0.0851 
     83 H83        23.5903  -27.9518  -44.7619 H         1 UNK         0.0851 
     84 H84        21.0107  -29.0391  -44.9184 H         1 UNK         0.2976 
     85 H85        19.0681  -25.4477  -39.9956 H         1 UNK         0.3116 
     86 H86        20.2549  -26.6521  -37.6754 H         1 UNK         0.0646 
     87 H87        19.8633  -23.7041  -38.4282 H         1 UNK         0.0847 
     88 H88        20.2666  -24.3058  -36.8270 H         1 UNK         0.0847 
     89 H89        18.7141  -24.7062  -37.5398 H         1 UNK         0.0847 
     90 H90        21.6964  -25.3568  -40.5860 H         1 UNK         0.3040 
     91 H91        24.1966  -24.5087  -39.3421 H         1 UNK         0.1015 
     92 H92        23.4382  -24.7263  -42.2966 H         1 UNK         0.0786 
     93 H93        24.8193  -23.8722  -41.6280 H         1 UNK         0.0786 
     94 H94        23.1956  -23.3013  -41.2884 H         1 UNK         0.0786 
     95 H95        23.7603  -27.1175  -38.6511 H         1 UNK         0.3172 
     96 H96        24.6693  -29.1311  -38.4407 H         1 UNK         0.0595 
     97 H97        27.2178  -27.8050  -39.5241 H         1 UNK         0.0839 
     98 H98        27.1412  -29.2604  -38.5275 H         1 UNK         0.0839 
     99 H99        26.6485  -27.7198  -37.8636 H         1 UNK         0.0839 
    100 H100       27.0407  -29.7879  -40.4851 H         1 UNK         0.2998 
    101 H101       27.3793  -31.1570  -42.2030 H         1 UNK         0.0822 
    102 H102       26.8528  -28.9910  -43.3753 H         1 UNK         0.0787 
    103 H103       26.4736  -30.3910  -44.3655 H         1 UNK         0.0787 
    104 H104       25.1808  -29.5148  -43.5600 H         1 UNK         0.0787 
    105 H105       25.5449  -32.2531  -40.3004 H         1 UNK         0.3055 
    106 H106       24.0968  -33.8949  -39.8836 H         1 UNK         0.1106 
    107 H107       24.8514  -35.0043  -42.6406 H         1 UNK         0.0828 
    108 H108       24.1455  -35.9076  -41.3096 H         1 UNK         0.0828 
    109 H109       25.7705  -35.2631  -41.1584 H         1 UNK         0.0828 
    110 H110       23.0117  -31.4920  -40.9365 H         1 UNK         0.2931 
    111 H111       21.0638  -30.6248  -41.3054 H         1 UNK         0.0412 
    112 H112       22.3699  -31.0840  -45.0074 H         1 UNK         0.3472 
    113 H113       23.1195  -31.8370  -43.6330 H         1 UNK         0.3472 
    114 H114       19.9943  -32.9515  -40.5879 H         1 UNK         0.0970 
    115 H115       19.6357  -33.1368  -42.2743 H         1 UNK         0.0970 
    116 H116       17.8934  -32.1939  -43.4141 H         1 UNK         0.0612 
    117 H117       16.5519  -32.4504  -42.3202 H         1 UNK         0.0612 
@<TRIPOS>BOND
     1    1    2 1    
     2    1   62 1    
     3    1   63 1    
     4    1   64 1    
     5    2    3 2    
     6    2    4 am   BACKBONE|DICT|INTERRES
     7    4    5 1    
     8    4   65 1    
     9    5    6 1    
    10    5   25 1    
    11    5   66 1    
    12    6    7 1    
    13    6   67 1    
    14    6   68 1    
    15    7    8 1    
    16    8    9 1    
    17    8   69 1    
    18    8   70 1    
    19    9   10 ar   
    20    9   14 ar   
    21   10   11 ar   
    22   10   71 1    
    23   11   12 ar   
    24   11   61 1    
    25   12   13 ar   
    26   12   72 1    
    27   13   14 ar   
    28   13   15 1    
    29   14   73 1    
    30   15   16 1    
    31   15   74 1    
    32   15   75 1    
    33   16   17 1    
    34   17   18 1    
    35   17   76 1    
    36   17   77 1    
    37   18   19 1    
    38   18   27 1    
    39   18   78 1    
    40   19   20 am   BACKBONE|DICT|INTERRES
    41   19   79 1    
    42   20   21 2    
    43   20   22 1    
    44   22   23 1    
    45   22   24 1    
    46   22   80 1    
    47   23   81 1    
    48   23   82 1    
    49   23   83 1    
    50   24   25 am   BACKBONE|DICT|INTERRES
    51   24   84 1    
    52   25   26 2    
    53   27   28 2    
    54   27   29 am   BACKBONE|DICT|INTERRES
    55   29   30 1    
    56   29   85 1    
    57   30   31 1    
    58   30   32 1    
    59   30   86 1    
    60   31   87 1    
    61   31   88 1    
    62   31   89 1    
    63   32   33 2    
    64   32   34 am   BACKBONE|DICT|INTERRES
    65   34   35 1    
    66   34   90 1    
    67   35   36 1    
    68   35   37 1    
    69   35   91 1    
    70   36   92 1    
    71   36   93 1    
    72   36   94 1    
    73   37   38 2    
    74   37   39 am   BACKBONE|DICT|INTERRES
    75   39   40 1    
    76   39   95 1    
    77   40   41 1    
    78   40   42 1    
    79   40   96 1    
    80   41   97 1    
    81   41   98 1    
    82   41   99 1    
    83   42   43 2    
    84   42   44 am   BACKBONE|DICT|INTERRES
    85   44   45 1    
    86   44  100 1    
    87   45   46 1    
    88   45   47 1    
    89   45  101 1    
    90   46  102 1    
    91   46  103 1    
    92   46  104 1    
    93   47   48 2    
    94   47   49 am   BACKBONE|DICT|INTERRES
    95   49   50 1    
    96   49  105 1    
    97   50   51 1    
    98   50   52 1    
    99   50  106 1    
   100   51  107 1    
   101   51  108 1    
   102   51  109 1    
   103   52   53 2    
   104   52   54 am   BACKBONE|DICT|INTERRES
   105   54   55 1    
   106   54  110 1    
   107   55   56 1    
   108   55   59 1    
   109   55  111 1    
   110   56   57 am   BACKBONE|DICT|INTERRES
   111   56   58 2    
   112   57  112 1    
   113   57  113 1    
   114   59   60 1    
   115   59  114 1    
   116   59  115 1    
   117   60   61 1    
   118   61  116 1    
   119   61  117 1    
@<TRIPOS>SUBSTRUCTURE
     1 UNK         1 GROUP             0       ****    0 ROOT    
