@<TRIPOS>MOLECULE
3R8
117   119    1
SMALL
USER_CHARGES


@<TRIPOS>ATOM
      1 CA         16.9156  -24.8857  -48.9826 C.3       0 UNK        -0.2013 
      2 C          18.1225  -25.4187  -48.2248 C.2       0 UNK         0.4866 
      3 O          19.2559  -25.0618  -48.5490 O.2       0 UNK        -0.5176 
      4 N          17.8899  -26.2773  -47.2248 N.am      1 UNK        -0.4884 
      5 CA         18.9248  -26.8524  -46.3599 C.3       1 UNK         0.0853 
      6 C6         18.3715  -28.0055  -45.4902 C.3       10 UNK        -0.0849 
      7 S7         17.8843  -29.4696  -46.4563 S.3       10 UNK        -0.2776 
      8 C8         16.4332  -30.0481  -45.5163 C.3       10 UNK         0.0316 
      9 C9         16.7421  -30.2630  -44.0386 C.ar      10 UNK        -0.0863 
     10 C10        17.5366  -31.3391  -43.6321 C.ar      10 UNK        -0.1009 
     11 C11        17.7995  -31.5605  -42.2739 C.ar      10 UNK        -0.0712 
     12 C12        17.2738  -30.6780  -41.3261 C.ar      10 UNK        -0.0894 
     13 C13        16.4966  -29.5852  -41.7198 C.ar      10 UNK        -0.0745 
     14 C14        16.2268  -29.3881  -43.0768 C.ar      10 UNK        -0.0972 
     15 C15        15.9280  -28.6338  -40.6756 C.3       10 UNK         0.0209 
     16 S16        17.2268  -27.7834  -39.7207 S.3       10 UNK        -0.2568 
     17 C17        17.9628  -26.6580  -40.9575 C.3       10 UNK        -0.0983 
     18 CA         19.4952  -26.8372  -41.1078 C.3       3 UNK         0.0876 
     19 N          19.9938  -26.1080  -42.2782 N.am      3 UNK        -0.4424 
     20 C          21.2608  -26.0776  -42.7166 C.2       2 UNK         0.4918 
     21 O          22.1898  -26.6857  -42.1835 O.2       2 UNK        -0.4875 
     22 CA         21.5035  -25.2759  -44.0098 C.3       2 UNK         0.0481 
     23 CB         22.9971  -25.1267  -44.3519 C.3       2 UNK        -0.1831 
     24 N          20.8236  -25.9413  -45.1214 N.am      2 UNK        -0.4498 
     25 C          19.5272  -25.7924  -45.4202 C.2       1 UNK         0.5027 
     26 O          18.7970  -24.9466  -44.8957 O.2       1 UNK        -0.4969 
     27 C          20.2513  -26.4070  -39.8326 C.2       3 UNK         0.5005 
     28 O          20.3597  -25.2058  -39.5719 O.2       3 UNK        -0.5279 
     29 N          20.7937  -27.3884  -39.0961 N.am      4 UNK        -0.4463 
     30 CA         21.6171  -27.2847  -37.8796 C.3       4 UNK         0.0283 
     31 CB         20.8526  -26.5873  -36.7375 C.3       4 UNK        -0.1875 
     32 C          23.0072  -26.6483  -38.0832 C.2       4 UNK         0.4949 
     33 O          23.9512  -27.0498  -37.4027 O.2       4 UNK        -0.5039 
     34 N          23.1217  -25.6870  -39.0073 N.am      5 UNK        -0.4663 
     35 CA         24.3622  -25.0118  -39.3929 C.3       5 UNK         0.0242 
     36 CB         24.0179  -23.7952  -40.2668 C.3       5 UNK        -0.1982 
     37 C          25.3609  -25.9325  -40.1158 C.2       5 UNK         0.5017 
     38 O          26.5677  -25.7185  -39.9924 O.2       5 UNK        -0.5012 
     39 N          24.8511  -26.9335  -40.8420 N.am      6 UNK        -0.4439 
     40 CA         25.6236  -27.9674  -41.5217 C.3       6 UNK         0.0297 
     41 CB         25.7490  -27.6070  -43.0117 C.3       6 UNK        -0.2006 
     42 C          24.9226  -29.3199  -41.3503 C.2       6 UNK         0.4892 
     43 O          23.7417  -29.3721  -40.9928 O.2       6 UNK        -0.5089 
     44 N          25.6581  -30.3976  -41.6490 N.am      7 UNK        -0.4243 
     45 CA         25.1622  -31.7744  -41.6771 C.3       7 UNK         0.0196 
     46 CB         26.3509  -32.7400  -41.5134 C.3       7 UNK        -0.2007 
     47 C          24.3599  -32.0374  -42.9652 C.2       7 UNK         0.5020 
     48 O          24.8218  -32.7585  -43.8505 O.2       7 UNK        -0.5147 
     49 N          23.1760  -31.4185  -43.0569 N.am      8 UNK        -0.4734 
     50 CA         22.2559  -31.5167  -44.1967 C.3       8 UNK         0.0238 
     51 CB         21.1957  -30.4075  -44.0792 C.3       8 UNK        -0.1912 
     52 C          21.5895  -32.8989  -44.3529 C.2       8 UNK         0.5038 
     53 O          21.0784  -33.1965  -45.4332 O.2       8 UNK        -0.5046 
     54 N          21.6087  -33.7040  -43.2849 N.am      9 UNK        -0.4200 
     55 CA         21.0970  -35.0771  -43.2184 C.3       9 UNK         0.0839 
     56 C          22.2492  -36.0282  -42.8127 C.2       9 UNK         0.5513 
     57 N          22.3055  -37.2194  -43.3914 N.am      9 UNK        -0.7519 
     58 O          23.0676  -35.7103  -41.9512 O.2       9 UNK        -0.4960 
     59 C59        19.9162  -35.1994  -42.2184 C.3       10 UNK        -0.0876 
     60 S60        18.4494  -34.2541  -42.7482 S.3       10 UNK        -0.2414 
     61 C61        18.6879  -32.7095  -41.8081 C.3       10 UNK         0.0169 
     62 H62        15.9806  -25.2967  -48.6022 H         1 UNK         0.0903 
     63 H63        16.8686  -23.8004  -48.8968 H         1 UNK         0.0903 
     64 H64        16.9929  -25.1413  -50.0391 H         1 UNK         0.0903 
     65 H65        16.9396  -26.5310  -46.9964 H         1 UNK         0.3096 
     66 H66        19.7206  -27.2412  -46.9998 H         1 UNK         0.1121 
     67 H67        17.5190  -27.6498  -44.9088 H         1 UNK         0.0849 
     68 H68        19.1107  -28.3415  -44.7598 H         1 UNK         0.0849 
     69 H69        15.6194  -29.3320  -45.6414 H         1 UNK         0.0865 
     70 H70        16.0808  -30.9847  -45.9507 H         1 UNK         0.0865 
     71 H71        17.9528  -32.0010  -44.3793 H         1 UNK         0.1346 
     72 H72        17.4793  -30.8305  -40.2751 H         1 UNK         0.1412 
     73 H73        15.6139  -28.5519  -43.3850 H         1 UNK         0.1426 
     74 H74        15.3037  -29.2033  -39.9858 H         1 UNK         0.0716 
     75 H75        15.2755  -27.8887  -41.1335 H         1 UNK         0.0716 
     76 H76        17.7170  -25.6304  -40.6824 H         1 UNK         0.0695 
     77 H77        17.4779  -26.8321  -41.9193 H         1 UNK         0.0695 
     78 H78        19.6975  -27.8940  -41.2967 H         1 UNK         0.0983 
     79 H79        19.3104  -25.5676  -42.7926 H         1 UNK         0.3095 
     80 H80        21.0937  -24.2742  -43.8640 H         1 UNK         0.0454 
     81 H81        23.4550  -26.0862  -44.5891 H         1 UNK         0.0851 
     82 H82        23.5534  -24.6952  -43.5194 H         1 UNK         0.0851 
     83 H83        23.1401  -24.4702  -45.2101 H         1 UNK         0.0851 
     84 H84        21.3435  -26.6787  -45.5758 H         1 UNK         0.2976 
     85 H85        20.6749  -28.3343  -39.4330 H         1 UNK         0.3116 
     86 H86        21.7976  -28.3146  -37.5671 H         1 UNK         0.0646 
     87 H87        20.6608  -25.5363  -36.9548 H         1 UNK         0.0847 
     88 H88        21.4243  -26.6242  -35.8093 H         1 UNK         0.0847 
     89 H89        19.8945  -27.0711  -36.5475 H         1 UNK         0.0847 
     90 H90        22.2674  -25.3928  -39.4721 H         1 UNK         0.3040 
     91 H91        24.8486  -24.6561  -38.4819 H         1 UNK         0.1015 
     92 H92        23.4805  -24.0882  -41.1689 H         1 UNK         0.0786 
     93 H93        24.9206  -23.2678  -40.5787 H         1 UNK         0.0786 
     94 H94        23.3969  -23.0816  -39.7248 H         1 UNK         0.0786 
     95 H95        23.8426  -27.0465  -40.9009 H         1 UNK         0.3172 
     96 H96        26.6188  -28.0435  -41.0785 H         1 UNK         0.0595 
     97 H97        26.4029  -28.3059  -43.5343 H         1 UNK         0.0839 
     98 H98        26.1665  -26.6093  -43.1483 H         1 UNK         0.0839 
     99 H99        24.7790  -27.6372  -43.5082 H         1 UNK         0.0839 
    100 H100       26.6080  -30.2603  -41.9637 H         1 UNK         0.2998 
    101 H101       24.4899  -31.9294  -40.8300 H         1 UNK         0.0822 
    102 H102       26.0127  -33.7773  -41.5236 H         1 UNK         0.0787 
    103 H103       27.0810  -32.6267  -42.3159 H         1 UNK         0.0787 
    104 H104       26.8656  -32.5778  -40.5662 H         1 UNK         0.0787 
    105 H105       22.9216  -30.7828  -42.3073 H         1 UNK         0.3055 
    106 H106       22.8319  -31.3415  -45.1082 H         1 UNK         0.1106 
    107 H107       20.4980  -30.4460  -44.9170 H         1 UNK         0.0828 
    108 H108       20.6091  -30.4995  -43.1651 H         1 UNK         0.0828 
    109 H109       21.6533  -29.4178  -44.0832 H         1 UNK         0.0828 
    110 H110       22.1158  -33.3963  -42.4682 H         1 UNK         0.2931 
    111 H111       20.7425  -35.3850  -44.2044 H         1 UNK         0.0412 
    112 H112       21.6313  -37.4928  -44.0901 H         1 UNK         0.3472 
    113 H113       23.0406  -37.8578  -43.1287 H         1 UNK         0.3472 
    114 H114       20.2162  -34.8861  -41.2165 H         1 UNK         0.0970 
    115 H115       19.6087  -36.2428  -42.1257 H         1 UNK         0.0970 
    116 H116       19.7246  -32.3853  -41.8825 H         1 UNK         0.0612 
    117 H117       18.5078  -32.9260  -40.7539 H         1 UNK         0.0612 
@<TRIPOS>BOND
     1    1    2 1    
     2    1   62 1    
     3    1   63 1    
     4    1   64 1    
     5    2    3 2    
     6    2    4 am   BACKBONE|DICT|INTERRES
     7    4    5 1    
     8    4   65 1    
     9    5    6 1    
    10    5   25 1    
    11    5   66 1    
    12    6    7 1    
    13    6   67 1    
    14    6   68 1    
    15    7    8 1    
    16    8    9 1    
    17    8   69 1    
    18    8   70 1    
    19    9   10 ar   
    20    9   14 ar   
    21   10   11 ar   
    22   10   71 1    
    23   11   12 ar   
    24   11   61 1    
    25   12   13 ar   
    26   12   72 1    
    27   13   14 ar   
    28   13   15 1    
    29   14   73 1    
    30   15   16 1    
    31   15   74 1    
    32   15   75 1    
    33   16   17 1    
    34   17   18 1    
    35   17   76 1    
    36   17   77 1    
    37   18   19 1    
    38   18   27 1    
    39   18   78 1    
    40   19   20 am   BACKBONE|DICT|INTERRES
    41   19   79 1    
    42   20   21 2    
    43   20   22 1    
    44   22   23 1    
    45   22   24 1    
    46   22   80 1    
    47   23   81 1    
    48   23   82 1    
    49   23   83 1    
    50   24   25 am   BACKBONE|DICT|INTERRES
    51   24   84 1    
    52   25   26 2    
    53   27   28 2    
    54   27   29 am   BACKBONE|DICT|INTERRES
    55   29   30 1    
    56   29   85 1    
    57   30   31 1    
    58   30   32 1    
    59   30   86 1    
    60   31   87 1    
    61   31   88 1    
    62   31   89 1    
    63   32   33 2    
    64   32   34 am   BACKBONE|DICT|INTERRES
    65   34   35 1    
    66   34   90 1    
    67   35   36 1    
    68   35   37 1    
    69   35   91 1    
    70   36   92 1    
    71   36   93 1    
    72   36   94 1    
    73   37   38 2    
    74   37   39 am   BACKBONE|DICT|INTERRES
    75   39   40 1    
    76   39   95 1    
    77   40   41 1    
    78   40   42 1    
    79   40   96 1    
    80   41   97 1    
    81   41   98 1    
    82   41   99 1    
    83   42   43 2    
    84   42   44 am   BACKBONE|DICT|INTERRES
    85   44   45 1    
    86   44  100 1    
    87   45   46 1    
    88   45   47 1    
    89   45  101 1    
    90   46  102 1    
    91   46  103 1    
    92   46  104 1    
    93   47   48 2    
    94   47   49 am   BACKBONE|DICT|INTERRES
    95   49   50 1    
    96   49  105 1    
    97   50   51 1    
    98   50   52 1    
    99   50  106 1    
   100   51  107 1    
   101   51  108 1    
   102   51  109 1    
   103   52   53 2    
   104   52   54 am   BACKBONE|DICT|INTERRES
   105   54   55 1    
   106   54  110 1    
   107   55   56 1    
   108   55   59 1    
   109   55  111 1    
   110   56   57 am   BACKBONE|DICT|INTERRES
   111   56   58 2    
   112   57  112 1    
   113   57  113 1    
   114   59   60 1    
   115   59  114 1    
   116   59  115 1    
   117   60   61 1    
   118   61  116 1    
   119   61  117 1    
@<TRIPOS>SUBSTRUCTURE
     1 UNK         1 GROUP             0       ****    0 ROOT    
