@<TRIPOS>MOLECULE
3R8
117   119    1
SMALL
USER_CHARGES


@<TRIPOS>ATOM
      1 CA         13.0821  -25.4226  -42.8006 C.3       0 UNK        -0.2013 
      2 C          14.1699  -26.4657  -42.5902 C.2       0 UNK         0.4866 
      3 O          14.1664  -27.1472  -41.5643 O.2       0 UNK        -0.5176 
      4 N          15.0904  -26.5896  -43.5570 N.am      1 UNK        -0.4884 
      5 CA         16.2452  -27.5027  -43.5648 C.3       1 UNK         0.0853 
      6 C6         15.8375  -29.0081  -43.5721 C.3       10 UNK        -0.0849 
      7 S7         14.9622  -29.4364  -45.1172 S.3       10 UNK        -0.2776 
      8 C8         16.1496  -30.5436  -45.9584 C.3       10 UNK         0.0316 
      9 C9         17.5703  -29.9881  -46.0255 C.ar      10 UNK        -0.0863 
     10 C10        18.6445  -30.7710  -45.5921 C.ar      10 UNK        -0.1009 
     11 C11        19.9584  -30.2831  -45.6405 C.ar      10 UNK        -0.0712 
     12 C12        20.1795  -28.9901  -46.1246 C.ar      10 UNK        -0.0894 
     13 C13        19.1153  -28.1930  -46.5565 C.ar      10 UNK        -0.0745 
     14 C14        17.8166  -28.7065  -46.5249 C.ar      10 UNK        -0.0972 
     15 C15        19.3593  -26.7826  -47.0721 C.3       10 UNK         0.0209 
     16 S16        19.4003  -25.5673  -45.7148 S.3       10 UNK        -0.2568 
     17 C17        21.1661  -25.5970  -45.2484 C.3       10 UNK        -0.0983 
     18 CA         21.4150  -25.6125  -43.7156 C.3       3 UNK         0.0876 
     19 N          20.6718  -26.6916  -43.0479 N.am      3 UNK        -0.4424 
     20 C          20.3215  -26.7210  -41.7548 C.2       2 UNK         0.4918 
     21 O          20.6906  -25.8788  -40.9349 O.2       2 UNK        -0.4875 
     22 CA         19.3963  -27.8762  -41.3246 C.3       2 UNK         0.0481 
     23 CB         18.9289  -27.7518  -39.8585 C.3       2 UNK        -0.1831 
     24 N          18.2498  -28.0382  -42.2297 N.am      2 UNK        -0.4498 
     25 C          17.2977  -27.1267  -42.4943 C.2       1 UNK         0.5027 
     26 O          17.2647  -26.0081  -41.9734 O.2       1 UNK        -0.4969 
     27 C          22.9312  -25.5992  -43.3861 C.2       3 UNK         0.5005 
     28 O          23.7396  -25.2941  -44.2651 O.2       3 UNK        -0.5279 
     29 N          23.3057  -25.9430  -42.1446 N.am      4 UNK        -0.4463 
     30 CA         24.6450  -25.9597  -41.5332 C.3       4 UNK         0.0283 
     31 CB         25.2472  -24.5428  -41.4857 C.3       4 UNK        -0.1875 
     32 C          25.6580  -26.9550  -42.1321 C.2       4 UNK         0.4949 
     33 O          26.4656  -27.4988  -41.3791 O.2       4 UNK        -0.5039 
     34 N          25.6000  -27.1987  -43.4476 N.am      5 UNK        -0.4663 
     35 CA         26.5153  -28.0446  -44.2265 C.3       5 UNK         0.0242 
     36 CB         26.1004  -27.9937  -45.7059 C.3       5 UNK        -0.1982 
     37 C          26.6156  -29.5054  -43.7502 C.2       5 UNK         0.5017 
     38 O          27.6678  -30.1227  -43.9181 O.2       5 UNK        -0.5012 
     39 N          25.5338  -30.0138  -43.1507 N.am      6 UNK        -0.4439 
     40 CA         25.4603  -31.3152  -42.4855 C.3       6 UNK         0.0297 
     41 CB         24.6063  -32.2715  -43.3378 C.3       6 UNK        -0.2006 
     42 C          24.9131  -31.1540  -41.0559 C.2       6 UNK         0.4892 
     43 O          24.2519  -32.0644  -40.5532 O.2       6 UNK        -0.5089 
     44 N          25.1681  -29.9895  -40.4350 N.am      7 UNK        -0.4243 
     45 CA         24.6332  -29.5398  -39.1459 C.3       7 UNK         0.0196 
     46 CB         25.2549  -30.3476  -37.9829 C.3       7 UNK        -0.2007 
     47 C          23.0929  -29.5323  -39.1697 C.2       7 UNK         0.5020 
     48 O          22.5108  -28.7618  -39.9339 O.2       7 UNK        -0.5147 
     49 N          22.4666  -30.4064  -38.3716 N.am      8 UNK        -0.4734 
     50 CA         21.0186  -30.6280  -38.3359 C.3       8 UNK         0.0238 
     51 CB         20.6664  -31.4105  -37.0601 C.3       8 UNK        -0.1912 
     52 C          20.4634  -31.3530  -39.5783 C.2       8 UNK         0.5038 
     53 O          19.2509  -31.3178  -39.7903 O.2       8 UNK        -0.5046 
     54 N          21.3388  -31.9950  -40.3648 N.am      9 UNK        -0.4200 
     55 CA         21.0085  -32.8389  -41.5207 C.3       9 UNK         0.0839 
     56 C          20.2537  -34.1479  -41.1299 C.2       9 UNK         0.5513 
     57 N          19.6602  -34.8457  -42.0883 N.am      9 UNK        -0.7519 
     58 O          20.2384  -34.5675  -39.9739 O.2       9 UNK        -0.4960 
     59 C59        20.3403  -32.0287  -42.6731 C.3       10 UNK        -0.0876 
     60 S60        20.8123  -32.6605  -44.3197 S.3       10 UNK        -0.2414 
     61 C61        21.1746  -31.1168  -45.2262 C.3       10 UNK         0.0169 
     62 H62        12.1009  -25.8967  -42.7892 H         1 UNK         0.0903 
     63 H63        13.1126  -24.6829  -42.0011 H         1 UNK         0.0903 
     64 H64        13.1943  -24.8999  -43.7504 H         1 UNK         0.0903 
     65 H65        15.0355  -25.9747  -44.3569 H         1 UNK         0.3096 
     66 H66        16.7579  -27.2930  -44.5028 H         1 UNK         0.1121 
     67 H67        16.6950  -29.6729  -43.4730 H         1 UNK         0.0849 
     68 H68        15.1920  -29.2445  -42.7256 H         1 UNK         0.0849 
     69 H69        16.1371  -31.5077  -45.4474 H         1 UNK         0.0865 
     70 H70        15.7971  -30.7328  -46.9731 H         1 UNK         0.0865 
     71 H71        18.4456  -31.7697  -45.2317 H         1 UNK         0.1346 
     72 H72        21.1899  -28.6105  -46.1779 H         1 UNK         0.1412 
     73 H73        16.9901  -28.1005  -46.8711 H         1 UNK         0.1426 
     74 H74        20.2846  -26.7394  -47.6486 H         1 UNK         0.0716 
     75 H75        18.5646  -26.4994  -47.7640 H         1 UNK         0.0716 
     76 H76        21.6575  -26.4504  -45.7154 H         1 UNK         0.0695 
     77 H77        21.6230  -24.7121  -45.6956 H         1 UNK         0.0695 
     78 H78        21.0270  -24.6692  -43.3245 H         1 UNK         0.0983 
     79 H79        20.3171  -27.4143  -43.6561 H         1 UNK         0.3095 
     80 H80        19.9895  -28.7881  -41.4044 H         1 UNK         0.0454 
     81 H81        18.3147  -26.8658  -39.6974 H         1 UNK         0.0851 
     82 H82        18.3497  -28.6224  -39.5516 H         1 UNK         0.0851 
     83 H83        19.7823  -27.6712  -39.1851 H         1 UNK         0.0851 
     84 H84        18.2108  -28.9191  -42.7220 H         1 UNK         0.2976 
     85 H85        22.5474  -26.1664  -41.5059 H         1 UNK         0.3116 
     86 H86        24.4813  -26.2783  -40.5024 H         1 UNK         0.0646 
     87 H87        26.1953  -24.5402  -40.9460 H         1 UNK         0.0847 
     88 H88        24.5829  -23.8461  -40.9744 H         1 UNK         0.0847 
     89 H89        25.4429  -24.1491  -42.4836 H         1 UNK         0.0847 
     90 H90        24.9272  -26.6436  -43.9735 H         1 UNK         0.3040 
     91 H91        27.5131  -27.6105  -44.1335 H         1 UNK         0.1015 
     92 H92        26.1255  -26.9737  -46.0901 H         1 UNK         0.0786 
     93 H93        25.0925  -28.3833  -45.8554 H         1 UNK         0.0786 
     94 H94        26.7758  -28.5878  -46.3234 H         1 UNK         0.0786 
     95 H95        24.7232  -29.4168  -43.0612 H         1 UNK         0.3172 
     96 H96        26.4582  -31.7459  -42.3825 H         1 UNK         0.0595 
     97 H97        23.5802  -31.9166  -43.4245 H         1 UNK         0.0839 
     98 H98        24.5718  -33.2694  -42.8988 H         1 UNK         0.0839 
     99 H99        25.0113  -32.3761  -44.3443 H         1 UNK         0.0839 
    100 H100       25.7303  -29.2990  -40.9236 H         1 UNK         0.2998 
    101 H101       24.9404  -28.4996  -39.0270 H         1 UNK         0.0822 
    102 H102       26.3399  -30.2426  -37.9768 H         1 UNK         0.0787 
    103 H103       24.8970  -29.9880  -37.0171 H         1 UNK         0.0787 
    104 H104       25.0326  -31.4133  -38.0467 H         1 UNK         0.0787 
    105 H105       23.0338  -31.0143  -37.7980 H         1 UNK         0.3055 
    106 H106       20.5280  -29.6558  -38.2822 H         1 UNK         0.1106 
    107 H107       19.5886  -31.5583  -36.9780 H         1 UNK         0.0828 
    108 H108       21.1306  -32.3976  -37.0509 H         1 UNK         0.0828 
    109 H109       20.9866  -30.8778  -36.1644 H         1 UNK         0.0828 
    110 H110       22.3241  -31.9745  -40.1210 H         1 UNK         0.2931 
    111 H111       21.9850  -33.1778  -41.8676 H         1 UNK         0.0412 
    112 H112       19.1838  -35.7035  -41.8569 H         1 UNK         0.3472 
    113 H113       19.6981  -34.5265  -43.0453 H         1 UNK         0.3472 
    114 H114       19.2530  -32.0215  -42.5773 H         1 UNK         0.0970 
    115 H115       20.6444  -30.9828  -42.6142 H         1 UNK         0.0970 
    116 H116       21.8532  -30.5069  -44.6279 H         1 UNK         0.0612 
    117 H117       21.7225  -31.3845  -46.1305 H         1 UNK         0.0612 
@<TRIPOS>BOND
     1    1    2 1    
     2    1   62 1    
     3    1   63 1    
     4    1   64 1    
     5    2    3 2    
     6    2    4 am   BACKBONE|DICT|INTERRES
     7    4    5 1    
     8    4   65 1    
     9    5    6 1    
    10    5   25 1    
    11    5   66 1    
    12    6    7 1    
    13    6   67 1    
    14    6   68 1    
    15    7    8 1    
    16    8    9 1    
    17    8   69 1    
    18    8   70 1    
    19    9   10 ar   
    20    9   14 ar   
    21   10   11 ar   
    22   10   71 1    
    23   11   12 ar   
    24   11   61 1    
    25   12   13 ar   
    26   12   72 1    
    27   13   14 ar   
    28   13   15 1    
    29   14   73 1    
    30   15   16 1    
    31   15   74 1    
    32   15   75 1    
    33   16   17 1    
    34   17   18 1    
    35   17   76 1    
    36   17   77 1    
    37   18   19 1    
    38   18   27 1    
    39   18   78 1    
    40   19   20 am   BACKBONE|DICT|INTERRES
    41   19   79 1    
    42   20   21 2    
    43   20   22 1    
    44   22   23 1    
    45   22   24 1    
    46   22   80 1    
    47   23   81 1    
    48   23   82 1    
    49   23   83 1    
    50   24   25 am   BACKBONE|DICT|INTERRES
    51   24   84 1    
    52   25   26 2    
    53   27   28 2    
    54   27   29 am   BACKBONE|DICT|INTERRES
    55   29   30 1    
    56   29   85 1    
    57   30   31 1    
    58   30   32 1    
    59   30   86 1    
    60   31   87 1    
    61   31   88 1    
    62   31   89 1    
    63   32   33 2    
    64   32   34 am   BACKBONE|DICT|INTERRES
    65   34   35 1    
    66   34   90 1    
    67   35   36 1    
    68   35   37 1    
    69   35   91 1    
    70   36   92 1    
    71   36   93 1    
    72   36   94 1    
    73   37   38 2    
    74   37   39 am   BACKBONE|DICT|INTERRES
    75   39   40 1    
    76   39   95 1    
    77   40   41 1    
    78   40   42 1    
    79   40   96 1    
    80   41   97 1    
    81   41   98 1    
    82   41   99 1    
    83   42   43 2    
    84   42   44 am   BACKBONE|DICT|INTERRES
    85   44   45 1    
    86   44  100 1    
    87   45   46 1    
    88   45   47 1    
    89   45  101 1    
    90   46  102 1    
    91   46  103 1    
    92   46  104 1    
    93   47   48 2    
    94   47   49 am   BACKBONE|DICT|INTERRES
    95   49   50 1    
    96   49  105 1    
    97   50   51 1    
    98   50   52 1    
    99   50  106 1    
   100   51  107 1    
   101   51  108 1    
   102   51  109 1    
   103   52   53 2    
   104   52   54 am   BACKBONE|DICT|INTERRES
   105   54   55 1    
   106   54  110 1    
   107   55   56 1    
   108   55   59 1    
   109   55  111 1    
   110   56   57 am   BACKBONE|DICT|INTERRES
   111   56   58 2    
   112   57  112 1    
   113   57  113 1    
   114   59   60 1    
   115   59  114 1    
   116   59  115 1    
   117   60   61 1    
   118   61  116 1    
   119   61  117 1    
@<TRIPOS>SUBSTRUCTURE
     1 UNK         1 GROUP             0       ****    0 ROOT    
