@<TRIPOS>MOLECULE
3R8
117   119    1
SMALL
USER_CHARGES


@<TRIPOS>ATOM
      1 CA         20.4631  -22.8390  -40.3098 C.3       0 UNK        -0.2013 
      2 C          20.2879  -24.2035  -40.9589 C.2       0 UNK         0.4866 
      3 O          21.2840  -24.8014  -41.3594 O.2       0 UNK        -0.5176 
      4 N          19.0357  -24.6759  -41.0394 N.am      1 UNK        -0.4884 
      5 CA         18.5455  -25.9163  -41.6622 C.3       1 UNK         0.0853 
      6 C6         19.2649  -27.2201  -41.2010 C.3       10 UNK        -0.0849 
      7 S7         20.6985  -27.7376  -42.2073 S.3       10 UNK        -0.2776 
      8 C8         20.8325  -29.4905  -41.7908 C.3       10 UNK         0.0316 
      9 C9         20.0921  -30.3273  -42.8103 C.ar      10 UNK        -0.0863 
     10 C10        18.9033  -30.9723  -42.4754 C.ar      10 UNK        -0.1009 
     11 C11        18.2619  -31.7888  -43.4096 C.ar      10 UNK        -0.0712 
     12 C12        18.7723  -31.8905  -44.7094 C.ar      10 UNK        -0.0894 
     13 C13        19.9597  -31.2359  -45.0562 C.ar      10 UNK        -0.0745 
     14 C14        20.6250  -30.4789  -44.0901 C.ar      10 UNK        -0.0972 
     15 C15        20.5580  -31.3963  -46.4477 C.3       10 UNK         0.0209 
     16 S16        20.2126  -29.9699  -47.5310 S.3       10 UNK        -0.2568 
     17 C17        21.4946  -28.7667  -47.0224 C.3       10 UNK        -0.0983 
     18 CA         20.9460  -27.3449  -46.7166 C.3       3 UNK         0.0876 
     19 N          19.7577  -27.3542  -45.8518 N.am      3 UNK        -0.4424 
     20 C          18.5881  -26.7908  -46.1826 C.2       2 UNK         0.4918 
     21 O          18.3966  -26.1488  -47.2160 O.2       2 UNK        -0.4875 
     22 CA         17.4236  -26.9697  -45.1957 C.3       2 UNK         0.0481 
     23 CB         16.7377  -28.3258  -45.4315 C.3       2 UNK        -0.1831 
     24 N          17.7999  -26.8615  -43.7849 N.am      2 UNK        -0.4498 
     25 C          18.3519  -25.7929  -43.1898 C.2       1 UNK         0.5027 
     26 O          18.6788  -24.7639  -43.7870 O.2       1 UNK        -0.4969 
     27 C          22.0493  -26.4154  -46.1635 C.2       3 UNK         0.5005 
     28 O          23.1763  -26.4732  -46.6587 O.2       3 UNK        -0.5279 
     29 N          21.7200  -25.5768  -45.1647 N.am      4 UNK        -0.4463 
     30 CA         22.6058  -24.6252  -44.4770 C.3       4 UNK         0.0283 
     31 CB         23.0456  -23.4949  -45.4323 C.3       4 UNK        -0.1875 
     32 C          23.7931  -25.3176  -43.7732 C.2       4 UNK         0.4949 
     33 O          24.9403  -24.8959  -43.9329 O.2       4 UNK        -0.5039 
     34 N          23.4927  -26.3871  -43.0268 N.am      5 UNK        -0.4663 
     35 CA         24.4605  -27.2690  -42.3690 C.3       5 UNK         0.0242 
     36 CB         24.6283  -28.5454  -43.2136 C.3       5 UNK        -0.1982 
     37 C          24.0812  -27.5713  -40.9062 C.2       5 UNK         0.5017 
     38 O          24.5002  -28.6020  -40.3725 O.2       5 UNK        -0.5012 
     39 N          23.2968  -26.6783  -40.2831 N.am      6 UNK        -0.4439 
     40 CA         22.8765  -26.6310  -38.8758 C.3       6 UNK         0.0297 
     41 CB         24.0865  -26.4684  -37.9348 C.3       6 UNK        -0.2006 
     42 C          21.9653  -27.7817  -38.4121 C.2       6 UNK         0.4892 
     43 O          20.8825  -27.5120  -37.8913 O.2       6 UNK        -0.5089 
     44 N          22.4192  -29.0290  -38.5726 N.am      7 UNK        -0.4243 
     45 CA         21.7365  -30.2374  -38.0993 C.3       7 UNK         0.0196 
     46 CB         22.0322  -30.4430  -36.6004 C.3       7 UNK        -0.2007 
     47 C          22.0837  -31.5009  -38.9056 C.2       7 UNK         0.5020 
     48 O          21.5304  -32.5606  -38.6079 O.2       7 UNK        -0.5147 
     49 N          22.9809  -31.4042  -39.8979 N.am      8 UNK        -0.4734 
     50 CA         23.4919  -32.5312  -40.6879 C.3       8 UNK         0.0238 
     51 CB         24.8265  -32.1068  -41.3288 C.3       8 UNK        -0.1912 
     52 C          22.4924  -33.0902  -41.7278 C.2       8 UNK         0.5038 
     53 O          22.8120  -33.1292  -42.9174 O.2       8 UNK        -0.5046 
     54 N          21.3148  -33.5338  -41.2663 N.am      9 UNK        -0.4200 
     55 CA         20.3188  -34.2601  -42.0769 C.3       9 UNK         0.0839 
     56 C          20.7383  -35.7188  -42.4311 C.2       9 UNK         0.5513 
     57 N          21.6581  -36.3377  -41.6987 N.am      9 UNK        -0.7519 
     58 O          20.2378  -36.2950  -43.3930 O.2       9 UNK        -0.4960 
     59 C59        18.9004  -34.2007  -41.4361 C.3       10 UNK        -0.0876 
     60 S60        17.5463  -34.3546  -42.6625 S.3       10 UNK        -0.2414 
     61 C61        17.0661  -32.6221  -42.9808 C.3       10 UNK         0.0169 
     62 H62        20.9201  -22.1465  -41.0162 H         1 UNK         0.0903 
     63 H63        19.5145  -22.4138  -39.9828 H         1 UNK         0.0903 
     64 H64        21.1163  -22.9201  -39.4414 H         1 UNK         0.0903 
     65 H65        18.2950  -24.0804  -40.6954 H         1 UNK         0.3096 
     66 H66        17.5270  -25.9905  -41.2765 H         1 UNK         0.1121 
     67 H67        18.5480  -28.0427  -41.2013 H         1 UNK         0.0849 
     68 H68        19.5837  -27.1210  -40.1640 H         1 UNK         0.0849 
     69 H69        21.8848  -29.7719  -41.7945 H         1 UNK         0.0865 
     70 H70        20.4635  -29.6694  -40.7806 H         1 UNK         0.0865 
     71 H71        18.5067  -30.8827  -41.4735 H         1 UNK         0.1346 
     72 H72        18.2716  -32.5195  -45.4326 H         1 UNK         0.1412 
     73 H73        21.5678  -30.0079  -44.3177 H         1 UNK         0.1426 
     74 H74        20.1545  -32.2921  -46.9220 H         1 UNK         0.0716 
     75 H75        21.6351  -31.5563  -46.3769 H         1 UNK         0.0716 
     76 H76        22.2151  -28.7102  -47.8404 H         1 UNK         0.0695 
     77 H77        22.0619  -29.1533  -46.1791 H         1 UNK         0.0695 
     78 H78        20.6826  -26.9121  -47.6840 H         1 UNK         0.0983 
     79 H79        19.8267  -27.8726  -44.9871 H         1 UNK         0.3095 
     80 H80        16.6960  -26.1811  -45.3982 H         1 UNK         0.0454 
     81 H81        15.8433  -28.4336  -44.8179 H         1 UNK         0.0851 
     82 H82        17.4034  -29.1604  -45.2058 H         1 UNK         0.0851 
     83 H83        16.4285  -28.4314  -46.4723 H         1 UNK         0.0851 
     84 H84        17.5949  -27.6692  -43.2148 H         1 UNK         0.2976 
     85 H85        20.7648  -25.5969  -44.8308 H         1 UNK         0.3116 
     86 H86        22.0058  -24.1605  -43.6961 H         1 UNK         0.0646 
     87 H87        23.6910  -23.8633  -46.2302 H         1 UNK         0.0847 
     88 H88        23.6025  -22.7265  -44.8948 H         1 UNK         0.0847 
     89 H89        22.1863  -23.0078  -45.8929 H         1 UNK         0.0847 
     90 H90        22.5153  -26.6325  -42.9075 H         1 UNK         0.3040 
     91 H91        25.4315  -26.7720  -42.3174 H         1 UNK         0.1015 
     92 H92        23.7129  -29.1360  -43.2405 H         1 UNK         0.0786 
     93 H93        25.4218  -29.1772  -42.8135 H         1 UNK         0.0786 
     94 H94        24.8997  -28.3054  -44.2419 H         1 UNK         0.0786 
     95 H95        22.8976  -25.9361  -40.8527 H         1 UNK         0.3172 
     96 H96        22.2826  -25.7195  -38.7912 H         1 UNK         0.0595 
     97 H97        24.7574  -27.3270  -37.9744 H         1 UNK         0.0839 
     98 H98        23.7619  -26.3596  -36.8991 H         1 UNK         0.0839 
     99 H99        24.6659  -25.5802  -38.1865 H         1 UNK         0.0839 
    100 H100       23.3254  -29.1314  -39.0211 H         1 UNK         0.2998 
    101 H101       20.6602  -30.0972  -38.2202 H         1 UNK         0.0822 
    102 H102       21.5259  -31.3288  -36.2142 H         1 UNK         0.0787 
    103 H103       23.0998  -30.5699  -36.4175 H         1 UNK         0.0787 
    104 H104       21.6892  -29.5960  -36.0061 H         1 UNK         0.0787 
    105 H105       23.3930  -30.5053  -40.1090 H         1 UNK         0.3055 
    106 H106       23.7112  -33.3517  -40.0007 H         1 UNK         0.1106 
    107 H107       24.6844  -31.3044  -42.0521 H         1 UNK         0.0828 
    108 H108       25.5391  -31.7613  -40.5794 H         1 UNK         0.0828 
    109 H109       25.2921  -32.9411  -41.8553 H         1 UNK         0.0828 
    110 H110       21.1327  -33.4403  -40.2716 H         1 UNK         0.2931 
    111 H111       20.2693  -33.7302  -43.0292 H         1 UNK         0.0412 
    112 H112       22.0755  -35.8812  -40.9038 H         1 UNK         0.3472 
    113 H113       21.9291  -37.2783  -41.9399 H         1 UNK         0.3472 
    114 H114       18.7638  -33.2653  -40.8934 H         1 UNK         0.0970 
    115 H115       18.7834  -34.9829  -40.6838 H         1 UNK         0.0970 
    116 H116       16.3031  -32.5998  -43.7601 H         1 UNK         0.0612 
    117 H117       16.6044  -32.2063  -42.0839 H         1 UNK         0.0612 
@<TRIPOS>BOND
     1    1    2 1    
     2    1   62 1    
     3    1   63 1    
     4    1   64 1    
     5    2    3 2    
     6    2    4 am   BACKBONE|DICT|INTERRES
     7    4    5 1    
     8    4   65 1    
     9    5    6 1    
    10    5   25 1    
    11    5   66 1    
    12    6    7 1    
    13    6   67 1    
    14    6   68 1    
    15    7    8 1    
    16    8    9 1    
    17    8   69 1    
    18    8   70 1    
    19    9   10 ar   
    20    9   14 ar   
    21   10   11 ar   
    22   10   71 1    
    23   11   12 ar   
    24   11   61 1    
    25   12   13 ar   
    26   12   72 1    
    27   13   14 ar   
    28   13   15 1    
    29   14   73 1    
    30   15   16 1    
    31   15   74 1    
    32   15   75 1    
    33   16   17 1    
    34   17   18 1    
    35   17   76 1    
    36   17   77 1    
    37   18   19 1    
    38   18   27 1    
    39   18   78 1    
    40   19   20 am   BACKBONE|DICT|INTERRES
    41   19   79 1    
    42   20   21 2    
    43   20   22 1    
    44   22   23 1    
    45   22   24 1    
    46   22   80 1    
    47   23   81 1    
    48   23   82 1    
    49   23   83 1    
    50   24   25 am   BACKBONE|DICT|INTERRES
    51   24   84 1    
    52   25   26 2    
    53   27   28 2    
    54   27   29 am   BACKBONE|DICT|INTERRES
    55   29   30 1    
    56   29   85 1    
    57   30   31 1    
    58   30   32 1    
    59   30   86 1    
    60   31   87 1    
    61   31   88 1    
    62   31   89 1    
    63   32   33 2    
    64   32   34 am   BACKBONE|DICT|INTERRES
    65   34   35 1    
    66   34   90 1    
    67   35   36 1    
    68   35   37 1    
    69   35   91 1    
    70   36   92 1    
    71   36   93 1    
    72   36   94 1    
    73   37   38 2    
    74   37   39 am   BACKBONE|DICT|INTERRES
    75   39   40 1    
    76   39   95 1    
    77   40   41 1    
    78   40   42 1    
    79   40   96 1    
    80   41   97 1    
    81   41   98 1    
    82   41   99 1    
    83   42   43 2    
    84   42   44 am   BACKBONE|DICT|INTERRES
    85   44   45 1    
    86   44  100 1    
    87   45   46 1    
    88   45   47 1    
    89   45  101 1    
    90   46  102 1    
    91   46  103 1    
    92   46  104 1    
    93   47   48 2    
    94   47   49 am   BACKBONE|DICT|INTERRES
    95   49   50 1    
    96   49  105 1    
    97   50   51 1    
    98   50   52 1    
    99   50  106 1    
   100   51  107 1    
   101   51  108 1    
   102   51  109 1    
   103   52   53 2    
   104   52   54 am   BACKBONE|DICT|INTERRES
   105   54   55 1    
   106   54  110 1    
   107   55   56 1    
   108   55   59 1    
   109   55  111 1    
   110   56   57 am   BACKBONE|DICT|INTERRES
   111   56   58 2    
   112   57  112 1    
   113   57  113 1    
   114   59   60 1    
   115   59  114 1    
   116   59  115 1    
   117   60   61 1    
   118   61  116 1    
   119   61  117 1    
@<TRIPOS>SUBSTRUCTURE
     1 UNK         1 GROUP             0       ****    0 ROOT    
