@<TRIPOS>MOLECULE
3R8
117   119    1
SMALL
USER_CHARGES


@<TRIPOS>ATOM
      1 CA         15.7107  -23.2011  -41.6389 C.3       0 UNK        -0.2013 
      2 C          15.7240  -24.0886  -42.8746 C.2       0 UNK         0.4866 
      3 O          14.6619  -24.4458  -43.3847 O.2       0 UNK        -0.5176 
      4 N          16.9166  -24.4451  -43.3602 N.am      1 UNK        -0.4884 
      5 CA         17.1447  -25.2583  -44.5527 C.3       1 UNK         0.0853 
      6 C6         16.9337  -26.7690  -44.2763 C.3       10 UNK        -0.0849 
      7 S7         16.5611  -27.7155  -45.7922 S.3       10 UNK        -0.2776 
      8 C8         16.2500  -29.3769  -45.1083 C.3       10 UNK         0.0316 
      9 C9         17.4664  -29.9066  -44.3645 C.ar      10 UNK        -0.0863 
     10 C10        17.4798  -29.9415  -42.9666 C.ar      10 UNK        -0.1009 
     11 C11        18.6199  -30.3543  -42.2707 C.ar      10 UNK        -0.0712 
     12 C12        19.7534  -30.7369  -42.9995 C.ar      10 UNK        -0.0894 
     13 C13        19.7496  -30.7177  -44.3980 C.ar      10 UNK        -0.0745 
     14 C14        18.5970  -30.3153  -45.0754 C.ar      10 UNK        -0.0972 
     15 C15        21.0031  -31.0936  -45.1778 C.3       10 UNK         0.0209 
     16 S16        21.7432  -29.6604  -46.0250 S.3       10 UNK        -0.2568 
     17 C17        22.2093  -28.6244  -44.5991 C.3       10 UNK        -0.0983 
     18 CA         22.4465  -27.1383  -44.9652 C.3       3 UNK         0.0876 
     19 N          21.3073  -26.5570  -45.6848 N.am      3 UNK        -0.4424 
     20 C          21.3702  -25.4537  -46.4405 C.2       2 UNK         0.4918 
     21 O          22.4059  -24.8169  -46.6346 O.2       2 UNK        -0.4875 
     22 CA         20.0573  -24.9606  -47.0780 C.3       2 UNK         0.0481 
     23 CB         19.9319  -25.5004  -48.5116 C.3       2 UNK        -0.1831 
     24 N          18.8313  -25.2830  -46.3349 N.am      2 UNK        -0.4498 
     25 C          18.5618  -24.9424  -45.0668 C.2       1 UNK         0.5027 
     26 O          19.3806  -24.4103  -44.3099 O.2       1 UNK        -0.4969 
     27 C          22.8041  -26.3588  -43.6811 C.2       3 UNK         0.5005 
     28 O          23.8467  -26.6439  -43.0907 O.2       3 UNK        -0.5279 
     29 N          21.9139  -25.4649  -43.2117 N.am      4 UNK        -0.4463 
     30 CA         21.9878  -24.7244  -41.9407 C.3       4 UNK         0.0283 
     31 CB         23.1287  -23.6865  -41.9861 C.3       4 UNK        -0.1875 
     32 C          22.0739  -25.6377  -40.6965 C.2       4 UNK         0.4949 
     33 O          22.5956  -25.2190  -39.6626 O.2       4 UNK        -0.5039 
     34 N          21.5858  -26.8802  -40.8407 N.am      5 UNK        -0.4663 
     35 CA         21.6791  -28.0062  -39.9041 C.3       5 UNK         0.0242 
     36 CB         20.8372  -27.7375  -38.6390 C.3       5 UNK        -0.1982 
     37 C          23.1237  -28.4453  -39.5774 C.2       5 UNK         0.5017 
     38 O          23.3437  -29.0733  -38.5406 O.2       5 UNK        -0.5012 
     39 N          24.0859  -28.1236  -40.4562 N.am      6 UNK        -0.4439 
     40 CA         25.5080  -28.4256  -40.2687 C.3       6 UNK         0.0297 
     41 CB         26.3435  -27.4242  -41.0835 C.3       6 UNK        -0.2006 
     42 C          25.8940  -29.8693  -40.6401 C.2       6 UNK         0.4892 
     43 O          27.0015  -30.2898  -40.3015 O.2       6 UNK        -0.5089 
     44 N          25.0114  -30.5967  -41.3357 N.am      7 UNK        -0.4243 
     45 CA         25.2387  -31.9541  -41.8242 C.3       7 UNK         0.0196 
     46 CB         26.0269  -31.8975  -43.1478 C.3       7 UNK        -0.2007 
     47 C          23.8965  -32.6679  -42.0189 C.2       7 UNK         0.5020 
     48 O          22.8496  -32.0183  -42.0120 O.2       7 UNK        -0.5147 
     49 N          23.9677  -33.9905  -42.2184 N.am      8 UNK        -0.4734 
     50 CA         22.8935  -34.9421  -42.5420 C.3       8 UNK         0.0238 
     51 CB         22.1900  -34.5795  -43.8648 C.3       8 UNK        -0.1912 
     52 C          21.8679  -35.1730  -41.4200 C.2       8 UNK         0.5038 
     53 O          21.6783  -36.3206  -41.0148 O.2       8 UNK        -0.5046 
     54 N          21.2173  -34.1020  -40.9532 N.am      9 UNK        -0.4200 
     55 CA         20.1707  -34.1429  -39.9195 C.3       9 UNK         0.0839 
     56 C          20.6925  -34.2696  -38.4575 C.2       9 UNK         0.5513 
     57 N          21.9945  -34.2019  -38.2059 N.am      9 UNK        -0.7519 
     58 O          19.9000  -34.4528  -37.5368 O.2       9 UNK        -0.4960 
     59 C59        19.1421  -32.9956  -40.0966 C.3       10 UNK        -0.0876 
     60 S60        19.8531  -31.3286  -39.8946 S.3       10 UNK        -0.2414 
     61 C61        18.5983  -30.3063  -40.7409 C.3       10 UNK         0.0169 
     62 H62        15.1813  -23.6977  -40.8262 H         1 UNK         0.0903 
     63 H63        16.7178  -22.9670  -41.2940 H         1 UNK         0.0903 
     64 H64        15.1999  -22.2633  -41.8558 H         1 UNK         0.0903 
     65 H65        17.7732  -24.0897  -42.9505 H         1 UNK         0.3096 
     66 H66        16.4378  -24.9247  -45.3164 H         1 UNK         0.1121 
     67 H67        16.0911  -26.9143  -43.5984 H         1 UNK         0.0849 
     68 H68        17.8006  -27.1968  -43.7693 H         1 UNK         0.0849 
     69 H69        15.3771  -29.3418  -44.4544 H         1 UNK         0.0865 
     70 H70        15.9953  -30.0573  -45.9223 H         1 UNK         0.0865 
     71 H71        16.6080  -29.6151  -42.4158 H         1 UNK         0.1346 
     72 H72        20.6545  -31.0262  -42.4831 H         1 UNK         0.1412 
     73 H73        18.5959  -30.2771  -46.1564 H         1 UNK         0.1426 
     74 H74        20.7558  -31.8587  -45.9149 H         1 UNK         0.0716 
     75 H75        21.7562  -31.5268  -44.5193 H         1 UNK         0.0716 
     76 H76        23.1064  -29.0612  -44.1549 H         1 UNK         0.0695 
     77 H77        21.4303  -28.6935  -43.8394 H         1 UNK         0.0695 
     78 H78        23.3214  -27.0889  -45.6174 H         1 UNK         0.0983 
     79 H79        20.4272  -27.0451  -45.6067 H         1 UNK         0.3095 
     80 H80        20.1187  -23.8719  -47.1316 H         1 UNK         0.0454 
     81 H81        19.8234  -26.5858  -48.5258 H         1 UNK         0.0851 
     82 H82        20.8160  -25.2542  -49.1016 H         1 UNK         0.0851 
     83 H83        19.0733  -25.0692  -49.0266 H         1 UNK         0.0851 
     84 H84        18.1095  -25.7627  -46.8559 H         1 UNK         0.2976 
     85 H85        21.0807  -25.2778  -43.7631 H         1 UNK         0.3116 
     86 H86        21.0468  -24.1795  -41.8519 H         1 UNK         0.0646 
     87 H87        23.0488  -23.0479  -42.8657 H         1 UNK         0.0847 
     88 H88        24.1090  -24.1638  -42.0054 H         1 UNK         0.0847 
     89 H89        23.1022  -23.0353  -41.1117 H         1 UNK         0.0847 
     90 H90        21.1674  -27.0969  -41.7338 H         1 UNK         0.3040 
     91 H91        21.2357  -28.8545  -40.4243 H         1 UNK         0.1015 
     92 H92        21.2715  -26.9484  -38.0246 H         1 UNK         0.0786 
     93 H93        20.7669  -28.6322  -38.0189 H         1 UNK         0.0786 
     94 H94        19.8193  -27.4436  -38.8940 H         1 UNK         0.0786 
     95 H95        23.8439  -27.5950  -41.2899 H         1 UNK         0.3172 
     96 H96        25.7562  -28.2839  -39.2146 H         1 UNK         0.0595 
     97 H97        26.1923  -27.5517  -42.1561 H         1 UNK         0.0839 
     98 H98        27.4088  -27.5548  -40.8890 H         1 UNK         0.0839 
     99 H99        26.0915  -26.3943  -40.8295 H         1 UNK         0.0839 
    100 H100       24.0896  -30.2257  -41.5262 H         1 UNK         0.2998 
    101 H101       25.8097  -32.5125  -41.0791 H         1 UNK         0.0822 
    102 H102       26.9937  -31.4114  -43.0153 H         1 UNK         0.0787 
    103 H103       26.2232  -32.8965  -43.5388 H         1 UNK         0.0787 
    104 H104       25.4799  -31.3479  -43.9153 H         1 UNK         0.0787 
    105 H105       24.8869  -34.4092  -42.1678 H         1 UNK         0.3055 
    106 H106       23.3951  -35.8987  -42.7009 H         1 UNK         0.1106 
    107 H107       21.5759  -33.6854  -43.7665 H         1 UNK         0.0828 
    108 H108       21.5285  -35.3859  -44.1838 H         1 UNK         0.0828 
    109 H109       22.9075  -34.4112  -44.6677 H         1 UNK         0.0828 
    110 H110       21.4927  -33.1858  -41.2955 H         1 UNK         0.2931 
    111 H111       19.6075  -35.0633  -40.0861 H         1 UNK         0.0412 
    112 H112       22.6490  -34.0516  -38.9561 H         1 UNK         0.3472 
    113 H113       22.3213  -34.2919  -37.2566 H         1 UNK         0.3472 
    114 H114       18.3169  -33.1090  -39.3912 H         1 UNK         0.0970 
    115 H115       18.6927  -33.0665  -41.0884 H         1 UNK         0.0970 
    116 H116       17.6131  -30.5996  -40.3747 H         1 UNK         0.0612 
    117 H117       18.7416  -29.2698  -40.4346 H         1 UNK         0.0612 
@<TRIPOS>BOND
     1    1    2 1    
     2    1   62 1    
     3    1   63 1    
     4    1   64 1    
     5    2    3 2    
     6    2    4 am   BACKBONE|DICT|INTERRES
     7    4    5 1    
     8    4   65 1    
     9    5    6 1    
    10    5   25 1    
    11    5   66 1    
    12    6    7 1    
    13    6   67 1    
    14    6   68 1    
    15    7    8 1    
    16    8    9 1    
    17    8   69 1    
    18    8   70 1    
    19    9   10 ar   
    20    9   14 ar   
    21   10   11 ar   
    22   10   71 1    
    23   11   12 ar   
    24   11   61 1    
    25   12   13 ar   
    26   12   72 1    
    27   13   14 ar   
    28   13   15 1    
    29   14   73 1    
    30   15   16 1    
    31   15   74 1    
    32   15   75 1    
    33   16   17 1    
    34   17   18 1    
    35   17   76 1    
    36   17   77 1    
    37   18   19 1    
    38   18   27 1    
    39   18   78 1    
    40   19   20 am   BACKBONE|DICT|INTERRES
    41   19   79 1    
    42   20   21 2    
    43   20   22 1    
    44   22   23 1    
    45   22   24 1    
    46   22   80 1    
    47   23   81 1    
    48   23   82 1    
    49   23   83 1    
    50   24   25 am   BACKBONE|DICT|INTERRES
    51   24   84 1    
    52   25   26 2    
    53   27   28 2    
    54   27   29 am   BACKBONE|DICT|INTERRES
    55   29   30 1    
    56   29   85 1    
    57   30   31 1    
    58   30   32 1    
    59   30   86 1    
    60   31   87 1    
    61   31   88 1    
    62   31   89 1    
    63   32   33 2    
    64   32   34 am   BACKBONE|DICT|INTERRES
    65   34   35 1    
    66   34   90 1    
    67   35   36 1    
    68   35   37 1    
    69   35   91 1    
    70   36   92 1    
    71   36   93 1    
    72   36   94 1    
    73   37   38 2    
    74   37   39 am   BACKBONE|DICT|INTERRES
    75   39   40 1    
    76   39   95 1    
    77   40   41 1    
    78   40   42 1    
    79   40   96 1    
    80   41   97 1    
    81   41   98 1    
    82   41   99 1    
    83   42   43 2    
    84   42   44 am   BACKBONE|DICT|INTERRES
    85   44   45 1    
    86   44  100 1    
    87   45   46 1    
    88   45   47 1    
    89   45  101 1    
    90   46  102 1    
    91   46  103 1    
    92   46  104 1    
    93   47   48 2    
    94   47   49 am   BACKBONE|DICT|INTERRES
    95   49   50 1    
    96   49  105 1    
    97   50   51 1    
    98   50   52 1    
    99   50  106 1    
   100   51  107 1    
   101   51  108 1    
   102   51  109 1    
   103   52   53 2    
   104   52   54 am   BACKBONE|DICT|INTERRES
   105   54   55 1    
   106   54  110 1    
   107   55   56 1    
   108   55   59 1    
   109   55  111 1    
   110   56   57 am   BACKBONE|DICT|INTERRES
   111   56   58 2    
   112   57  112 1    
   113   57  113 1    
   114   59   60 1    
   115   59  114 1    
   116   59  115 1    
   117   60   61 1    
   118   61  116 1    
   119   61  117 1    
@<TRIPOS>SUBSTRUCTURE
     1 UNK         1 GROUP             0       ****    0 ROOT    
