@<TRIPOS>MOLECULE
3R8
117   119    1
SMALL
USER_CHARGES


@<TRIPOS>ATOM
      1 CA         20.3560  -23.4113  -40.9625 C.3       0 UNK        -0.2013 
      2 C          19.8866  -23.6037  -42.3975 C.2       0 UNK         0.4866 
      3 O          20.1254  -22.7395  -43.2417 O.2       0 UNK        -0.5176 
      4 N          19.2132  -24.7276  -42.6747 N.am      1 UNK        -0.4884 
      5 CA         18.7258  -25.1295  -44.0000 C.3       1 UNK         0.0853 
      6 C6         17.8179  -26.3870  -43.9298 C.3       10 UNK        -0.0849 
      7 S7         16.5335  -26.3101  -42.6328 S.3       10 UNK        -0.2776 
      8 C8         15.3879  -27.6337  -43.1481 C.3       10 UNK         0.0316 
      9 C9         16.1004  -28.9513  -43.4282 C.ar      10 UNK        -0.0863 
     10 C10        16.6652  -29.6930  -42.3846 C.ar      10 UNK        -0.1009 
     11 C11        17.3508  -30.8868  -42.6390 C.ar      10 UNK        -0.0712 
     12 C12        17.4278  -31.3500  -43.9592 C.ar      10 UNK        -0.0894 
     13 C13        16.8858  -30.6091  -45.0122 C.ar      10 UNK        -0.0745 
     14 C14        16.2132  -29.4165  -44.7411 C.ar      10 UNK        -0.0972 
     15 C15        17.0854  -31.0723  -46.4481 C.3       10 UNK         0.0209 
     16 S16        18.3517  -30.0821  -47.3122 S.3       10 UNK        -0.2568 
     17 C17        19.7744  -30.2021  -46.1699 C.3       10 UNK        -0.0983 
     18 CA         20.9629  -29.2853  -46.5515 C.3       3 UNK         0.0876 
     19 N          20.5195  -27.9042  -46.7710 N.am      3 UNK        -0.4424 
     20 C          21.1990  -26.9430  -47.4083 C.2       2 UNK         0.4918 
     21 O          22.2756  -27.1280  -47.9751 O.2       2 UNK        -0.4875 
     22 CA         20.5961  -25.5227  -47.3708 C.3       2 UNK         0.0481 
     23 CB         19.9202  -25.1985  -48.7126 C.3       2 UNK        -0.1831 
     24 N          19.6400  -25.2778  -46.2780 N.am      2 UNK        -0.4498 
     25 C          19.8973  -25.4056  -44.9667 C.2       1 UNK         0.5027 
     26 O          20.9758  -25.8078  -44.5185 O.2       1 UNK        -0.4969 
     27 C          22.0776  -29.4045  -45.4799 C.2       3 UNK         0.5005 
     28 O          22.5566  -30.5155  -45.2520 O.2       3 UNK        -0.5279 
     29 N          22.4488  -28.2866  -44.8323 N.am      4 UNK        -0.4463 
     30 CA         23.4015  -28.1421  -43.7272 C.3       4 UNK         0.0283 
     31 CB         24.7858  -28.7452  -44.0513 C.3       4 UNK        -0.1875 
     32 C          22.8113  -28.6459  -42.4025 C.2       4 UNK         0.4949 
     33 O          23.4396  -29.4390  -41.7002 O.2       4 UNK        -0.5039 
     34 N          21.6170  -28.1448  -42.0518 N.am      5 UNK        -0.4663 
     35 CA         20.9195  -28.4616  -40.7947 C.3       5 UNK         0.0242 
     36 CB         19.5193  -27.8374  -40.7998 C.3       5 UNK        -0.1982 
     37 C          21.6893  -28.0481  -39.5265 C.2       5 UNK         0.5017 
     38 O          21.5042  -28.6719  -38.4824 O.2       5 UNK        -0.5012 
     39 N          22.5869  -27.0594  -39.6521 N.am      6 UNK        -0.4439 
     40 CA         23.5579  -26.6641  -38.6258 C.3       6 UNK         0.0297 
     41 CB         24.2708  -25.3790  -39.0766 C.3       6 UNK        -0.2006 
     42 C          24.5885  -27.7639  -38.2916 C.2       6 UNK         0.4892 
     43 O          25.1274  -27.7613  -37.1850 O.2       6 UNK        -0.5089 
     44 N          24.8197  -28.6911  -39.2321 N.am      7 UNK        -0.4243 
     45 CA         25.6325  -29.8981  -39.0696 C.3       7 UNK         0.0196 
     46 CB         26.6065  -29.9978  -40.2585 C.3       7 UNK        -0.2007 
     47 C          24.7416  -31.1527  -38.9560 C.2       7 UNK         0.5020 
     48 O          25.2094  -32.2565  -39.2379 O.2       7 UNK        -0.5147 
     49 N          23.4691  -30.9651  -38.5686 N.am      8 UNK        -0.4734 
     50 CA         22.4126  -31.9749  -38.4166 C.3       8 UNK         0.0238 
     51 CB         22.7694  -32.9838  -37.3032 C.3       8 UNK        -0.1912 
     52 C          21.9986  -32.6623  -39.7343 C.2       8 UNK         0.5038 
     53 O          21.4528  -33.7649  -39.6822 O.2       8 UNK        -0.5046 
     54 N          22.2569  -31.9990  -40.8728 N.am      9 UNK        -0.4200 
     55 CA         21.9615  -32.4134  -42.2561 C.3       9 UNK         0.0839 
     56 C          22.4793  -33.8189  -42.6895 C.2       9 UNK         0.5513 
     57 N          23.5142  -34.3550  -42.0528 N.am      9 UNK        -0.7519 
     58 O          21.9730  -34.4161  -43.6364 O.2       9 UNK        -0.4960 
     59 C59        20.5161  -32.0650  -42.7227 C.3       10 UNK        -0.0876 
     60 S60        19.1597  -32.9727  -41.8977 S.3       10 UNK        -0.2414 
     61 C61        17.9970  -31.6271  -41.4624 C.3       10 UNK         0.0169 
     62 H62        20.0481  -24.2329  -40.3162 H         1 UNK         0.0903 
     63 H63        21.4431  -23.3442  -40.9303 H         1 UNK         0.0903 
     64 H64        19.9455  -22.4881  -40.5543 H         1 UNK         0.0903 
     65 H65        19.0011  -25.3764  -41.9324 H         1 UNK         0.3096 
     66 H66        18.1424  -24.2958  -44.3971 H         1 UNK         0.1121 
     67 H67        18.4125  -27.2852  -43.7519 H         1 UNK         0.0849 
     68 H68        17.3224  -26.5414  -44.8904 H         1 UNK         0.0849 
     69 H69        14.6450  -27.7850  -42.3637 H         1 UNK         0.0865 
     70 H70        14.8353  -27.2990  -44.0274 H         1 UNK         0.0865 
     71 H71        16.5906  -29.3229  -41.3709 H         1 UNK         0.1346 
     72 H72        17.9428  -32.2708  -44.1891 H         1 UNK         0.1412 
     73 H73        15.8020  -28.8400  -45.5588 H         1 UNK         0.1426 
     74 H74        16.1423  -30.9978  -46.9913 H         1 UNK         0.0716 
     75 H75        17.3747  -32.1239  -46.4790 H         1 UNK         0.0716 
     76 H76        20.0886  -31.2470  -46.1339 H         1 UNK         0.0695 
     77 H77        19.4401  -29.9438  -45.1645 H         1 UNK         0.0695 
     78 H78        21.3877  -29.6517  -47.4885 H         1 UNK         0.0983 
     79 H79        19.6214  -27.6681  -46.3783 H         1 UNK         0.3095 
     80 H80        21.4269  -24.8279  -47.2325 H         1 UNK         0.0454 
     81 H81        20.6131  -25.3386  -49.5437 H         1 UNK         0.0851 
     82 H82        19.5827  -24.1627  -48.7494 H         1 UNK         0.0851 
     83 H83        19.0584  -25.8414  -48.8967 H         1 UNK         0.0851 
     84 H84        18.7222  -24.9628  -46.5599 H         1 UNK         0.2976 
     85 H85        21.9527  -27.4305  -45.0626 H         1 UNK         0.3116 
     86 H86        23.5456  -27.0678  -43.6025 H         1 UNK         0.0646 
     87 H87        25.5133  -28.4731  -43.2857 H         1 UNK         0.0847 
     88 H88        24.7612  -29.8344  -44.0918 H         1 UNK         0.0847 
     89 H89        25.1661  -28.3803  -45.0051 H         1 UNK         0.0847 
     90 H90        21.1727  -27.4848  -42.6762 H         1 UNK         0.3040 
     91 H91        20.8005  -29.5452  -40.7487 H         1 UNK         0.1015 
     92 H92        18.9568  -28.1365  -39.9141 H         1 UNK         0.0786 
     93 H93        18.9464  -28.1636  -41.6657 H         1 UNK         0.0786 
     94 H94        19.5623  -26.7499  -40.8020 H         1 UNK         0.0786 
     95 H95        22.6623  -26.6036  -40.5496 H         1 UNK         0.3172 
     96 H96        23.0041  -26.4457  -37.7103 H         1 UNK         0.0595 
     97 H97        24.8309  -25.5290  -40.0005 H         1 UNK         0.0839 
     98 H98        24.9791  -25.0405  -38.3189 H         1 UNK         0.0839 
     99 H99        23.5623  -24.5665  -39.2392 H         1 UNK         0.0839 
    100 H100       24.3064  -28.6422  -40.1067 H         1 UNK         0.2998 
    101 H101       26.2199  -29.8396  -38.1511 H         1 UNK         0.0822 
    102 H102       27.2873  -30.8418  -40.1401 H         1 UNK         0.0787 
    103 H103       26.0767  -30.1353  -41.2021 H         1 UNK         0.0787 
    104 H104       27.2189  -29.1002  -40.3455 H         1 UNK         0.0787 
    105 H105       23.1695  -30.0151  -38.3797 H         1 UNK         0.3055 
    106 H106       21.5264  -31.4303  -38.0863 H         1 UNK         0.1106 
    107 H107       23.0456  -32.4753  -36.3796 H         1 UNK         0.0828 
    108 H108       21.9211  -33.6295  -37.0724 H         1 UNK         0.0828 
    109 H109       23.5980  -33.6309  -37.5919 H         1 UNK         0.0828 
    110 H110       22.7605  -31.1216  -40.8074 H         1 UNK         0.2931 
    111 H111       22.6020  -31.7549  -42.8423 H         1 UNK         0.0412 
    112 H112       23.8587  -35.2579  -42.3388 H         1 UNK         0.3472 
    113 H113       23.9399  -33.8719  -41.2761 H         1 UNK         0.3472 
    114 H114       20.3522  -30.9942  -42.6009 H         1 UNK         0.0970 
    115 H115       20.4280  -32.2370  -43.7965 H         1 UNK         0.0970 
    116 H116       18.5245  -30.9119  -40.8294 H         1 UNK         0.0612 
    117 H117       17.2022  -32.0536  -40.8494 H         1 UNK         0.0612 
@<TRIPOS>BOND
     1    1    2 1    
     2    1   62 1    
     3    1   63 1    
     4    1   64 1    
     5    2    3 2    
     6    2    4 am   BACKBONE|DICT|INTERRES
     7    4    5 1    
     8    4   65 1    
     9    5    6 1    
    10    5   25 1    
    11    5   66 1    
    12    6    7 1    
    13    6   67 1    
    14    6   68 1    
    15    7    8 1    
    16    8    9 1    
    17    8   69 1    
    18    8   70 1    
    19    9   10 ar   
    20    9   14 ar   
    21   10   11 ar   
    22   10   71 1    
    23   11   12 ar   
    24   11   61 1    
    25   12   13 ar   
    26   12   72 1    
    27   13   14 ar   
    28   13   15 1    
    29   14   73 1    
    30   15   16 1    
    31   15   74 1    
    32   15   75 1    
    33   16   17 1    
    34   17   18 1    
    35   17   76 1    
    36   17   77 1    
    37   18   19 1    
    38   18   27 1    
    39   18   78 1    
    40   19   20 am   BACKBONE|DICT|INTERRES
    41   19   79 1    
    42   20   21 2    
    43   20   22 1    
    44   22   23 1    
    45   22   24 1    
    46   22   80 1    
    47   23   81 1    
    48   23   82 1    
    49   23   83 1    
    50   24   25 am   BACKBONE|DICT|INTERRES
    51   24   84 1    
    52   25   26 2    
    53   27   28 2    
    54   27   29 am   BACKBONE|DICT|INTERRES
    55   29   30 1    
    56   29   85 1    
    57   30   31 1    
    58   30   32 1    
    59   30   86 1    
    60   31   87 1    
    61   31   88 1    
    62   31   89 1    
    63   32   33 2    
    64   32   34 am   BACKBONE|DICT|INTERRES
    65   34   35 1    
    66   34   90 1    
    67   35   36 1    
    68   35   37 1    
    69   35   91 1    
    70   36   92 1    
    71   36   93 1    
    72   36   94 1    
    73   37   38 2    
    74   37   39 am   BACKBONE|DICT|INTERRES
    75   39   40 1    
    76   39   95 1    
    77   40   41 1    
    78   40   42 1    
    79   40   96 1    
    80   41   97 1    
    81   41   98 1    
    82   41   99 1    
    83   42   43 2    
    84   42   44 am   BACKBONE|DICT|INTERRES
    85   44   45 1    
    86   44  100 1    
    87   45   46 1    
    88   45   47 1    
    89   45  101 1    
    90   46  102 1    
    91   46  103 1    
    92   46  104 1    
    93   47   48 2    
    94   47   49 am   BACKBONE|DICT|INTERRES
    95   49   50 1    
    96   49  105 1    
    97   50   51 1    
    98   50   52 1    
    99   50  106 1    
   100   51  107 1    
   101   51  108 1    
   102   51  109 1    
   103   52   53 2    
   104   52   54 am   BACKBONE|DICT|INTERRES
   105   54   55 1    
   106   54  110 1    
   107   55   56 1    
   108   55   59 1    
   109   55  111 1    
   110   56   57 am   BACKBONE|DICT|INTERRES
   111   56   58 2    
   112   57  112 1    
   113   57  113 1    
   114   59   60 1    
   115   59  114 1    
   116   59  115 1    
   117   60   61 1    
   118   61  116 1    
   119   61  117 1    
@<TRIPOS>SUBSTRUCTURE
     1 UNK         1 GROUP             0       ****    0 ROOT    
