@<TRIPOS>MOLECULE
3R8
117   119    1
SMALL
USER_CHARGES


@<TRIPOS>ATOM
      1 CA         20.9566  -30.8600  -45.3769 C.3       0 UNK        -0.2013 
      2 C          21.3874  -29.9917  -46.5536 C.2       0 UNK         0.4866 
      3 O          22.3676  -30.3216  -47.2175 O.2       0 UNK        -0.5176 
      4 N          20.7044  -28.8804  -46.8586 N.am      1 UNK        -0.4884 
      5 CA         19.5323  -28.3203  -46.1674 C.3       1 UNK         0.0853 
      6 C6         18.2667  -28.3208  -47.0653 C.3       10 UNK        -0.0849 
      7 S7         17.6723  -30.0124  -47.4009 S.3       10 UNK        -0.2776 
      8 C8         16.2807  -30.1497  -46.2286 C.3       10 UNK         0.0316 
      9 C9         16.7330  -30.0283  -44.7787 C.ar      10 UNK        -0.0863 
     10 C10        17.4948  -31.0432  -44.1962 C.ar      10 UNK        -0.1009 
     11 C11        17.9189  -30.9474  -42.8667 C.ar      10 UNK        -0.0712 
     12 C12        17.5767  -29.8155  -42.1188 C.ar      10 UNK        -0.0894 
     13 C13        16.8065  -28.7939  -42.6857 C.ar      10 UNK        -0.0745 
     14 C14        16.3856  -28.9096  -44.0155 C.ar      10 UNK        -0.0972 
     15 C15        16.3919  -27.5858  -41.8531 C.3       10 UNK         0.0209 
     16 S16        16.9696  -26.0196  -42.5853 S.3       10 UNK        -0.2568 
     17 C17        17.9974  -25.3028  -41.2580 C.3       10 UNK        -0.0983 
     18 CA         19.4855  -25.7196  -41.3501 C.3       3 UNK         0.0876 
     19 N          20.0494  -25.4723  -42.6830 N.am      3 UNK        -0.4424 
     20 C          21.3202  -25.6637  -43.0592 C.2       2 UNK         0.4918 
     21 O          22.2186  -26.0213  -42.2980 O.2       2 UNK        -0.4875 
     22 CA         21.6144  -25.5039  -44.5593 C.3       2 UNK         0.0481 
     23 CB         23.1149  -25.3204  -44.8459 C.3       2 UNK        -0.1831 
     24 N          21.1396  -26.6920  -45.2666 N.am      2 UNK        -0.4498 
     25 C          19.8657  -26.9182  -45.6172 C.2       1 UNK         0.5027 
     26 O          18.9798  -26.0706  -45.4980 O.2       1 UNK        -0.4969 
     27 C          20.3068  -25.0464  -40.2295 C.2       3 UNK         0.5005 
     28 O          20.6653  -23.8731  -40.3583 O.2       3 UNK        -0.5279 
     29 N          20.6238  -25.8180  -39.1796 N.am      4 UNK        -0.4463 
     30 CA         21.4935  -25.5078  -38.0334 C.3       4 UNK         0.0283 
     31 CB         20.9718  -24.3002  -37.2302 C.3       4 UNK        -0.1875 
     32 C          22.9893  -25.3410  -38.3738 C.2       4 UNK         0.4949 
     33 O          23.8269  -25.7747  -37.5830 O.2       4 UNK        -0.5039 
     34 N          23.3082  -24.7271  -39.5199 N.am      5 UNK        -0.4663 
     35 CA         24.6719  -24.4743  -39.9920 C.3       5 UNK         0.0242 
     36 CB         24.6332  -23.4408  -41.1296 C.3       5 UNK        -0.1982 
     37 C          25.4023  -25.7514  -40.4394 C.2       5 UNK         0.5017 
     38 O          26.5521  -25.9595  -40.0499 O.2       5 UNK        -0.5012 
     39 N          24.7232  -26.5782  -41.2413 N.am      6 UNK        -0.4439 
     40 CA         25.2138  -27.8427  -41.7829 C.3       6 UNK         0.0297 
     41 CB         26.1790  -27.5981  -42.9608 C.3       6 UNK        -0.2006 
     42 C          24.0033  -28.7062  -42.1584 C.2       6 UNK         0.4892 
     43 O          23.7984  -29.0309  -43.3306 O.2       6 UNK        -0.5089 
     44 N          23.1955  -29.0393  -41.1438 N.am      7 UNK        -0.4243 
     45 CA         21.9900  -29.8627  -41.2490 C.3       7 UNK         0.0196 
     46 CB         21.1028  -29.5949  -40.0199 C.3       7 UNK        -0.2007 
     47 C          22.3435  -31.3535  -41.4097 C.2       7 UNK         0.5020 
     48 O          22.0671  -32.1574  -40.5180 O.2       7 UNK        -0.5147 
     49 N          22.9659  -31.6958  -42.5440 N.am      8 UNK        -0.4734 
     50 CA         23.4801  -33.0233  -42.9039 C.3       8 UNK         0.0238 
     51 CB         24.5041  -32.8550  -44.0427 C.3       8 UNK        -0.1912 
     52 C          22.3862  -34.0632  -43.2384 C.2       8 UNK         0.5038 
     53 O          22.4672  -34.7361  -44.2678 O.2       8 UNK        -0.5046 
     54 N          21.3857  -34.1775  -42.3615 N.am      9 UNK        -0.4200 
     55 CA         20.3451  -35.2117  -42.3740 C.3       9 UNK         0.0839 
     56 C          20.9069  -36.5792  -41.8986 C.2       9 UNK         0.5513 
     57 N          20.3684  -37.6781  -42.4086 N.am      9 UNK        -0.7519 
     58 O          21.7922  -36.6554  -41.0482 O.2       9 UNK        -0.4960 
     59 C59        19.1274  -34.7751  -41.5151 C.3       10 UNK        -0.0876 
     60 S60        17.9790  -33.6929  -42.4286 S.3       10 UNK        -0.2414 
     61 C61        18.7587  -32.0575  -42.2471 C.3       10 UNK         0.0169 
     62 H62        20.9667  -30.2949  -44.4463 H         1 UNK         0.0903 
     63 H63        19.9571  -31.2559  -45.5461 H         1 UNK         0.0903 
     64 H64        21.6297  -31.7086  -45.2609 H         1 UNK         0.0903 
     65 H65        21.0241  -28.3333  -47.6465 H         1 UNK         0.3096 
     66 H66        19.2945  -28.8992  -45.2750 H         1 UNK         0.1121 
     67 H67        18.4721  -27.8266  -48.0163 H         1 UNK         0.0849 
     68 H68        17.4504  -27.7590  -46.6074 H         1 UNK         0.0849 
     69 H69        15.5309  -29.3941  -46.4684 H         1 UNK         0.0865 
     70 H70        15.7933  -31.1153  -46.3710 H         1 UNK         0.0865 
     71 H71        17.7579  -31.9135  -44.7820 H         1 UNK         0.1346 
     72 H72        17.8979  -29.7361  -41.0894 H         1 UNK         0.1412 
     73 H73        15.7879  -28.1219  -44.4542 H         1 UNK         0.1426 
     74 H74        16.7550  -27.6820  -40.8292 H         1 UNK         0.0716 
     75 H75        15.3034  -27.5598  -41.7875 H         1 UNK         0.0716 
     76 H76        17.5754  -25.5725  -40.2880 H         1 UNK         0.0695 
     77 H77        17.9072  -24.2170  -41.3308 H         1 UNK         0.0695 
     78 H78        19.5363  -26.8004  -41.2066 H         1 UNK         0.0983 
     79 H79        19.3748  -25.2391  -43.4009 H         1 UNK         0.3095 
     80 H80        21.0898  -24.6178  -44.9229 H         1 UNK         0.0454 
     81 H81        23.6915  -26.1934  -44.5408 H         1 UNK         0.0851 
     82 H82        23.5140  -24.4590  -44.3095 H         1 UNK         0.0851 
     83 H83        23.2978  -25.1540  -45.9074 H         1 UNK         0.0851 
     84 H84        21.8057  -27.4436  -45.3802 H         1 UNK         0.2976 
     85 H85        20.2756  -26.7660  -39.1817 H         1 UNK         0.3116 
     86 H86        21.4263  -26.3798  -37.3805 H         1 UNK         0.0646 
     87 H87        21.0369  -23.3709  -37.7966 H         1 UNK         0.0847 
     88 H88        21.5545  -24.1610  -36.3186 H         1 UNK         0.0847 
     89 H89        19.9329  -24.4398  -36.9317 H         1 UNK         0.0847 
     90 H90        22.5428  -24.3885  -40.0960 H         1 UNK         0.3040 
     91 H91        25.2411  -24.0452  -39.1641 H         1 UNK         0.1015 
     92 H92        24.0314  -23.7874  -41.9702 H         1 UNK         0.0786 
     93 H93        25.6360  -23.2356  -41.5069 H         1 UNK         0.0786 
     94 H94        24.2152  -22.4934  -40.7887 H         1 UNK         0.0786 
     95 H95        23.7726  -26.3254  -41.5202 H         1 UNK         0.3172 
     96 H96        25.7562  -28.3774  -41.0004 H         1 UNK         0.0595 
     97 H97        25.7084  -27.0258  -43.7591 H         1 UNK         0.0839 
     98 H98        26.5161  -28.5421  -43.3907 H         1 UNK         0.0839 
     99 H99        27.0682  -27.0548  -42.6413 H         1 UNK         0.0839 
    100 H100       23.4529  -28.7376  -40.2151 H         1 UNK         0.2998 
    101 H101       21.4308  -29.5559  -42.1354 H         1 UNK         0.0822 
    102 H102       20.8110  -28.5483  -39.9683 H         1 UNK         0.0787 
    103 H103       20.1868  -30.1839  -40.0579 H         1 UNK         0.0787 
    104 H104       21.6127  -29.8480  -39.0894 H         1 UNK         0.0787 
    105 H105       23.1928  -30.9383  -43.1816 H         1 UNK         0.3055 
    106 H106       24.0161  -33.4173  -42.0374 H         1 UNK         0.1106 
    107 H107       24.9719  -33.8074  -44.2959 H         1 UNK         0.0828 
    108 H108       24.0389  -32.4678  -44.9501 H         1 UNK         0.0828 
    109 H109       25.3047  -32.1713  -43.7595 H         1 UNK         0.0828 
    110 H110       21.4371  -33.5954  -41.5302 H         1 UNK         0.2931 
    111 H111       20.0151  -35.3406  -43.4073 H         1 UNK         0.0412 
    112 H112       20.7067  -38.5780  -42.1041 H         1 UNK         0.3472 
    113 H113       19.6346  -37.6266  -43.0988 H         1 UNK         0.3472 
    114 H114       18.5384  -35.6420  -41.2084 H         1 UNK         0.0970 
    115 H115       19.4434  -34.2938  -40.5876 H         1 UNK         0.0970 
    116 H116       19.7307  -32.0646  -42.7386 H         1 UNK         0.0612 
    117 H117       18.9352  -31.8687  -41.1877 H         1 UNK         0.0612 
@<TRIPOS>BOND
     1    1    2 1    
     2    1   62 1    
     3    1   63 1    
     4    1   64 1    
     5    2    3 2    
     6    2    4 am   BACKBONE|DICT|INTERRES
     7    4    5 1    
     8    4   65 1    
     9    5    6 1    
    10    5   25 1    
    11    5   66 1    
    12    6    7 1    
    13    6   67 1    
    14    6   68 1    
    15    7    8 1    
    16    8    9 1    
    17    8   69 1    
    18    8   70 1    
    19    9   10 ar   
    20    9   14 ar   
    21   10   11 ar   
    22   10   71 1    
    23   11   12 ar   
    24   11   61 1    
    25   12   13 ar   
    26   12   72 1    
    27   13   14 ar   
    28   13   15 1    
    29   14   73 1    
    30   15   16 1    
    31   15   74 1    
    32   15   75 1    
    33   16   17 1    
    34   17   18 1    
    35   17   76 1    
    36   17   77 1    
    37   18   19 1    
    38   18   27 1    
    39   18   78 1    
    40   19   20 am   BACKBONE|DICT|INTERRES
    41   19   79 1    
    42   20   21 2    
    43   20   22 1    
    44   22   23 1    
    45   22   24 1    
    46   22   80 1    
    47   23   81 1    
    48   23   82 1    
    49   23   83 1    
    50   24   25 am   BACKBONE|DICT|INTERRES
    51   24   84 1    
    52   25   26 2    
    53   27   28 2    
    54   27   29 am   BACKBONE|DICT|INTERRES
    55   29   30 1    
    56   29   85 1    
    57   30   31 1    
    58   30   32 1    
    59   30   86 1    
    60   31   87 1    
    61   31   88 1    
    62   31   89 1    
    63   32   33 2    
    64   32   34 am   BACKBONE|DICT|INTERRES
    65   34   35 1    
    66   34   90 1    
    67   35   36 1    
    68   35   37 1    
    69   35   91 1    
    70   36   92 1    
    71   36   93 1    
    72   36   94 1    
    73   37   38 2    
    74   37   39 am   BACKBONE|DICT|INTERRES
    75   39   40 1    
    76   39   95 1    
    77   40   41 1    
    78   40   42 1    
    79   40   96 1    
    80   41   97 1    
    81   41   98 1    
    82   41   99 1    
    83   42   43 2    
    84   42   44 am   BACKBONE|DICT|INTERRES
    85   44   45 1    
    86   44  100 1    
    87   45   46 1    
    88   45   47 1    
    89   45  101 1    
    90   46  102 1    
    91   46  103 1    
    92   46  104 1    
    93   47   48 2    
    94   47   49 am   BACKBONE|DICT|INTERRES
    95   49   50 1    
    96   49  105 1    
    97   50   51 1    
    98   50   52 1    
    99   50  106 1    
   100   51  107 1    
   101   51  108 1    
   102   51  109 1    
   103   52   53 2    
   104   52   54 am   BACKBONE|DICT|INTERRES
   105   54   55 1    
   106   54  110 1    
   107   55   56 1    
   108   55   59 1    
   109   55  111 1    
   110   56   57 am   BACKBONE|DICT|INTERRES
   111   56   58 2    
   112   57  112 1    
   113   57  113 1    
   114   59   60 1    
   115   59  114 1    
   116   59  115 1    
   117   60   61 1    
   118   61  116 1    
   119   61  117 1    
@<TRIPOS>SUBSTRUCTURE
     1 UNK         1 GROUP             0       ****    0 ROOT    
