@<TRIPOS>MOLECULE
3R8
117   119    1
SMALL
USER_CHARGES


@<TRIPOS>ATOM
      1 CA         15.2739  -22.7276  -44.3961 C.3       0 UNK        -0.2013 
      2 C          15.4422  -24.1883  -44.7872 C.2       0 UNK         0.4866 
      3 O          15.3453  -24.5222  -45.9685 O.2       0 UNK        -0.5176 
      4 N          15.6963  -25.0612  -43.8076 N.am      1 UNK        -0.4884 
      5 CA         15.9471  -26.4896  -43.9893 C.3       1 UNK         0.0853 
      6 C6         14.6374  -27.2899  -44.2363 C.3       10 UNK        -0.0849 
      7 S7         14.8244  -28.9853  -44.9042 S.3       10 UNK        -0.2776 
      8 C8         15.7855  -28.7709  -46.4428 C.3       10 UNK         0.0316 
      9 C9         17.2741  -29.0122  -46.2167 C.ar      10 UNK        -0.0863 
     10 C10        17.7316  -30.2843  -45.8562 C.ar      10 UNK        -0.1009 
     11 C11        19.0891  -30.5112  -45.6077 C.ar      10 UNK        -0.0712 
     12 C12        19.9945  -29.4513  -45.7257 C.ar      10 UNK        -0.0894 
     13 C13        19.5543  -28.1806  -46.1083 C.ar      10 UNK        -0.0745 
     14 C14        18.1974  -27.9736  -46.3711 C.ar      10 UNK        -0.0972 
     15 C15        20.5373  -27.0288  -46.2611 C.3       10 UNK         0.0209 
     16 S16        20.4621  -25.8726  -44.8544 S.3       10 UNK        -0.2568 
     17 C17        21.6006  -26.6542  -43.6626 C.3       10 UNK        -0.0983 
     18 CA         21.0860  -26.5623  -42.2012 C.3       3 UNK         0.0876 
     19 N          19.8172  -27.2629  -41.9834 N.am      3 UNK        -0.4424 
     20 C          19.5513  -28.5670  -42.1291 C.2       2 UNK         0.4918 
     21 O          20.3807  -29.4219  -42.4288 O.2       2 UNK        -0.4875 
     22 CA         18.0854  -28.9893  -41.9377 C.3       2 UNK         0.0481 
     23 CB         17.6487  -28.9241  -40.4604 C.3       2 UNK        -0.1831 
     24 N          17.1694  -28.2722  -42.8325 N.am      2 UNK        -0.4498 
     25 C          16.7944  -26.9876  -42.8019 C.2       1 UNK         0.5027 
     26 O          17.1248  -26.1989  -41.9097 O.2       1 UNK        -0.4969 
     27 C          22.1836  -26.9879  -41.2018 C.2       3 UNK         0.5005 
     28 O          22.6558  -28.1277  -41.2294 O.2       3 UNK        -0.5279 
     29 N          22.6498  -26.0348  -40.3803 N.am      4 UNK        -0.4463 
     30 CA         23.7983  -26.2135  -39.4808 C.3       4 UNK         0.0283 
     31 CB         23.9678  -24.9654  -38.6000 C.3       4 UNK        -0.1875 
     32 C          25.1052  -26.5276  -40.2341 C.2       4 UNK         0.4949 
     33 O          25.9108  -27.3207  -39.7489 O.2       4 UNK        -0.5039 
     34 N          25.2546  -25.9580  -41.4394 N.am      5 UNK        -0.4663 
     35 CA         26.3538  -26.2274  -42.3723 C.3       5 UNK         0.0242 
     36 CB         26.3039  -25.1981  -43.5136 C.3       5 UNK        -0.1982 
     37 C          26.3523  -27.6597  -42.9425 C.2       5 UNK         0.5017 
     38 O          27.4107  -28.1380  -43.3518 O.2       5 UNK        -0.5012 
     39 N          25.1842  -28.3191  -42.9467 N.am      6 UNK        -0.4439 
     40 CA         25.0115  -29.7209  -43.3378 C.3       6 UNK         0.0297 
     41 CB         23.7122  -29.8592  -44.1508 C.3       6 UNK        -0.2006 
     42 C          24.9815  -30.6587  -42.1168 C.2       6 UNK         0.4892 
     43 O          24.7448  -31.8527  -42.2988 O.2       6 UNK        -0.5089 
     44 N          25.1883  -30.1118  -40.9064 N.am      7 UNK        -0.4243 
     45 CA         25.1129  -30.7768  -39.6018 C.3       7 UNK         0.0196 
     46 CB         26.2741  -31.7803  -39.4331 C.3       7 UNK        -0.2007 
     47 C          23.7294  -31.4016  -39.3385 C.2       7 UNK         0.5020 
     48 O          23.6503  -32.5448  -38.8855 O.2       7 UNK        -0.5147 
     49 N          22.6627  -30.6510  -39.6602 N.am      8 UNK        -0.4734 
     50 CA         21.2511  -31.0537  -39.5658 C.3       8 UNK         0.0238 
     51 CB         20.8188  -31.2166  -38.0929 C.3       8 UNK        -0.1912 
     52 C          20.9306  -32.2885  -40.4344 C.2       8 UNK         0.5038 
     53 O          20.2095  -33.1868  -39.9959 O.2       8 UNK        -0.5046 
     54 N          21.5127  -32.3079  -41.6395 N.am      9 UNK        -0.4200 
     55 CA         21.4864  -33.3963  -42.6301 C.3       9 UNK         0.0839 
     56 C          22.3113  -34.6576  -42.2297 C.2       9 UNK         0.5513 
     57 N          23.0872  -34.6455  -41.1517 N.am      9 UNK        -0.7519 
     58 O          22.2669  -35.6678  -42.9276 O.2       9 UNK        -0.4960 
     59 C59        20.0603  -33.7725  -43.1384 C.3       10 UNK        -0.0876 
     60 S60        18.9992  -32.3458  -43.5466 S.3       10 UNK        -0.2414 
     61 C61        19.5761  -31.8990  -45.2108 C.3       10 UNK         0.0169 
     62 H62        15.3688  -22.5801  -43.3202 H         1 UNK         0.0903 
     63 H63        16.0296  -22.1175  -44.8907 H         1 UNK         0.0903 
     64 H64        14.2914  -22.3682  -44.7019 H         1 UNK         0.0903 
     65 H65        15.8401  -24.7446  -42.8552 H         1 UNK         0.3096 
     66 H66        16.5840  -26.5713  -44.8650 H         1 UNK         0.1121 
     67 H67        14.0051  -26.7513  -44.9439 H         1 UNK         0.0849 
     68 H68        14.0540  -27.3464  -43.3155 H         1 UNK         0.0849 
     69 H69        15.4247  -29.4875  -47.1823 H         1 UNK         0.0865 
     70 H70        15.5992  -27.7816  -46.8648 H         1 UNK         0.0865 
     71 H71        17.0269  -31.0981  -45.7493 H         1 UNK         0.1346 
     72 H72        21.0425  -29.6160  -45.5187 H         1 UNK         0.1412 
     73 H73        17.8644  -26.9923  -46.6815 H         1 UNK         0.1426 
     74 H74        21.5569  -27.3971  -46.3852 H         1 UNK         0.0716 
     75 H75        20.3033  -26.4796  -47.1741 H         1 UNK         0.0716 
     76 H76        22.5677  -26.1584  -43.7658 H         1 UNK         0.0695 
     77 H77        21.7608  -27.6935  -43.9458 H         1 UNK         0.0695 
     78 H78        20.8637  -25.5116  -42.0076 H         1 UNK         0.0983 
     79 H79        19.0245  -26.6690  -41.7609 H         1 UNK         0.3095 
     80 H80        18.0116  -30.0327  -42.2390 H         1 UNK         0.0454 
     81 H81        16.6145  -29.2464  -40.3403 H         1 UNK         0.0851 
     82 H82        17.7373  -27.9215  -40.0423 H         1 UNK         0.0851 
     83 H83        18.2639  -29.5827  -39.8470 H         1 UNK         0.0851 
     84 H84        16.8500  -28.8170  -43.6250 H         1 UNK         0.2976 
     85 H85        22.2259  -25.1172  -40.3964 H         1 UNK         0.3116 
     86 H86        23.5819  -27.0642  -38.8301 H         1 UNK         0.0646 
     87 H87        23.0787  -24.7806  -37.9965 H         1 UNK         0.0847 
     88 H88        24.8042  -25.0871  -37.9100 H         1 UNK         0.0847 
     89 H89        24.1640  -24.0715  -39.1939 H         1 UNK         0.0847 
     90 H90        24.5456  -25.3093  -41.7497 H         1 UNK         0.3040 
     91 H91        27.2937  -26.0970  -41.8307 H         1 UNK         0.1015 
     92 H92        25.3765  -25.2703  -44.0836 H         1 UNK         0.0786 
     93 H93        27.1282  -25.3499  -44.2126 H         1 UNK         0.0786 
     94 H94        26.3884  -24.1793  -43.1344 H         1 UNK         0.0786 
     95 H95        24.3705  -27.8765  -42.5359 H         1 UNK         0.3172 
     96 H96        25.8414  -30.0372  -43.9728 H         1 UNK         0.0595 
     97 H97        22.8319  -29.6947  -43.5288 H         1 UNK         0.0839 
     98 H98        23.6216  -30.8606  -44.5743 H         1 UNK         0.0839 
     99 H99        23.6809  -29.1532  -44.9807 H         1 UNK         0.0839 
    100 H100       25.3744  -29.1172  -40.8636 H         1 UNK         0.2998 
    101 H101       25.2408  -29.9948  -38.8515 H         1 UNK         0.0822 
    102 H102       26.2904  -32.1918  -38.4232 H         1 UNK         0.0787 
    103 H103       26.1884  -32.6196  -40.1244 H         1 UNK         0.0787 
    104 H104       27.2388  -31.3023  -39.6032 H         1 UNK         0.0787 
    105 H105       22.8225  -29.7476  -40.1024 H         1 UNK         0.3055 
    106 H106       20.6727  -30.2300  -39.9806 H         1 UNK         0.1106 
    107 H107       19.7448  -31.3919  -38.0193 H         1 UNK         0.0828 
    108 H108       21.3177  -32.0595  -37.6140 H         1 UNK         0.0828 
    109 H109       21.0406  -30.3208  -37.5132 H         1 UNK         0.0828 
    110 H110       22.0842  -31.5146  -41.8913 H         1 UNK         0.2931 
    111 H111       22.0253  -32.9844  -43.4837 H         1 UNK         0.0412 
    112 H112       23.6201  -35.4683  -40.9201 H         1 UNK         0.3472 
    113 H113       23.1543  -33.8215  -40.5675 H         1 UNK         0.3472 
    114 H114       19.5386  -34.3589  -42.3801 H         1 UNK         0.0970 
    115 H115       20.1264  -34.4162  -44.0174 H         1 UNK         0.0970 
    116 H116       19.2166  -32.6366  -45.9296 H         1 UNK         0.0612 
    117 H117       20.6659  -31.9397  -45.2376 H         1 UNK         0.0612 
@<TRIPOS>BOND
     1    1    2 1    
     2    1   62 1    
     3    1   63 1    
     4    1   64 1    
     5    2    3 2    
     6    2    4 am   BACKBONE|DICT|INTERRES
     7    4    5 1    
     8    4   65 1    
     9    5    6 1    
    10    5   25 1    
    11    5   66 1    
    12    6    7 1    
    13    6   67 1    
    14    6   68 1    
    15    7    8 1    
    16    8    9 1    
    17    8   69 1    
    18    8   70 1    
    19    9   10 ar   
    20    9   14 ar   
    21   10   11 ar   
    22   10   71 1    
    23   11   12 ar   
    24   11   61 1    
    25   12   13 ar   
    26   12   72 1    
    27   13   14 ar   
    28   13   15 1    
    29   14   73 1    
    30   15   16 1    
    31   15   74 1    
    32   15   75 1    
    33   16   17 1    
    34   17   18 1    
    35   17   76 1    
    36   17   77 1    
    37   18   19 1    
    38   18   27 1    
    39   18   78 1    
    40   19   20 am   BACKBONE|DICT|INTERRES
    41   19   79 1    
    42   20   21 2    
    43   20   22 1    
    44   22   23 1    
    45   22   24 1    
    46   22   80 1    
    47   23   81 1    
    48   23   82 1    
    49   23   83 1    
    50   24   25 am   BACKBONE|DICT|INTERRES
    51   24   84 1    
    52   25   26 2    
    53   27   28 2    
    54   27   29 am   BACKBONE|DICT|INTERRES
    55   29   30 1    
    56   29   85 1    
    57   30   31 1    
    58   30   32 1    
    59   30   86 1    
    60   31   87 1    
    61   31   88 1    
    62   31   89 1    
    63   32   33 2    
    64   32   34 am   BACKBONE|DICT|INTERRES
    65   34   35 1    
    66   34   90 1    
    67   35   36 1    
    68   35   37 1    
    69   35   91 1    
    70   36   92 1    
    71   36   93 1    
    72   36   94 1    
    73   37   38 2    
    74   37   39 am   BACKBONE|DICT|INTERRES
    75   39   40 1    
    76   39   95 1    
    77   40   41 1    
    78   40   42 1    
    79   40   96 1    
    80   41   97 1    
    81   41   98 1    
    82   41   99 1    
    83   42   43 2    
    84   42   44 am   BACKBONE|DICT|INTERRES
    85   44   45 1    
    86   44  100 1    
    87   45   46 1    
    88   45   47 1    
    89   45  101 1    
    90   46  102 1    
    91   46  103 1    
    92   46  104 1    
    93   47   48 2    
    94   47   49 am   BACKBONE|DICT|INTERRES
    95   49   50 1    
    96   49  105 1    
    97   50   51 1    
    98   50   52 1    
    99   50  106 1    
   100   51  107 1    
   101   51  108 1    
   102   51  109 1    
   103   52   53 2    
   104   52   54 am   BACKBONE|DICT|INTERRES
   105   54   55 1    
   106   54  110 1    
   107   55   56 1    
   108   55   59 1    
   109   55  111 1    
   110   56   57 am   BACKBONE|DICT|INTERRES
   111   56   58 2    
   112   57  112 1    
   113   57  113 1    
   114   59   60 1    
   115   59  114 1    
   116   59  115 1    
   117   60   61 1    
   118   61  116 1    
   119   61  117 1    
@<TRIPOS>SUBSTRUCTURE
     1 UNK         1 GROUP             0       ****    0 ROOT    
