@<TRIPOS>MOLECULE
3R8
117   119    1
SMALL
USER_CHARGES


@<TRIPOS>ATOM
      1 CA         17.9128  -24.7916  -39.0146 C.3       0 UNK        -0.2013 
      2 C          18.4199  -25.3825  -40.3220 C.2       0 UNK         0.4866 
      3 O          19.5148  -25.9435  -40.3389 O.2       0 UNK        -0.5176 
      4 N          17.6152  -25.2674  -41.3892 N.am      1 UNK        -0.4884 
      5 CA         17.8618  -25.6870  -42.7801 C.3       1 UNK         0.0853 
      6 C6         18.2736  -27.1752  -42.9539 C.3       10 UNK        -0.0849 
      7 S7         17.0400  -28.3379  -42.2747 S.3       10 UNK        -0.2776 
      8 C8         16.5920  -29.3617  -43.7159 C.3       10 UNK         0.0316 
      9 C9         17.7876  -30.0790  -44.3335 C.ar      10 UNK        -0.0863 
     10 C10        18.5186  -31.0189  -43.5966 C.ar      10 UNK        -0.1009 
     11 C11        19.6182  -31.6769  -44.1671 C.ar      10 UNK        -0.0712 
     12 C12        19.9810  -31.3711  -45.4822 C.ar      10 UNK        -0.0894 
     13 C13        19.2607  -30.4358  -46.2290 C.ar      10 UNK        -0.0745 
     14 C14        18.1575  -29.8020  -45.6529 C.ar      10 UNK        -0.0972 
     15 C15        19.6873  -30.1040  -47.6533 C.3       10 UNK         0.0209 
     16 S16        20.1710  -28.3578  -47.8525 S.3       10 UNK        -0.2568 
     17 C17        21.5006  -28.1880  -46.6128 C.3       10 UNK        -0.0983 
     18 CA         21.9423  -26.7160  -46.4265 C.3       3 UNK         0.0876 
     19 N          20.8144  -25.8546  -46.0652 N.am      3 UNK        -0.4424 
     20 C          20.8140  -24.5166  -46.1115 C.2       2 UNK         0.4918 
     21 O          21.7771  -23.8429  -46.4796 O.2       2 UNK        -0.4875 
     22 CA         19.5086  -23.8050  -45.7101 C.3       2 UNK         0.0481 
     23 CB         18.7092  -23.4181  -46.9651 C.3       2 UNK        -0.1831 
     24 N          18.6579  -24.6140  -44.8298 N.am      2 UNK        -0.4498 
     25 C          18.8496  -24.7489  -43.5094 C.2       1 UNK         0.5027 
     26 O          19.7490  -24.1707  -42.8956 O.2       1 UNK        -0.4969 
     27 C          23.0558  -26.6229  -45.3662 C.2       3 UNK         0.5005 
     28 O          22.7546  -26.5352  -44.1732 O.2       3 UNK        -0.5279 
     29 N          24.3189  -26.6987  -45.8111 N.am      4 UNK        -0.4463 
     30 CA         25.5245  -26.5763  -44.9780 C.3       4 UNK         0.0283 
     31 CB         26.7671  -26.5861  -45.8834 C.3       4 UNK        -0.1875 
     32 C          25.6630  -27.6387  -43.8701 C.2       4 UNK         0.4949 
     33 O          26.3498  -27.3876  -42.8799 O.2       4 UNK        -0.5039 
     34 N          25.0038  -28.7924  -44.0440 N.am      5 UNK        -0.4663 
     35 CA         24.9099  -29.8599  -43.0448 C.3       5 UNK         0.0242 
     36 CB         24.3803  -31.1326  -43.7267 C.3       5 UNK        -0.1982 
     37 C          24.0292  -29.4968  -41.8323 C.2       5 UNK         0.5017 
     38 O          24.2053  -30.1059  -40.7760 O.2       5 UNK        -0.5012 
     39 N          23.1113  -28.5299  -42.0086 N.am      6 UNK        -0.4439 
     40 CA         22.0852  -28.0661  -41.0645 C.3       6 UNK         0.0297 
     41 CB         22.7399  -27.4550  -39.8067 C.3       6 UNK        -0.2006 
     42 C          21.0487  -29.1487  -40.6988 C.2       6 UNK         0.4892 
     43 O          21.1769  -30.3030  -41.1039 O.2       6 UNK        -0.5089 
     44 N          20.0350  -28.7553  -39.9159 N.am      7 UNK        -0.4243 
     45 CA         18.9376  -29.6083  -39.4350 C.3       7 UNK         0.0196 
     46 CB         17.9433  -28.7504  -38.6348 C.3       7 UNK        -0.2007 
     47 C          19.3629  -30.8359  -38.6075 C.2       7 UNK         0.5020 
     48 O          18.5830  -31.7823  -38.4965 O.2       7 UNK        -0.5147 
     49 N          20.5774  -30.8102  -38.0423 N.am      8 UNK        -0.4734 
     50 CA         21.1989  -31.9539  -37.3703 C.3       8 UNK         0.0238 
     51 CB         22.4237  -31.4689  -36.5777 C.3       8 UNK        -0.1912 
     52 C          21.5996  -33.0787  -38.3446 C.2       8 UNK         0.5038 
     53 O          21.6008  -34.2427  -37.9407 O.2       8 UNK        -0.5046 
     54 N          21.9205  -32.7113  -39.5936 N.am      9 UNK        -0.4200 
     55 CA         22.3519  -33.5875  -40.6919 C.3       9 UNK         0.0839 
     56 C          23.6258  -34.4295  -40.3674 C.2       9 UNK         0.5513 
     57 N          23.8749  -35.5235  -41.0764 N.am      9 UNK        -0.7519 
     58 O          24.4346  -34.0701  -39.5138 O.2       9 UNK        -0.4960 
     59 C59        21.1707  -34.4040  -41.3017 C.3       10 UNK        -0.0876 
     60 S60        19.7780  -33.3614  -41.8653 S.3       10 UNK        -0.2414 
     61 C61        20.4821  -32.6869  -43.4097 C.3       10 UNK         0.0169 
     62 H62        18.5802  -23.9976  -38.6808 H         1 UNK         0.0903 
     63 H63        17.8843  -25.5588  -38.2415 H         1 UNK         0.0903 
     64 H64        16.9111  -24.3741  -39.1137 H         1 UNK         0.0903 
     65 H65        16.7372  -24.7836  -41.2614 H         1 UNK         0.3096 
     66 H66        16.8983  -25.5611  -43.2776 H         1 UNK         0.1121 
     67 H67        19.2330  -27.3749  -42.4771 H         1 UNK         0.0849 
     68 H68        18.4233  -27.4016  -44.0101 H         1 UNK         0.0849 
     69 H69        15.8580  -30.1055  -43.4029 H         1 UNK         0.0865 
     70 H70        16.0904  -28.7315  -44.4520 H         1 UNK         0.0865 
     71 H71        18.2337  -31.2165  -42.5732 H         1 UNK         0.1346 
     72 H72        20.8390  -31.8594  -45.9240 H         1 UNK         0.1412 
     73 H73        17.6004  -29.0779  -46.2319 H         1 UNK         0.1426 
     74 H74        20.5190  -30.7358  -47.9691 H         1 UNK         0.0716 
     75 H75        18.8617  -30.3215  -48.3322 H         1 UNK         0.0716 
     76 H76        22.3409  -28.8081  -46.9307 H         1 UNK         0.0695 
     77 H77        21.1555  -28.5969  -45.6610 H         1 UNK         0.0695 
     78 H78        22.3414  -26.3531  -47.3766 H         1 UNK         0.0983 
     79 H79        19.9843  -26.3275  -45.7467 H         1 UNK         0.3095 
     80 H80        19.7809  -22.8844  -45.1894 H         1 UNK         0.0454 
     81 H81        17.8121  -22.8550  -46.7075 H         1 UNK         0.0851 
     82 H82        18.4045  -24.2943  -47.5388 H         1 UNK         0.0851 
     83 H83        19.3046  -22.7878  -47.6273 H         1 UNK         0.0851 
     84 H84        17.8860  -25.0958  -45.2692 H         1 UNK         0.2976 
     85 H85        24.4754  -26.7939  -46.8051 H         1 UNK         0.3116 
     86 H86        25.4748  -25.6053  -44.4808 H         1 UNK         0.0646 
     87 H87        26.7416  -25.7694  -46.6051 H         1 UNK         0.0847 
     88 H88        27.6791  -26.4658  -45.2967 H         1 UNK         0.0847 
     89 H89        26.8577  -27.5224  -46.4355 H         1 UNK         0.0847 
     90 H90        24.4819  -28.9177  -44.8986 H         1 UNK         0.3040 
     91 H91        25.9145  -30.0636  -42.6669 H         1 UNK         0.1015 
     92 H92        23.3759  -30.9870  -44.1267 H         1 UNK         0.0786 
     93 H93        24.3341  -31.9622  -43.0202 H         1 UNK         0.0786 
     94 H94        25.0281  -31.4445  -44.5461 H         1 UNK         0.0786 
     95 H95        23.0817  -28.0661  -42.9116 H         1 UNK         0.3172 
     96 H96        21.5473  -27.2730  -41.5855 H         1 UNK         0.0595 
     97 H97        23.2115  -28.2140  -39.1818 H         1 UNK         0.0839 
     98 H98        22.0047  -26.9367  -39.1903 H         1 UNK         0.0839 
     99 H99        23.5012  -26.7227  -40.0753 H         1 UNK         0.0839 
    100 H100       19.9485  -27.7593  -39.7323 H         1 UNK         0.2998 
    101 H101       18.4264  -29.9994  -40.3160 H         1 UNK         0.0822 
    102 H102       18.4240  -28.2613  -37.7869 H         1 UNK         0.0787 
    103 H103       17.4933  -27.9807  -39.2602 H         1 UNK         0.0787 
    104 H104       17.1257  -29.3574  -38.2433 H         1 UNK         0.0787 
    105 H105       21.1465  -29.9875  -38.1776 H         1 UNK         0.3055 
    106 H106       20.4757  -32.3725  -36.6665 H         1 UNK         0.1106 
    107 H107       22.1464  -30.7226  -35.8330 H         1 UNK         0.0828 
    108 H108       22.8949  -32.2965  -36.0456 H         1 UNK         0.0828 
    109 H109       23.1796  -31.0304  -37.2309 H         1 UNK         0.0828 
    110 H110       21.8301  -31.7345  -39.8531 H         1 UNK         0.2931 
    111 H111       22.6988  -32.8947  -41.4566 H         1 UNK         0.0412 
    112 H112       23.2510  -35.8362  -41.8027 H         1 UNK         0.3472 
    113 H113       24.7111  -36.0508  -40.8772 H         1 UNK         0.3472 
    114 H114       20.7904  -35.1163  -40.5678 H         1 UNK         0.0970 
    115 H115       21.4990  -34.9963  -42.1563 H         1 UNK         0.0970 
    116 H116       21.4262  -32.1951  -43.1789 H         1 UNK         0.0612 
    117 H117       20.7167  -33.5242  -44.0688 H         1 UNK         0.0612 
@<TRIPOS>BOND
     1    1    2 1    
     2    1   62 1    
     3    1   63 1    
     4    1   64 1    
     5    2    3 2    
     6    2    4 am   BACKBONE|DICT|INTERRES
     7    4    5 1    
     8    4   65 1    
     9    5    6 1    
    10    5   25 1    
    11    5   66 1    
    12    6    7 1    
    13    6   67 1    
    14    6   68 1    
    15    7    8 1    
    16    8    9 1    
    17    8   69 1    
    18    8   70 1    
    19    9   10 ar   
    20    9   14 ar   
    21   10   11 ar   
    22   10   71 1    
    23   11   12 ar   
    24   11   61 1    
    25   12   13 ar   
    26   12   72 1    
    27   13   14 ar   
    28   13   15 1    
    29   14   73 1    
    30   15   16 1    
    31   15   74 1    
    32   15   75 1    
    33   16   17 1    
    34   17   18 1    
    35   17   76 1    
    36   17   77 1    
    37   18   19 1    
    38   18   27 1    
    39   18   78 1    
    40   19   20 am   BACKBONE|DICT|INTERRES
    41   19   79 1    
    42   20   21 2    
    43   20   22 1    
    44   22   23 1    
    45   22   24 1    
    46   22   80 1    
    47   23   81 1    
    48   23   82 1    
    49   23   83 1    
    50   24   25 am   BACKBONE|DICT|INTERRES
    51   24   84 1    
    52   25   26 2    
    53   27   28 2    
    54   27   29 am   BACKBONE|DICT|INTERRES
    55   29   30 1    
    56   29   85 1    
    57   30   31 1    
    58   30   32 1    
    59   30   86 1    
    60   31   87 1    
    61   31   88 1    
    62   31   89 1    
    63   32   33 2    
    64   32   34 am   BACKBONE|DICT|INTERRES
    65   34   35 1    
    66   34   90 1    
    67   35   36 1    
    68   35   37 1    
    69   35   91 1    
    70   36   92 1    
    71   36   93 1    
    72   36   94 1    
    73   37   38 2    
    74   37   39 am   BACKBONE|DICT|INTERRES
    75   39   40 1    
    76   39   95 1    
    77   40   41 1    
    78   40   42 1    
    79   40   96 1    
    80   41   97 1    
    81   41   98 1    
    82   41   99 1    
    83   42   43 2    
    84   42   44 am   BACKBONE|DICT|INTERRES
    85   44   45 1    
    86   44  100 1    
    87   45   46 1    
    88   45   47 1    
    89   45  101 1    
    90   46  102 1    
    91   46  103 1    
    92   46  104 1    
    93   47   48 2    
    94   47   49 am   BACKBONE|DICT|INTERRES
    95   49   50 1    
    96   49  105 1    
    97   50   51 1    
    98   50   52 1    
    99   50  106 1    
   100   51  107 1    
   101   51  108 1    
   102   51  109 1    
   103   52   53 2    
   104   52   54 am   BACKBONE|DICT|INTERRES
   105   54   55 1    
   106   54  110 1    
   107   55   56 1    
   108   55   59 1    
   109   55  111 1    
   110   56   57 am   BACKBONE|DICT|INTERRES
   111   56   58 2    
   112   57  112 1    
   113   57  113 1    
   114   59   60 1    
   115   59  114 1    
   116   59  115 1    
   117   60   61 1    
   118   61  116 1    
   119   61  117 1    
@<TRIPOS>SUBSTRUCTURE
     1 UNK         1 GROUP             0       ****    0 ROOT    
