@<TRIPOS>MOLECULE
3R8
117   119    1
SMALL
USER_CHARGES


@<TRIPOS>ATOM
      1 CA         12.1040  -26.1687  -45.3371 C.3       0 UNK        -0.2013 
      2 C          12.3646  -26.2751  -43.8370 C.2       0 UNK         0.4866 
      3 O          11.4398  -26.0922  -43.0475 O.2       0 UNK        -0.5176 
      4 N          13.5942  -26.5601  -43.3944 N.am      1 UNK        -0.4884 
      5 CA         14.8031  -26.7570  -44.1936 C.3       1 UNK         0.0853 
      6 C6         14.9054  -28.2027  -44.7512 C.3       10 UNK        -0.0849 
      7 S7         15.6670  -28.2384  -46.4062 S.3       10 UNK        -0.2776 
      8 C8         15.9945  -30.0182  -46.6102 C.3       10 UNK         0.0316 
      9 C9         17.2386  -30.4490  -45.8483 C.ar      10 UNK        -0.0863 
     10 C10        17.1310  -31.0244  -44.5787 C.ar      10 UNK        -0.1009 
     11 C11        18.2768  -31.3921  -43.8678 C.ar      10 UNK        -0.0712 
     12 C12        19.5356  -31.2116  -44.4493 C.ar      10 UNK        -0.0894 
     13 C13        19.6555  -30.6476  -45.7220 C.ar      10 UNK        -0.0745 
     14 C14        18.5031  -30.2685  -46.4165 C.ar      10 UNK        -0.0972 
     15 C15        21.0258  -30.4566  -46.3553 C.3       10 UNK         0.0209 
     16 S16        21.5196  -28.7058  -46.4013 S.3       10 UNK        -0.2568 
     17 C17        22.0053  -28.4075  -44.6717 C.3       10 UNK        -0.0983 
     18 CA         21.9687  -26.8914  -44.3140 C.3       3 UNK         0.0876 
     19 N          20.7256  -26.5135  -43.6440 N.am      3 UNK        -0.4424 
     20 C          19.5778  -26.1912  -44.2430 C.2       2 UNK         0.4918 
     21 O          19.4085  -26.1623  -45.4640 O.2       2 UNK        -0.4875 
     22 CA         18.4257  -25.7936  -43.3156 C.3       2 UNK         0.0481 
     23 CB         18.4739  -24.2907  -42.9871 C.3       2 UNK        -0.1831 
     24 N          17.1598  -26.1301  -43.9596 N.am      2 UNK        -0.4498 
     25 C          16.0151  -26.3864  -43.3196 C.2       1 UNK         0.5027 
     26 O          15.8918  -26.3465  -42.0912 O.2       1 UNK        -0.4969 
     27 C          23.1472  -26.4709  -43.4144 C.2       3 UNK         0.5005 
     28 O          22.9372  -25.9636  -42.3081 O.2       3 UNK        -0.5279 
     29 N          24.3751  -26.6904  -43.9046 N.am      4 UNK        -0.4463 
     30 CA         25.6192  -26.5274  -43.1472 C.3       4 UNK         0.0283 
     31 CB         26.8106  -26.7111  -44.1021 C.3       4 UNK        -0.1875 
     32 C          25.7152  -27.5249  -41.9785 C.2       4 UNK         0.4949 
     33 O          25.0955  -28.5884  -42.0273 O.2       4 UNK        -0.5039 
     34 N          26.5336  -27.1847  -40.9736 N.am      5 UNK        -0.4663 
     35 CA         26.7127  -27.9230  -39.7127 C.3       5 UNK         0.0242 
     36 CB         27.6382  -27.1089  -38.7924 C.3       5 UNK        -0.1982 
     37 C          27.2198  -29.3751  -39.8400 C.2       5 UNK         0.5017 
     38 O          27.1634  -30.1165  -38.8581 O.2       5 UNK        -0.5012 
     39 N          27.6954  -29.7622  -41.0312 N.am      6 UNK        -0.4439 
     40 CA         28.0125  -31.1435  -41.3988 C.3       6 UNK         0.0297 
     41 CB         28.8029  -31.1439  -42.7173 C.3       6 UNK        -0.2006 
     42 C          26.7638  -32.0418  -41.5197 C.2       6 UNK         0.4892 
     43 O          26.8907  -33.2572  -41.3639 O.2       6 UNK        -0.5089 
     44 N          25.5954  -31.4438  -41.7918 N.am      7 UNK        -0.4243 
     45 CA         24.2960  -32.1110  -41.8316 C.3       7 UNK         0.0196 
     46 CB         23.5085  -31.5809  -43.0409 C.3       7 UNK        -0.2007 
     47 C          23.5248  -31.8196  -40.5369 C.2       7 UNK         0.5020 
     48 O          23.8056  -30.8320  -39.8544 O.2       7 UNK        -0.5147 
     49 N          22.5195  -32.6564  -40.2465 N.am      8 UNK        -0.4734 
     50 CA         21.6590  -32.5529  -39.0588 C.3       8 UNK         0.0238 
     51 CB         20.7243  -33.7726  -39.0035 C.3       8 UNK        -0.1912 
     52 C          20.8407  -31.2499  -38.9743 C.2       8 UNK         0.5038 
     53 O          20.5297  -30.8080  -37.8674 O.2       8 UNK        -0.5046 
     54 N          20.5229  -30.6664  -40.1356 N.am      9 UNK        -0.4200 
     55 CA         19.8417  -29.3707  -40.2749 C.3       9 UNK         0.0839 
     56 C          20.8262  -28.1794  -40.4601 C.2       9 UNK         0.5513 
     57 N          22.1388  -28.3670  -40.4064 N.am      9 UNK        -0.7519 
     58 O          20.3879  -27.0542  -40.6814 O.2       9 UNK        -0.4960 
     59 C59        18.7848  -29.3895  -41.4113 C.3       10 UNK        -0.0876 
     60 S60        17.5523  -30.7307  -41.2614 S.3       10 UNK        -0.2414 
     61 C61        18.1578  -31.9636  -42.4616 C.3       10 UNK         0.0169 
     62 H62        12.5335  -27.0073  -45.8831 H         1 UNK         0.0903 
     63 H63        11.0328  -26.1621  -45.5380 H         1 UNK         0.0903 
     64 H64        12.5231  -25.2436  -45.7316 H         1 UNK         0.0903 
     65 H65        13.7783  -26.5744  -42.3977 H         1 UNK         0.3096 
     66 H66        14.7810  -26.0362  -45.0140 H         1 UNK         0.1121 
     67 H67        15.4527  -28.8539  -44.0678 H         1 UNK         0.0849 
     68 H68        13.9175  -28.6555  -44.8473 H         1 UNK         0.0849 
     69 H69        15.1245  -30.5948  -46.2918 H         1 UNK         0.0865 
     70 H70        16.1260  -30.2324  -47.6720 H         1 UNK         0.0865 
     71 H71        16.1576  -31.1662  -44.1293 H         1 UNK         0.1346 
     72 H72        20.4239  -31.4989  -43.9062 H         1 UNK         0.1412 
     73 H73        18.5932  -29.8208  -47.3971 H         1 UNK         0.1426 
     74 H74        21.0023  -30.8402  -47.3762 H         1 UNK         0.0716 
     75 H75        21.7871  -31.0355  -45.8298 H         1 UNK         0.0716 
     76 H76        21.3629  -28.9782  -43.9996 H         1 UNK         0.0695 
     77 H77        23.0000  -28.8412  -44.5598 H         1 UNK         0.0695 
     78 H78        22.0679  -26.2894  -45.2203 H         1 UNK         0.0983 
     79 H79        20.8042  -26.4487  -42.6316 H         1 UNK         0.3095 
     80 H80        18.5157  -26.3635  -42.3907 H         1 UNK         0.0454 
     81 H81        19.4189  -24.0255  -42.5112 H         1 UNK         0.0851 
     82 H82        18.3759  -23.6795  -43.8850 H         1 UNK         0.0851 
     83 H83        17.6772  -24.0073  -42.2994 H         1 UNK         0.0851 
     84 H84        17.2183  -26.2471  -44.9649 H         1 UNK         0.2976 
     85 H85        24.4596  -27.1229  -44.8132 H         1 UNK         0.3116 
     86 H86        25.6402  -25.5133  -42.7425 H         1 UNK         0.0646 
     87 H87        27.7585  -26.5553  -43.5854 H         1 UNK         0.0847 
     88 H88        26.7746  -25.9964  -44.9246 H         1 UNK         0.0847 
     89 H89        26.8348  -27.7144  -44.5301 H         1 UNK         0.0847 
     90 H90        27.0248  -26.3042  -41.0400 H         1 UNK         0.3040 
     91 H91        25.7302  -27.9878  -39.2392 H         1 UNK         0.1015 
     92 H92        28.6306  -26.9850  -39.2276 H         1 UNK         0.0786 
     93 H93        27.2304  -26.1176  -38.5934 H         1 UNK         0.0786 
     94 H94        27.7653  -27.6014  -37.8271 H         1 UNK         0.0786 
     95 H95        27.7022  -29.0775  -41.7726 H         1 UNK         0.3172 
     96 H96        28.6489  -31.5653  -40.6180 H         1 UNK         0.0595 
     97 H97        29.7258  -30.5704  -42.6286 H         1 UNK         0.0839 
     98 H98        28.2209  -30.7223  -43.5381 H         1 UNK         0.0839 
     99 H99        29.0811  -32.1591  -43.0041 H         1 UNK         0.0839 
    100 H100       25.5565  -30.4274  -41.8274 H         1 UNK         0.2998 
    101 H101       24.4246  -33.1904  -41.9358 H         1 UNK         0.0822 
    102 H102       24.0765  -31.6885  -43.9651 H         1 UNK         0.0787 
    103 H103       22.5754  -32.1288  -43.1698 H         1 UNK         0.0787 
    104 H104       23.2598  -30.5259  -42.9215 H         1 UNK         0.0787 
    105 H105       22.3471  -33.4399  -40.8610 H         1 UNK         0.3055 
    106 H106       22.3081  -32.5770  -38.1804 H         1 UNK         0.1106 
    107 H107       20.0642  -33.8163  -39.8708 H         1 UNK         0.0828 
    108 H108       21.2876  -34.7049  -38.9602 H         1 UNK         0.0828 
    109 H109       20.0912  -33.7390  -38.1155 H         1 UNK         0.0828 
    110 H110       20.8477  -31.0949  -40.9876 H         1 UNK         0.2931 
    111 H111       19.3025  -29.1602  -39.3496 H         1 UNK         0.0412 
    112 H112       22.7385  -27.5773  -40.5946 H         1 UNK         0.3472 
    113 H113       22.5506  -29.2707  -40.2044 H         1 UNK         0.3472 
    114 H114       19.2716  -29.4203  -42.3854 H         1 UNK         0.0970 
    115 H115       18.2185  -28.4571  -41.4015 H         1 UNK         0.0970 
    116 H116       17.4685  -32.8088  -42.4753 H         1 UNK         0.0612 
    117 H117       19.1155  -32.3560  -42.1171 H         1 UNK         0.0612 
@<TRIPOS>BOND
     1    1    2 1    
     2    1   62 1    
     3    1   63 1    
     4    1   64 1    
     5    2    3 2    
     6    2    4 am   BACKBONE|DICT|INTERRES
     7    4    5 1    
     8    4   65 1    
     9    5    6 1    
    10    5   25 1    
    11    5   66 1    
    12    6    7 1    
    13    6   67 1    
    14    6   68 1    
    15    7    8 1    
    16    8    9 1    
    17    8   69 1    
    18    8   70 1    
    19    9   10 ar   
    20    9   14 ar   
    21   10   11 ar   
    22   10   71 1    
    23   11   12 ar   
    24   11   61 1    
    25   12   13 ar   
    26   12   72 1    
    27   13   14 ar   
    28   13   15 1    
    29   14   73 1    
    30   15   16 1    
    31   15   74 1    
    32   15   75 1    
    33   16   17 1    
    34   17   18 1    
    35   17   76 1    
    36   17   77 1    
    37   18   19 1    
    38   18   27 1    
    39   18   78 1    
    40   19   20 am   BACKBONE|DICT|INTERRES
    41   19   79 1    
    42   20   21 2    
    43   20   22 1    
    44   22   23 1    
    45   22   24 1    
    46   22   80 1    
    47   23   81 1    
    48   23   82 1    
    49   23   83 1    
    50   24   25 am   BACKBONE|DICT|INTERRES
    51   24   84 1    
    52   25   26 2    
    53   27   28 2    
    54   27   29 am   BACKBONE|DICT|INTERRES
    55   29   30 1    
    56   29   85 1    
    57   30   31 1    
    58   30   32 1    
    59   30   86 1    
    60   31   87 1    
    61   31   88 1    
    62   31   89 1    
    63   32   33 2    
    64   32   34 am   BACKBONE|DICT|INTERRES
    65   34   35 1    
    66   34   90 1    
    67   35   36 1    
    68   35   37 1    
    69   35   91 1    
    70   36   92 1    
    71   36   93 1    
    72   36   94 1    
    73   37   38 2    
    74   37   39 am   BACKBONE|DICT|INTERRES
    75   39   40 1    
    76   39   95 1    
    77   40   41 1    
    78   40   42 1    
    79   40   96 1    
    80   41   97 1    
    81   41   98 1    
    82   41   99 1    
    83   42   43 2    
    84   42   44 am   BACKBONE|DICT|INTERRES
    85   44   45 1    
    86   44  100 1    
    87   45   46 1    
    88   45   47 1    
    89   45  101 1    
    90   46  102 1    
    91   46  103 1    
    92   46  104 1    
    93   47   48 2    
    94   47   49 am   BACKBONE|DICT|INTERRES
    95   49   50 1    
    96   49  105 1    
    97   50   51 1    
    98   50   52 1    
    99   50  106 1    
   100   51  107 1    
   101   51  108 1    
   102   51  109 1    
   103   52   53 2    
   104   52   54 am   BACKBONE|DICT|INTERRES
   105   54   55 1    
   106   54  110 1    
   107   55   56 1    
   108   55   59 1    
   109   55  111 1    
   110   56   57 am   BACKBONE|DICT|INTERRES
   111   56   58 2    
   112   57  112 1    
   113   57  113 1    
   114   59   60 1    
   115   59  114 1    
   116   59  115 1    
   117   60   61 1    
   118   61  116 1    
   119   61  117 1    
@<TRIPOS>SUBSTRUCTURE
     1 UNK         1 GROUP             0       ****    0 ROOT    
