@<TRIPOS>MOLECULE
3R8
117   119    1
SMALL
USER_CHARGES


@<TRIPOS>ATOM
      1 CA         22.5006  -31.0472  -45.7152 C.3       0 UNK        -0.2013 
      2 C          21.4079  -30.0368  -45.4033 C.2       0 UNK         0.4866 
      3 O          21.3695  -29.5065  -44.2916 O.2       0 UNK        -0.5176 
      4 N          20.5266  -29.7600  -46.3755 N.am      1 UNK        -0.4884 
      5 CA         19.3957  -28.8276  -46.2755 C.3       1 UNK         0.0853 
      6 C6         18.2985  -29.1750  -47.3186 C.3       10 UNK        -0.0849 
      7 S7         16.6969  -28.3444  -47.0165 S.3       10 UNK        -0.2776 
      8 C8         15.7801  -29.5836  -46.0422 C.3       10 UNK         0.0316 
      9 C9         16.3950  -29.7808  -44.6646 C.ar      10 UNK        -0.0863 
     10 C10        17.0022  -30.9919  -44.3284 C.ar      10 UNK        -0.1009 
     11 C11        17.6068  -31.1609  -43.0798 C.ar      10 UNK        -0.0712 
     12 C12        17.6023  -30.1021  -42.1644 C.ar      10 UNK        -0.0894 
     13 C13        16.9930  -28.8812  -42.4823 C.ar      10 UNK        -0.0745 
     14 C14        16.3730  -28.7414  -43.7312 C.ar      10 UNK        -0.0972 
     15 C15        17.0033  -27.7435  -41.4569 C.3       10 UNK         0.0209 
     16 S16        16.9987  -26.0717  -42.2020 S.3       10 UNK        -0.2568 
     17 C17        18.1276  -25.1393  -41.1120 C.3       10 UNK        -0.0983 
     18 CA         19.6167  -25.4053  -41.4399 C.3       3 UNK         0.0876 
     19 N          19.9211  -25.2554  -42.8656 N.am      3 UNK        -0.4424 
     20 C          21.0833  -25.5966  -43.4317 C.2       2 UNK         0.4918 
     21 O          22.0671  -25.9884  -42.8026 O.2       2 UNK        -0.4875 
     22 CA         21.0953  -25.6411  -44.9592 C.3       2 UNK         0.0481 
     23 CB         22.4938  -25.4011  -45.5563 C.3       2 UNK        -0.1831 
     24 N          20.6339  -26.9805  -45.2855 N.am      2 UNK        -0.4498 
     25 C          19.8715  -27.3545  -46.3136 C.2       1 UNK         0.5027 
     26 O          19.5677  -26.6083  -47.2463 O.2       1 UNK        -0.4969 
     27 C          20.5598  -24.5667  -40.5541 C.2       3 UNK         0.5005 
     28 O          20.9306  -23.4543  -40.9365 O.2       3 UNK        -0.5279 
     29 N          20.9697  -25.1444  -39.4156 N.am      4 UNK        -0.4463 
     30 CA         21.9798  -24.6710  -38.4556 C.3       4 UNK         0.0283 
     31 CB         21.6300  -23.2839  -37.8809 C.3       4 UNK        -0.1875 
     32 C          23.4303  -24.7098  -38.9791 C.2       4 UNK         0.4949 
     33 O          24.3327  -25.0033  -38.1949 O.2       4 UNK        -0.5039 
     34 N          23.6414  -24.4329  -40.2728 N.am      5 UNK        -0.4663 
     35 CA         24.9408  -24.5165  -40.9452 C.3       5 UNK         0.0242 
     36 CB         24.8805  -23.7535  -42.2790 C.3       5 UNK        -0.1982 
     37 C          25.3891  -25.9716  -41.1633 C.2       5 UNK         0.5017 
     38 O          26.5417  -26.2998  -40.8787 O.2       5 UNK        -0.5012 
     39 N          24.4654  -26.8060  -41.6523 N.am      6 UNK        -0.4439 
     40 CA         24.6240  -28.2400  -41.8628 C.3       6 UNK         0.0297 
     41 CB         24.5035  -28.5512  -43.3678 C.3       6 UNK        -0.2006 
     42 C          23.5891  -28.9592  -40.9857 C.2       6 UNK         0.4892 
     43 O          23.8446  -29.1230  -39.7928 O.2       6 UNK        -0.5089 
     44 N          22.4560  -29.3763  -41.5743 N.am      7 UNK        -0.4243 
     45 CA         21.3205  -30.0743  -40.9498 C.3       7 UNK         0.0196 
     46 CB         20.7043  -29.2371  -39.8085 C.3       7 UNK        -0.2007 
     47 C          21.6121  -31.5171  -40.4925 C.2       7 UNK         0.5020 
     48 O          20.7548  -32.1184  -39.8441 O.2       7 UNK        -0.5147 
     49 N          22.7909  -32.0604  -40.8300 N.am      8 UNK        -0.4734 
     50 CA         23.1862  -33.4370  -40.5176 C.3       8 UNK         0.0238 
     51 CB         24.6979  -33.6105  -40.7427 C.3       8 UNK        -0.1912 
     52 C          22.3774  -34.4558  -41.3345 C.2       8 UNK         0.5038 
     53 O          21.7963  -35.3745  -40.7558 O.2       8 UNK        -0.5046 
     54 N          22.3333  -34.2356  -42.6564 N.am      9 UNK        -0.4200 
     55 CA         21.4979  -34.9533  -43.6355 C.3       9 UNK         0.0839 
     56 C          21.7590  -36.4878  -43.7404 C.2       9 UNK         0.5513 
     57 N          22.9373  -36.9766  -43.3726 N.am      9 UNK        -0.7519 
     58 O          20.9016  -37.2439  -44.1907 O.2       9 UNK        -0.4960 
     59 C59        19.9927  -34.5887  -43.4894 C.3       10 UNK        -0.0876 
     60 S60        19.7091  -32.8083  -43.7705 S.3       10 UNK        -0.2414 
     61 C61        18.2511  -32.4960  -42.7320 C.3       10 UNK         0.0169 
     62 H62        22.3367  -31.5420  -46.6721 H         1 UNK         0.0903 
     63 H63        23.4708  -30.5528  -45.7471 H         1 UNK         0.0903 
     64 H64        22.5312  -31.8129  -44.9411 H         1 UNK         0.0903 
     65 H65        20.6385  -30.2065  -47.2747 H         1 UNK         0.3096 
     66 H66        18.9556  -28.9739  -45.2867 H         1 UNK         0.1121 
     67 H67        18.1227  -30.2520  -47.3258 H         1 UNK         0.0849 
     68 H68        18.6346  -28.9249  -48.3265 H         1 UNK         0.0849 
     69 H69        14.7478  -29.2501  -45.9269 H         1 UNK         0.0865 
     70 H70        15.7369  -30.5234  -46.5950 H         1 UNK         0.0865 
     71 H71        17.0197  -31.8045  -45.0421 H         1 UNK         0.1346 
     72 H72        18.0699  -30.2329  -41.1985 H         1 UNK         0.1412 
     73 H73        15.8879  -27.8132  -43.9991 H         1 UNK         0.1426 
     74 H74        16.1303  -27.8419  -40.8106 H         1 UNK         0.0716 
     75 H75        17.8769  -27.8466  -40.8123 H         1 UNK         0.0716 
     76 H76        17.9053  -25.3911  -40.0732 H         1 UNK         0.0695 
     77 H77        17.8980  -24.0779  -41.2256 H         1 UNK         0.0695 
     78 H78        19.8127  -26.4536  -41.2209 H         1 UNK         0.0983 
     79 H79        19.1496  -24.9739  -43.4522 H         1 UNK         0.3095 
     80 H80        20.4013  -24.8921  -45.3463 H         1 UNK         0.0454 
     81 H81        23.2185  -26.1390  -45.2109 H         1 UNK         0.0851 
     82 H82        22.8708  -24.4168  -45.2772 H         1 UNK         0.0851 
     83 H83        22.4694  -25.4441  -46.6450 H         1 UNK         0.0851 
     84 H84        20.8787  -27.7036  -44.6115 H         1 UNK         0.2976 
     85 H85        20.6067  -26.0634  -39.2042 H         1 UNK         0.3116 
     86 H86        21.9377  -25.3800  -37.6269 H         1 UNK         0.0646 
     87 H87        21.7025  -22.4969  -38.6318 H         1 UNK         0.0847 
     88 H88        22.3128  -23.0178  -37.0730 H         1 UNK         0.0847 
     89 H89        20.6205  -23.2659  -37.4706 H         1 UNK         0.0847 
     90 H90        22.8394  -24.1651  -40.8340 H         1 UNK         0.3040 
     91 H91        25.6865  -24.0319  -40.3106 H         1 UNK         0.1015 
     92 H92        24.1333  -24.1719  -42.9540 H         1 UNK         0.0786 
     93 H93        25.8418  -23.7913  -42.7932 H         1 UNK         0.0786 
     94 H94        24.6380  -22.7022  -42.1227 H         1 UNK         0.0786 
     95 H95        23.5465  -26.4295  -41.8852 H         1 UNK         0.3172 
     96 H96        25.6086  -28.5731  -41.5284 H         1 UNK         0.0595 
     97 H97        23.5895  -28.1447  -43.8004 H         1 UNK         0.0839 
     98 H98        24.5164  -29.6258  -43.5535 H         1 UNK         0.0839 
     99 H99        25.3397  -28.1211  -43.9191 H         1 UNK         0.0839 
    100 H100       22.3373  -29.2145  -42.5711 H         1 UNK         0.2998 
    101 H101       20.5700  -30.1625  -41.7368 H         1 UNK         0.0822 
    102 H102       20.5293  -28.2120  -40.1197 H         1 UNK         0.0787 
    103 H103       19.7463  -29.6497  -39.4906 H         1 UNK         0.0787 
    104 H104       21.3493  -29.2131  -38.9298 H         1 UNK         0.0787 
    105 H105       23.4469  -31.4913  -41.3433 H         1 UNK         0.3055 
    106 H106       22.9766  -33.6204  -39.4610 H         1 UNK         0.1106 
    107 H107       25.0108  -34.6299  -40.5120 H         1 UNK         0.0828 
    108 H108       24.9873  -33.4060  -41.7740 H         1 UNK         0.0828 
    109 H109       25.2715  -32.9452  -40.0969 H         1 UNK         0.0828 
    110 H110       22.8539  -33.4539  -43.0225 H         1 UNK         0.2931 
    111 H111       21.8178  -34.5749  -44.6073 H         1 UNK         0.0412 
    112 H112       23.1082  -37.9670  -43.4505 H         1 UNK         0.3472 
    113 H113       23.6525  -36.3671  -43.0092 H         1 UNK         0.3472 
    114 H114       19.3847  -35.1315  -44.2151 H         1 UNK         0.0970 
    115 H115       19.6238  -34.8751  -42.5031 H         1 UNK         0.0970 
    116 H116       17.5209  -33.2928  -42.8809 H         1 UNK         0.0612 
    117 H117       18.5459  -32.5299  -41.6820 H         1 UNK         0.0612 
@<TRIPOS>BOND
     1    1    2 1    
     2    1   62 1    
     3    1   63 1    
     4    1   64 1    
     5    2    3 2    
     6    2    4 am   BACKBONE|DICT|INTERRES
     7    4    5 1    
     8    4   65 1    
     9    5    6 1    
    10    5   25 1    
    11    5   66 1    
    12    6    7 1    
    13    6   67 1    
    14    6   68 1    
    15    7    8 1    
    16    8    9 1    
    17    8   69 1    
    18    8   70 1    
    19    9   10 ar   
    20    9   14 ar   
    21   10   11 ar   
    22   10   71 1    
    23   11   12 ar   
    24   11   61 1    
    25   12   13 ar   
    26   12   72 1    
    27   13   14 ar   
    28   13   15 1    
    29   14   73 1    
    30   15   16 1    
    31   15   74 1    
    32   15   75 1    
    33   16   17 1    
    34   17   18 1    
    35   17   76 1    
    36   17   77 1    
    37   18   19 1    
    38   18   27 1    
    39   18   78 1    
    40   19   20 am   BACKBONE|DICT|INTERRES
    41   19   79 1    
    42   20   21 2    
    43   20   22 1    
    44   22   23 1    
    45   22   24 1    
    46   22   80 1    
    47   23   81 1    
    48   23   82 1    
    49   23   83 1    
    50   24   25 am   BACKBONE|DICT|INTERRES
    51   24   84 1    
    52   25   26 2    
    53   27   28 2    
    54   27   29 am   BACKBONE|DICT|INTERRES
    55   29   30 1    
    56   29   85 1    
    57   30   31 1    
    58   30   32 1    
    59   30   86 1    
    60   31   87 1    
    61   31   88 1    
    62   31   89 1    
    63   32   33 2    
    64   32   34 am   BACKBONE|DICT|INTERRES
    65   34   35 1    
    66   34   90 1    
    67   35   36 1    
    68   35   37 1    
    69   35   91 1    
    70   36   92 1    
    71   36   93 1    
    72   36   94 1    
    73   37   38 2    
    74   37   39 am   BACKBONE|DICT|INTERRES
    75   39   40 1    
    76   39   95 1    
    77   40   41 1    
    78   40   42 1    
    79   40   96 1    
    80   41   97 1    
    81   41   98 1    
    82   41   99 1    
    83   42   43 2    
    84   42   44 am   BACKBONE|DICT|INTERRES
    85   44   45 1    
    86   44  100 1    
    87   45   46 1    
    88   45   47 1    
    89   45  101 1    
    90   46  102 1    
    91   46  103 1    
    92   46  104 1    
    93   47   48 2    
    94   47   49 am   BACKBONE|DICT|INTERRES
    95   49   50 1    
    96   49  105 1    
    97   50   51 1    
    98   50   52 1    
    99   50  106 1    
   100   51  107 1    
   101   51  108 1    
   102   51  109 1    
   103   52   53 2    
   104   52   54 am   BACKBONE|DICT|INTERRES
   105   54   55 1    
   106   54  110 1    
   107   55   56 1    
   108   55   59 1    
   109   55  111 1    
   110   56   57 am   BACKBONE|DICT|INTERRES
   111   56   58 2    
   112   57  112 1    
   113   57  113 1    
   114   59   60 1    
   115   59  114 1    
   116   59  115 1    
   117   60   61 1    
   118   61  116 1    
   119   61  117 1    
@<TRIPOS>SUBSTRUCTURE
     1 UNK         1 GROUP             0       ****    0 ROOT    
