@<TRIPOS>MOLECULE
3R8
117   119    1
SMALL
USER_CHARGES


@<TRIPOS>ATOM
      1 CA         15.5749  -22.4983  -45.1508 C.3       0 UNK        -0.2013 
      2 C          16.7486  -23.1943  -44.4780 C.2       0 UNK         0.4866 
      3 O          17.6004  -22.5233  -43.8955 O.2       0 UNK        -0.5176 
      4 N          16.7966  -24.5318  -44.5635 N.am      1 UNK        -0.4884 
      5 CA         17.8199  -25.4120  -43.9735 C.3       1 UNK         0.0853 
      6 C6         17.8163  -25.4202  -42.4176 C.3       10 UNK        -0.0849 
      7 S7         16.2261  -26.0251  -41.7519 S.3       10 UNK        -0.2776 
      8 C8         16.7157  -27.5514  -40.8700 C.3       10 UNK         0.0316 
      9 C9         17.4433  -28.5789  -41.7364 C.ar      10 UNK        -0.0863 
     10 C10        18.5534  -29.2563  -41.2183 C.ar      10 UNK        -0.1009 
     11 C11        19.2371  -30.2030  -41.9883 C.ar      10 UNK        -0.0712 
     12 C12        18.8034  -30.4633  -43.2907 C.ar      10 UNK        -0.0894 
     13 C13        17.7054  -29.7918  -43.8262 C.ar      10 UNK        -0.0745 
     14 C14        17.0132  -28.8690  -43.0369 C.ar      10 UNK        -0.0972 
     15 C15        17.2729  -30.0594  -45.2583 C.3       10 UNK         0.0209 
     16 S16        17.9417  -28.8082  -46.3998 S.3       10 UNK        -0.2568 
     17 C17        19.5463  -29.5164  -46.9569 C.3       10 UNK        -0.0983 
     18 CA         20.8037  -28.5943  -46.7997 C.3       3 UNK         0.0876 
     19 N          20.4285  -27.1812  -46.7664 N.am      3 UNK        -0.4424 
     20 C          21.1957  -26.0968  -46.9210 C.2       2 UNK         0.4918 
     21 O          22.3852  -26.1365  -47.2380 O.2       2 UNK        -0.4875 
     22 CA         20.5123  -24.7371  -46.6672 C.3       2 UNK         0.0481 
     23 CB         20.2001  -24.0363  -47.9986 C.3       2 UNK        -0.1831 
     24 N          19.2762  -24.8488  -45.8786 N.am      2 UNK        -0.4498 
     25 C          19.2239  -25.1874  -44.5797 C.2       1 UNK         0.5027 
     26 O          20.2280  -25.3596  -43.8909 O.2       1 UNK        -0.4969 
     27 C          21.7223  -28.9661  -45.6105 C.2       3 UNK         0.5005 
     28 O          21.3150  -29.7002  -44.7147 O.2       3 UNK        -0.5279 
     29 N          22.9500  -28.4281  -45.6018 N.am      4 UNK        -0.4463 
     30 CA         24.0342  -28.6113  -44.6211 C.3       4 UNK         0.0283 
     31 CB         24.4024  -30.0989  -44.4483 C.3       4 UNK        -0.1875 
     32 C          23.8023  -27.9333  -43.2551 C.2       4 UNK         0.4949 
     33 O          24.7789  -27.4832  -42.6551 O.2       4 UNK        -0.5039 
     34 N          22.5390  -27.8397  -42.8173 N.am      5 UNK        -0.4663 
     35 CA         22.0376  -27.2190  -41.5826 C.3       5 UNK         0.0242 
     36 CB         22.4900  -25.7445  -41.4771 C.3       5 UNK        -0.1982 
     37 C          22.3955  -28.0043  -40.3062 C.2       5 UNK         0.5017 
     38 O          23.1172  -29.0036  -40.3601 O.2       5 UNK        -0.5012 
     39 N          21.8606  -27.5308  -39.1686 N.am      6 UNK        -0.4439 
     40 CA         22.0415  -28.0628  -37.8118 C.3       6 UNK         0.0297 
     41 CB         23.4666  -27.7463  -37.3008 C.3       6 UNK        -0.2006 
     42 C          21.6590  -29.5535  -37.7349 C.2       6 UNK         0.4892 
     43 O          20.4746  -29.8716  -37.8472 O.2       6 UNK        -0.5089 
     44 N          22.6626  -30.4245  -37.5866 N.am      7 UNK        -0.4243 
     45 CA         22.5543  -31.8778  -37.7048 C.3       7 UNK         0.0196 
     46 CB         22.6610  -32.5088  -36.3044 C.3       7 UNK        -0.2007 
     47 C          23.6192  -32.4325  -38.6700 C.2       7 UNK         0.5020 
     48 O          23.8669  -33.6390  -38.6644 O.2       7 UNK        -0.5147 
     49 N          24.2349  -31.5683  -39.4953 N.am      8 UNK        -0.4734 
     50 CA         25.2946  -31.9382  -40.4455 C.3       8 UNK         0.0238 
     51 CB         26.0103  -30.6678  -40.9307 C.3       8 UNK        -0.1912 
     52 C          24.7866  -32.7730  -41.6351 C.2       8 UNK         0.5038 
     53 O          25.5873  -33.4259  -42.3050 O.2       8 UNK        -0.5046 
     54 N          23.4674  -32.7550  -41.8506 N.am      9 UNK        -0.4200 
     55 CA         22.7231  -33.6456  -42.7474 C.3       9 UNK         0.0839 
     56 C          22.6736  -35.1359  -42.2932 C.2       9 UNK         0.5513 
     57 N          23.0481  -35.4797  -41.0649 N.am      9 UNK        -0.7519 
     58 O          22.2967  -35.9999  -43.0806 O.2       9 UNK        -0.4960 
     59 C59        21.3063  -33.0807  -43.0341 C.3       10 UNK        -0.0876 
     60 S60        20.3467  -32.7250  -41.5136 S.3       10 UNK        -0.2414 
     61 C61        20.4641  -30.9082  -41.4228 C.3       10 UNK         0.0169 
     62 H62        15.9348  -21.8057  -45.9112 H         1 UNK         0.0903 
     63 H63        14.8986  -23.2062  -45.6296 H         1 UNK         0.0903 
     64 H64        15.0050  -21.9308  -44.4155 H         1 UNK         0.0903 
     65 H65        16.0527  -25.0129  -45.0509 H         1 UNK         0.3096 
     66 H66        17.5577  -26.4202  -44.2952 H         1 UNK         0.1121 
     67 H67        18.0075  -24.4212  -42.0235 H         1 UNK         0.0849 
     68 H68        18.6174  -26.0510  -42.0288 H         1 UNK         0.0849 
     69 H69        17.3329  -27.2674  -40.0160 H         1 UNK         0.0865 
     70 H70        15.8205  -28.0183  -40.4574 H         1 UNK         0.0865 
     71 H71        18.8901  -29.0463  -40.2116 H         1 UNK         0.1346 
     72 H72        19.3363  -31.1761  -43.9023 H         1 UNK         0.1412 
     73 H73        16.1520  -28.3588  -43.4462 H         1 UNK         0.1426 
     74 H74        16.1837  -30.0355  -45.3157 H         1 UNK         0.0716 
     75 H75        17.5692  -31.0595  -45.5782 H         1 UNK         0.0716 
     76 H76        19.4159  -29.7305  -48.0186 H         1 UNK         0.0695 
     77 H77        19.6978  -30.4969  -46.5024 H         1 UNK         0.0695 
     78 H78        21.4163  -28.7404  -47.6922 H         1 UNK         0.0983 
     79 H79        19.4620  -27.0306  -46.5163 H         1 UNK         0.3095 
     80 H80        21.2162  -24.1154  -46.1101 H         1 UNK         0.0454 
     81 H81        21.1054  -23.9095  -48.5941 H         1 UNK         0.0851 
     82 H82        19.7808  -23.0433  -47.8362 H         1 UNK         0.0851 
     83 H83        19.4922  -24.6071  -48.6008 H         1 UNK         0.0851 
     84 H84        18.4049  -24.6999  -46.3677 H         1 UNK         0.2976 
     85 H85        23.1382  -27.7389  -46.3246 H         1 UNK         0.3116 
     86 H86        24.8994  -28.1158  -45.0646 H         1 UNK         0.0646 
     87 H87        23.6273  -30.6516  -43.9171 H         1 UNK         0.0847 
     88 H88        24.5638  -30.5856  -45.4098 H         1 UNK         0.0847 
     89 H89        25.3236  -30.2051  -43.8754 H         1 UNK         0.0847 
     90 H90        21.8432  -28.3262  -43.3746 H         1 UNK         0.3040 
     91 H91        20.9503  -27.2362  -41.6750 H         1 UNK         0.1015 
     92 H92        21.8951  -25.1980  -40.7451 H         1 UNK         0.0786 
     93 H93        22.3831  -25.2223  -42.4272 H         1 UNK         0.0786 
     94 H94        23.5340  -25.6614  -41.1726 H         1 UNK         0.0786 
     95 H95        21.2512  -26.7277  -39.2334 H         1 UNK         0.3172 
     96 H96        21.3362  -27.5330  -37.1697 H         1 UNK         0.0595 
     97 H97        24.2435  -28.1770  -37.9338 H         1 UNK         0.0839 
     98 H98        23.6153  -28.1177  -36.2857 H         1 UNK         0.0839 
     99 H99        23.6359  -26.6699  -37.2701 H         1 UNK         0.0839 
    100 H100       23.6002  -30.0577  -37.4986 H         1 UNK         0.2998 
    101 H101       21.5868  -32.1479  -38.1340 H         1 UNK         0.0822 
    102 H102       22.5333  -33.5913  -36.3487 H         1 UNK         0.0787 
    103 H103       23.6312  -32.3112  -35.8472 H         1 UNK         0.0787 
    104 H104       21.8905  -32.1217  -35.6373 H         1 UNK         0.0787 
    105 H105       23.9050  -30.6070  -39.5480 H         1 UNK         0.3055 
    106 H106       26.0230  -32.5560  -39.9153 H         1 UNK         0.1106 
    107 H107       26.4513  -30.1184  -40.0990 H         1 UNK         0.0828 
    108 H108       26.8178  -30.9113  -41.6224 H         1 UNK         0.0828 
    109 H109       25.3285  -29.9944  -41.4492 H         1 UNK         0.0828 
    110 H110       22.9013  -32.1920  -41.2342 H         1 UNK         0.2931 
    111 H111       23.2607  -33.6492  -43.6976 H         1 UNK         0.0412 
    112 H112       23.0119  -36.4501  -40.7956 H         1 UNK         0.3472 
    113 H113       23.3506  -34.7845  -40.3940 H         1 UNK         0.3472 
    114 H114       21.4012  -32.1719  -43.6291 H         1 UNK         0.0970 
    115 H115       20.7315  -33.7688  -43.6567 H         1 UNK         0.0970 
    116 H116       21.3545  -30.5560  -41.9450 H         1 UNK         0.0612 
    117 H117       20.6032  -30.6406  -40.3764 H         1 UNK         0.0612 
@<TRIPOS>BOND
     1    1    2 1    
     2    1   62 1    
     3    1   63 1    
     4    1   64 1    
     5    2    3 2    
     6    2    4 am   BACKBONE|DICT|INTERRES
     7    4    5 1    
     8    4   65 1    
     9    5    6 1    
    10    5   25 1    
    11    5   66 1    
    12    6    7 1    
    13    6   67 1    
    14    6   68 1    
    15    7    8 1    
    16    8    9 1    
    17    8   69 1    
    18    8   70 1    
    19    9   10 ar   
    20    9   14 ar   
    21   10   11 ar   
    22   10   71 1    
    23   11   12 ar   
    24   11   61 1    
    25   12   13 ar   
    26   12   72 1    
    27   13   14 ar   
    28   13   15 1    
    29   14   73 1    
    30   15   16 1    
    31   15   74 1    
    32   15   75 1    
    33   16   17 1    
    34   17   18 1    
    35   17   76 1    
    36   17   77 1    
    37   18   19 1    
    38   18   27 1    
    39   18   78 1    
    40   19   20 am   BACKBONE|DICT|INTERRES
    41   19   79 1    
    42   20   21 2    
    43   20   22 1    
    44   22   23 1    
    45   22   24 1    
    46   22   80 1    
    47   23   81 1    
    48   23   82 1    
    49   23   83 1    
    50   24   25 am   BACKBONE|DICT|INTERRES
    51   24   84 1    
    52   25   26 2    
    53   27   28 2    
    54   27   29 am   BACKBONE|DICT|INTERRES
    55   29   30 1    
    56   29   85 1    
    57   30   31 1    
    58   30   32 1    
    59   30   86 1    
    60   31   87 1    
    61   31   88 1    
    62   31   89 1    
    63   32   33 2    
    64   32   34 am   BACKBONE|DICT|INTERRES
    65   34   35 1    
    66   34   90 1    
    67   35   36 1    
    68   35   37 1    
    69   35   91 1    
    70   36   92 1    
    71   36   93 1    
    72   36   94 1    
    73   37   38 2    
    74   37   39 am   BACKBONE|DICT|INTERRES
    75   39   40 1    
    76   39   95 1    
    77   40   41 1    
    78   40   42 1    
    79   40   96 1    
    80   41   97 1    
    81   41   98 1    
    82   41   99 1    
    83   42   43 2    
    84   42   44 am   BACKBONE|DICT|INTERRES
    85   44   45 1    
    86   44  100 1    
    87   45   46 1    
    88   45   47 1    
    89   45  101 1    
    90   46  102 1    
    91   46  103 1    
    92   46  104 1    
    93   47   48 2    
    94   47   49 am   BACKBONE|DICT|INTERRES
    95   49   50 1    
    96   49  105 1    
    97   50   51 1    
    98   50   52 1    
    99   50  106 1    
   100   51  107 1    
   101   51  108 1    
   102   51  109 1    
   103   52   53 2    
   104   52   54 am   BACKBONE|DICT|INTERRES
   105   54   55 1    
   106   54  110 1    
   107   55   56 1    
   108   55   59 1    
   109   55  111 1    
   110   56   57 am   BACKBONE|DICT|INTERRES
   111   56   58 2    
   112   57  112 1    
   113   57  113 1    
   114   59   60 1    
   115   59  114 1    
   116   59  115 1    
   117   60   61 1    
   118   61  116 1    
   119   61  117 1    
@<TRIPOS>SUBSTRUCTURE
     1 UNK         1 GROUP             0       ****    0 ROOT    
