@<TRIPOS>MOLECULE
3R8
117   119    1
SMALL
USER_CHARGES


@<TRIPOS>ATOM
      1 CA         18.2264  -21.6396  -40.8370 C.3       0 UNK        -0.2013 
      2 C          17.7258  -22.2450  -42.1396 C.2       0 UNK         0.4866 
      3 O          17.3683  -21.5093  -43.0598 O.2       0 UNK        -0.5176 
      4 N          17.6956  -23.5812  -42.2237 N.am      1 UNK        -0.4884 
      5 CA         17.2810  -24.3454  -43.4083 C.3       1 UNK         0.0853 
      6 C6         16.9750  -25.8254  -43.0643 C.3       10 UNK        -0.0849 
      7 S7         18.3113  -26.6556  -42.1338 S.3       10 UNK        -0.2776 
      8 C8         17.5796  -28.2937  -41.8247 C.3       10 UNK         0.0316 
      9 C9         18.1597  -29.3622  -42.7418 C.ar      10 UNK        -0.0863 
     10 C10        18.9639  -30.3776  -42.2159 C.ar      10 UNK        -0.1009 
     11 C11        19.4613  -31.3925  -43.0380 C.ar      10 UNK        -0.0712 
     12 C12        19.1751  -31.3680  -44.4079 C.ar      10 UNK        -0.0894 
     13 C13        18.3736  -30.3572  -44.9487 C.ar      10 UNK        -0.0745 
     14 C14        17.8599  -29.3655  -44.1068 C.ar      10 UNK        -0.0972 
     15 C15        18.0149  -30.3651  -46.4304 C.3       10 UNK         0.0209 
     16 S16        19.3481  -29.7215  -47.4952 S.3       10 UNK        -0.2568 
     17 C17        19.4406  -27.9641  -46.9894 C.3       10 UNK        -0.0983 
     18 CA         20.8475  -27.4306  -46.5929 C.3       3 UNK         0.0876 
     19 N          20.7365  -26.2231  -45.7817 N.am      3 UNK        -0.4424 
     20 C          20.8435  -24.9716  -46.2365 C.2       2 UNK         0.4918 
     21 O          21.0432  -24.6894  -47.4197 O.2       2 UNK        -0.4875 
     22 CA         20.6965  -23.8516  -45.1850 C.3       2 UNK         0.0481 
     23 CB         20.6168  -22.4459  -45.8167 C.3       2 UNK        -0.1831 
     24 N          19.5703  -24.0577  -44.2646 N.am      2 UNK        -0.4498 
     25 C          18.2755  -24.2271  -44.5834 C.2       1 UNK         0.5027 
     26 O          17.8453  -24.2746  -45.7369 O.2       1 UNK        -0.4969 
     27 C          21.7160  -28.4124  -45.7888 C.2       3 UNK         0.5005 
     28 O          21.5323  -28.5263  -44.5744 O.2       3 UNK        -0.5279 
     29 N          22.6513  -29.0853  -46.4787 N.am      4 UNK        -0.4463 
     30 CA         23.6242  -30.0406  -45.9378 C.3       4 UNK         0.0283 
     31 CB         22.9192  -31.3651  -45.5743 C.3       4 UNK        -0.1875 
     32 C          24.4586  -29.4129  -44.8017 C.2       4 UNK         0.4949 
     33 O          25.1203  -28.4023  -45.0446 O.2       4 UNK        -0.5039 
     34 N          24.4087  -29.9910  -43.5947 N.am      5 UNK        -0.4663 
     35 CA         25.0551  -29.4456  -42.3963 C.3       5 UNK         0.0242 
     36 CB         25.4261  -30.6044  -41.4567 C.3       5 UNK        -0.1982 
     37 C          24.1729  -28.4272  -41.6495 C.2       5 UNK         0.5017 
     38 O          24.6728  -27.7808  -40.7284 O.2       5 UNK        -0.5012 
     39 N          22.8884  -28.3238  -42.0283 N.am      6 UNK        -0.4439 
     40 CA         21.8330  -27.5128  -41.4118 C.3       6 UNK         0.0297 
     41 CB         22.0635  -26.0134  -41.6950 C.3       6 UNK        -0.2006 
     42 C          21.6179  -27.8267  -39.9167 C.2       6 UNK         0.4892 
     43 O          21.4392  -26.9116  -39.1101 O.2       6 UNK        -0.5089 
     44 N          21.6609  -29.1197  -39.5745 N.am      7 UNK        -0.4243 
     45 CA         21.5586  -29.6434  -38.2144 C.3       7 UNK         0.0196 
     46 CB         22.9202  -29.5096  -37.4947 C.3       7 UNK        -0.2007 
     47 C          21.0188  -31.0795  -38.2883 C.2       7 UNK         0.5020 
     48 O          20.0689  -31.3248  -39.0308 O.2       7 UNK        -0.5147 
     49 N          21.6218  -32.0124  -37.5394 N.am      8 UNK        -0.4734 
     50 CA         21.3028  -33.4440  -37.6027 C.3       8 UNK         0.0238 
     51 CB         21.8781  -34.1499  -36.3639 C.3       8 UNK        -0.1912 
     52 C          21.8135  -34.1145  -38.8921 C.2       8 UNK         0.5038 
     53 O          21.2173  -35.0966  -39.3350 O.2       8 UNK        -0.5046 
     54 N          22.9017  -33.5706  -39.4573 N.am      9 UNK        -0.4200 
     55 CA         23.5656  -34.0139  -40.6961 C.3       9 UNK         0.0839 
     56 C          24.2321  -35.4219  -40.6135 C.2       9 UNK         0.5513 
     57 N          24.4960  -35.9584  -39.4280 N.am      9 UNK        -0.7519 
     58 O          24.5466  -36.0266  -41.6356 O.2       9 UNK        -0.4960 
     59 C59        22.6786  -33.8442  -41.9634 C.3       10 UNK        -0.0876 
     60 S60        21.9998  -32.1583  -42.1781 S.3       10 UNK        -0.2414 
     61 C61        20.2432  -32.5524  -42.4366 C.3       10 UNK         0.0169 
     62 H62        19.0982  -21.0136  -41.0252 H         1 UNK         0.0903 
     63 H63        17.4509  -21.0185  -40.3896 H         1 UNK         0.0903 
     64 H64        18.5080  -22.4042  -40.1131 H         1 UNK         0.0903 
     65 H65        17.9927  -24.1427  -41.4368 H         1 UNK         0.3096 
     66 H66        16.3490  -23.8997  -43.7648 H         1 UNK         0.1121 
     67 H67        16.0697  -25.8665  -42.4565 H         1 UNK         0.0849 
     68 H68        16.7486  -26.3942  -43.9675 H         1 UNK         0.0849 
     69 H69        16.4958  -28.2582  -41.9432 H         1 UNK         0.0865 
     70 H70        17.7578  -28.5542  -40.7801 H         1 UNK         0.0865 
     71 H71        19.1808  -30.3956  -41.1584 H         1 UNK         0.1346 
     72 H72        19.5561  -32.1487  -45.0517 H         1 UNK         0.1412 
     73 H73        17.2209  -28.5958  -44.5142 H         1 UNK         0.1426 
     74 H74        17.1065  -29.7876  -46.6087 H         1 UNK         0.0716 
     75 H75        17.7864  -31.3863  -46.7387 H         1 UNK         0.0716 
     76 H76        18.7462  -27.8026  -46.1657 H         1 UNK         0.0695 
     77 H77        19.0481  -27.3598  -47.8084 H         1 UNK         0.0695 
     78 H78        21.3907  -27.2009  -47.5124 H         1 UNK         0.0983 
     79 H79        20.6200  -26.3949  -44.7915 H         1 UNK         0.3095 
     80 H80        21.6002  -23.8868  -44.5751 H         1 UNK         0.0454 
     81 H81        20.5468  -21.6711  -45.0533 H         1 UNK         0.0851 
     82 H82        19.7522  -22.3468  -46.4738 H         1 UNK         0.0851 
     83 H83        21.5050  -22.2326  -46.4128 H         1 UNK         0.0851 
     84 H84        19.7974  -24.0486  -43.2804 H         1 UNK         0.2976 
     85 H85        22.7349  -28.9021  -47.4690 H         1 UNK         0.3116 
     86 H86        24.3302  -30.2567  -46.7410 H         1 UNK         0.0646 
     87 H87        23.6148  -32.0963  -45.1607 H         1 UNK         0.0847 
     88 H88        22.4709  -31.8193  -46.4579 H         1 UNK         0.0847 
     89 H89        22.1170  -31.2101  -44.8545 H         1 UNK         0.0847 
     90 H90        23.8170  -30.8010  -43.4655 H         1 UNK         0.3040 
     91 H91        25.9766  -28.9337  -42.6833 H         1 UNK         0.1015 
     92 H92        24.5391  -31.0576  -41.0161 H         1 UNK         0.0786 
     93 H93        26.0473  -30.2509  -40.6326 H         1 UNK         0.0786 
     94 H94        25.9874  -31.3816  -41.9756 H         1 UNK         0.0786 
     95 H95        22.5894  -28.8346  -42.8544 H         1 UNK         0.3172 
     96 H96        20.9143  -27.8096  -41.9166 H         1 UNK         0.0595 
     97 H97        22.9571  -25.6412  -41.1932 H         1 UNK         0.0839 
     98 H98        21.2201  -25.4168  -41.3459 H         1 UNK         0.0839 
     99 H99        22.1740  -25.8265  -42.7628 H         1 UNK         0.0839 
    100 H100       21.7436  -29.8146  -40.3051 H         1 UNK         0.2998 
    101 H101       20.8142  -29.0613  -37.6671 H         1 UNK         0.0822 
    102 H102       23.6989  -30.0933  -37.9877 H         1 UNK         0.0787 
    103 H103       23.2546  -28.4720  -37.4781 H         1 UNK         0.0787 
    104 H104       22.8584  -29.8327  -36.4549 H         1 UNK         0.0787 
    105 H105       22.3789  -31.7334  -36.9315 H         1 UNK         0.3055 
    106 H106       20.2160  -33.5574  -37.5875 H         1 UNK         0.1106 
    107 H107       21.6401  -35.2147  -36.3765 H         1 UNK         0.0828 
    108 H108       22.9637  -34.0594  -36.3110 H         1 UNK         0.0828 
    109 H109       21.4613  -33.7389  -35.4442 H         1 UNK         0.0828 
    110 H110       23.3190  -32.7742  -39.0012 H         1 UNK         0.2931 
    111 H111       24.4123  -33.3396  -40.8154 H         1 UNK         0.0412 
    112 H112       24.2557  -35.4708  -38.5802 H         1 UNK         0.3472 
    113 H113       24.9368  -36.8640  -39.3830 H         1 UNK         0.3472 
    114 H114       23.2556  -34.0715  -42.8615 H         1 UNK         0.0970 
    115 H115       21.8671  -34.5731  -41.9423 H         1 UNK         0.0970 
    116 H116       20.1606  -33.4219  -43.0905 H         1 UNK         0.0612 
    117 H117       19.8022  -32.8437  -41.4819 H         1 UNK         0.0612 
@<TRIPOS>BOND
     1    1    2 1    
     2    1   62 1    
     3    1   63 1    
     4    1   64 1    
     5    2    3 2    
     6    2    4 am   BACKBONE|DICT|INTERRES
     7    4    5 1    
     8    4   65 1    
     9    5    6 1    
    10    5   25 1    
    11    5   66 1    
    12    6    7 1    
    13    6   67 1    
    14    6   68 1    
    15    7    8 1    
    16    8    9 1    
    17    8   69 1    
    18    8   70 1    
    19    9   10 ar   
    20    9   14 ar   
    21   10   11 ar   
    22   10   71 1    
    23   11   12 ar   
    24   11   61 1    
    25   12   13 ar   
    26   12   72 1    
    27   13   14 ar   
    28   13   15 1    
    29   14   73 1    
    30   15   16 1    
    31   15   74 1    
    32   15   75 1    
    33   16   17 1    
    34   17   18 1    
    35   17   76 1    
    36   17   77 1    
    37   18   19 1    
    38   18   27 1    
    39   18   78 1    
    40   19   20 am   BACKBONE|DICT|INTERRES
    41   19   79 1    
    42   20   21 2    
    43   20   22 1    
    44   22   23 1    
    45   22   24 1    
    46   22   80 1    
    47   23   81 1    
    48   23   82 1    
    49   23   83 1    
    50   24   25 am   BACKBONE|DICT|INTERRES
    51   24   84 1    
    52   25   26 2    
    53   27   28 2    
    54   27   29 am   BACKBONE|DICT|INTERRES
    55   29   30 1    
    56   29   85 1    
    57   30   31 1    
    58   30   32 1    
    59   30   86 1    
    60   31   87 1    
    61   31   88 1    
    62   31   89 1    
    63   32   33 2    
    64   32   34 am   BACKBONE|DICT|INTERRES
    65   34   35 1    
    66   34   90 1    
    67   35   36 1    
    68   35   37 1    
    69   35   91 1    
    70   36   92 1    
    71   36   93 1    
    72   36   94 1    
    73   37   38 2    
    74   37   39 am   BACKBONE|DICT|INTERRES
    75   39   40 1    
    76   39   95 1    
    77   40   41 1    
    78   40   42 1    
    79   40   96 1    
    80   41   97 1    
    81   41   98 1    
    82   41   99 1    
    83   42   43 2    
    84   42   44 am   BACKBONE|DICT|INTERRES
    85   44   45 1    
    86   44  100 1    
    87   45   46 1    
    88   45   47 1    
    89   45  101 1    
    90   46  102 1    
    91   46  103 1    
    92   46  104 1    
    93   47   48 2    
    94   47   49 am   BACKBONE|DICT|INTERRES
    95   49   50 1    
    96   49  105 1    
    97   50   51 1    
    98   50   52 1    
    99   50  106 1    
   100   51  107 1    
   101   51  108 1    
   102   51  109 1    
   103   52   53 2    
   104   52   54 am   BACKBONE|DICT|INTERRES
   105   54   55 1    
   106   54  110 1    
   107   55   56 1    
   108   55   59 1    
   109   55  111 1    
   110   56   57 am   BACKBONE|DICT|INTERRES
   111   56   58 2    
   112   57  112 1    
   113   57  113 1    
   114   59   60 1    
   115   59  114 1    
   116   59  115 1    
   117   60   61 1    
   118   61  116 1    
   119   61  117 1    
@<TRIPOS>SUBSTRUCTURE
     1 UNK         1 GROUP             0       ****    0 ROOT    
