@<TRIPOS>MOLECULE
3R8
117   119    1
SMALL
USER_CHARGES


@<TRIPOS>ATOM
      1 CA         16.6111  -24.6093  -50.2191 C.3       0 UNK        -0.2013 
      2 C          17.8023  -25.0460  -49.3792 C.2       0 UNK         0.4866 
      3 O          18.9276  -24.6226  -49.6461 O.2       0 UNK        -0.5176 
      4 N          17.5664  -25.8956  -48.3714 N.am      1 UNK        -0.4884 
      5 CA         18.5812  -26.3617  -47.4205 C.3       1 UNK         0.0853 
      6 C6         18.1099  -27.6424  -46.6870 C.3       10 UNK        -0.0849 
      7 S7         19.5044  -28.6771  -46.1291 S.3       10 UNK        -0.2776 
      8 C8         18.6137  -30.0997  -45.4233 C.3       10 UNK         0.0316 
      9 C9         18.4288  -29.9468  -43.9216 C.ar      10 UNK        -0.0863 
     10 C10        19.3329  -30.5522  -43.0462 C.ar      10 UNK        -0.1009 
     11 C11        19.1857  -30.4207  -41.6642 C.ar      10 UNK        -0.0712 
     12 C12        18.1133  -29.6855  -41.1540 C.ar      10 UNK        -0.0894 
     13 C13        17.2152  -29.0507  -42.0205 C.ar      10 UNK        -0.0745 
     14 C14        17.3679  -29.1988  -43.4030 C.ar      10 UNK        -0.0972 
     15 C15        16.1132  -28.1615  -41.4641 C.3       10 UNK         0.0209 
     16 S16        16.7891  -26.7718  -40.4951 S.3       10 UNK        -0.2568 
     17 C17        17.7400  -25.8207  -41.7379 C.3       10 UNK        -0.0983 
     18 CA         19.2232  -26.2678  -41.9277 C.3       3 UNK         0.0876 
     19 N          19.7778  -25.8084  -43.2044 N.am      3 UNK        -0.4424 
     20 C          20.0674  -24.5417  -43.5375 C.2       2 UNK         0.4918 
     21 O          19.8524  -23.5654  -42.8179 O.2       2 UNK        -0.4875 
     22 CA         20.7011  -24.3264  -44.9239 C.3       2 UNK         0.0481 
     23 CB         22.2312  -24.4457  -44.8357 C.3       2 UNK        -0.1831 
     24 N          20.1959  -25.2565  -45.9386 N.am      2 UNK        -0.4498 
     25 C          18.9437  -25.2471  -46.4168 C.2       1 UNK         0.5027 
     26 O          18.0845  -24.4304  -46.0725 O.2       1 UNK        -0.4969 
     27 C          20.1784  -25.9674  -40.7448 C.2       3 UNK         0.5005 
     28 O          21.3944  -25.9042  -40.9478 O.2       3 UNK        -0.5279 
     29 N          19.6266  -25.8399  -39.5306 N.am      4 UNK        -0.4463 
     30 CA         20.2768  -25.6142  -38.2336 C.3       4 UNK         0.0283 
     31 CB         21.0243  -24.2654  -38.1972 C.3       4 UNK        -0.1875 
     32 C          21.1746  -26.7797  -37.7822 C.2       4 UNK         0.4949 
     33 O          20.8635  -27.4310  -36.7851 O.2       4 UNK        -0.5039 
     34 N          22.2630  -27.0203  -38.5186 N.am      5 UNK        -0.4663 
     35 CA         23.2663  -28.0524  -38.2566 C.3       5 UNK         0.0242 
     36 CB         24.2147  -27.5984  -37.1265 C.3       5 UNK        -0.1982 
     37 C          24.0077  -28.4182  -39.5535 C.2       5 UNK         0.5017 
     38 O          25.2267  -28.6001  -39.5335 O.2       5 UNK        -0.5012 
     39 N          23.2650  -28.4882  -40.6678 N.am      6 UNK        -0.4439 
     40 CA         23.7719  -28.8412  -41.9962 C.3       6 UNK         0.0297 
     41 CB         22.6624  -28.6154  -43.0367 C.3       6 UNK        -0.2006 
     42 C          24.2988  -30.2864  -42.0605 C.2       6 UNK         0.4892 
     43 O          23.7896  -31.1625  -41.3564 O.2       6 UNK        -0.5089 
     44 N          25.2912  -30.5070  -42.9344 N.am      7 UNK        -0.4243 
     45 CA         26.0339  -31.7646  -43.0933 C.3       7 UNK         0.0196 
     46 CB         27.1303  -31.5721  -44.1534 C.3       7 UNK        -0.2007 
     47 C          25.1763  -32.9969  -43.4313 C.2       7 UNK         0.5020 
     48 O          25.5725  -34.1129  -43.0953 O.2       7 UNK        -0.5147 
     49 N          24.0071  -32.7836  -44.0508 N.am      8 UNK        -0.4734 
     50 CA         23.0207  -33.8251  -44.3560 C.3       8 UNK         0.0238 
     51 CB         21.9207  -33.2365  -45.2540 C.3       8 UNK        -0.1912 
     52 C          22.4143  -34.5061  -43.1117 C.2       8 UNK         0.5038 
     53 O          21.9486  -35.6403  -43.2310 O.2       8 UNK        -0.5046 
     54 N          22.4516  -33.8328  -41.9523 N.am      9 UNK        -0.4200 
     55 CA         22.0931  -34.4083  -40.6449 C.3       9 UNK         0.0839 
     56 C          23.2826  -35.1179  -39.9320 C.2       9 UNK         0.5513 
     57 N          24.4815  -35.1746  -40.5016 N.am      9 UNK        -0.7519 
     58 O          23.1105  -35.6485  -38.8375 O.2       9 UNK        -0.4960 
     59 C59        21.4089  -33.3686  -39.7173 C.3       10 UNK        -0.0876 
     60 S60        19.8194  -32.7844  -40.3977 S.3       10 UNK        -0.2414 
     61 C61        20.2119  -31.0459  -40.7358 C.3       10 UNK         0.0169 
     62 H62        16.4908  -23.5277  -50.1649 H         1 UNK         0.0903 
     63 H63        16.7666  -24.8833  -51.2622 H         1 UNK         0.0903 
     64 H64        15.6828  -25.0708  -49.8825 H         1 UNK         0.0903 
     65 H65        16.6166  -26.1790  -48.1758 H         1 UNK         0.3096 
     66 H66        19.4749  -26.6006  -48.0025 H         1 UNK         0.1121 
     67 H67        17.5144  -28.2576  -47.3640 H         1 UNK         0.0849 
     68 H68        17.4568  -27.4051  -45.8453 H         1 UNK         0.0849 
     69 H69        17.6471  -30.2303  -45.9123 H         1 UNK         0.0865 
     70 H70        19.1809  -31.0066  -45.6390 H         1 UNK         0.0865 
     71 H71        20.1628  -31.1213  -43.4371 H         1 UNK         0.1346 
     72 H72        18.0001  -29.5706  -40.0844 H         1 UNK         0.1412 
     73 H73        16.6722  -28.7167  -44.0753 H         1 UNK         0.1426 
     74 H74        15.4644  -28.7589  -40.8223 H         1 UNK         0.0716 
     75 H75        15.4817  -27.7675  -42.2620 H         1 UNK         0.0716 
     76 H76        17.6942  -24.7632  -41.4720 H         1 UNK         0.0695 
     77 H77        17.2087  -25.9037  -42.6877 H         1 UNK         0.0695 
     78 H78        19.2431  -27.3511  -42.0147 H         1 UNK         0.0983 
     79 H79        20.0056  -26.5344  -43.8675 H         1 UNK         0.3095 
     80 H80        20.4589  -23.3116  -45.2466 H         1 UNK         0.0454 
     81 H81        22.5449  -25.4471  -44.5388 H         1 UNK         0.0851 
     82 H82        22.6333  -23.7491  -44.0986 H         1 UNK         0.0851 
     83 H83        22.7042  -24.2132  -45.7898 H         1 UNK         0.0851 
     84 H84        20.8355  -25.9680  -46.2642 H         1 UNK         0.2976 
     85 H85        18.6212  -25.9659  -39.4876 H         1 UNK         0.3116 
     86 H86        19.4648  -25.5485  -37.5074 H         1 UNK         0.0646 
     87 H87        21.8406  -24.2219  -38.9184 H         1 UNK         0.0847 
     88 H88        21.4551  -24.0870  -37.2111 H         1 UNK         0.0847 
     89 H89        20.3500  -23.4360  -38.4099 H         1 UNK         0.0847 
     90 H90        22.3794  -26.4731  -39.3694 H         1 UNK         0.3040 
     91 H91        22.7559  -28.9619  -37.9316 H         1 UNK         0.1015 
     92 H92        24.7585  -26.6938  -37.4008 H         1 UNK         0.0786 
     93 H93        24.9521  -28.3690  -36.8979 H         1 UNK         0.0786 
     94 H94        23.6706  -27.3953  -36.2041 H         1 UNK         0.0786 
     95 H95        22.2755  -28.3056  -40.5951 H         1 UNK         0.3172 
     96 H96        24.5980  -28.1634  -42.2219 H         1 UNK         0.0595 
     97 H97        23.0110  -28.8444  -44.0445 H         1 UNK         0.0839 
     98 H98        22.3306  -27.5772  -43.0403 H         1 UNK         0.0839 
     99 H99        21.7938  -29.2422  -42.8432 H         1 UNK         0.0839 
    100 H100       25.6224  -29.7267  -43.4838 H         1 UNK         0.2998 
    101 H101       26.5178  -31.9716  -42.1364 H         1 UNK         0.0822 
    102 H102       27.7197  -32.4822  -44.2764 H         1 UNK         0.0787 
    103 H103       26.7095  -31.3227  -45.1284 H         1 UNK         0.0787 
    104 H104       27.8222  -30.7782  -43.8715 H         1 UNK         0.0787 
    105 H105       23.7615  -31.8336  -44.2877 H         1 UNK         0.3055 
    106 H106       23.5337  -34.6079  -44.9195 H         1 UNK         0.1106 
    107 H107       21.1621  -33.9850  -45.4875 H         1 UNK         0.0828 
    108 H108       21.4161  -32.3981  -44.7777 H         1 UNK         0.0828 
    109 H109       22.3287  -32.8863  -46.2023 H         1 UNK         0.0828 
    110 H110       22.8826  -32.9147  -41.9253 H         1 UNK         0.2931 
    111 H111       21.3601  -35.2000  -40.8113 H         1 UNK         0.0412 
    112 H112       24.6567  -34.7671  -41.4129 H         1 UNK         0.3472 
    113 H113       25.2284  -35.6473  -40.0178 H         1 UNK         0.3472 
    114 H114       22.0773  -32.5268  -39.5267 H         1 UNK         0.0970 
    115 H115       21.1931  -33.8064  -38.7409 H         1 UNK         0.0970 
    116 H116       20.2701  -30.4955  -39.7955 H         1 UNK         0.0612 
    117 H117       21.1975  -30.9810  -41.1950 H         1 UNK         0.0612 
@<TRIPOS>BOND
     1    1    2 1    
     2    1   62 1    
     3    1   63 1    
     4    1   64 1    
     5    2    3 2    
     6    2    4 am   BACKBONE|DICT|INTERRES
     7    4    5 1    
     8    4   65 1    
     9    5    6 1    
    10    5   25 1    
    11    5   66 1    
    12    6    7 1    
    13    6   67 1    
    14    6   68 1    
    15    7    8 1    
    16    8    9 1    
    17    8   69 1    
    18    8   70 1    
    19    9   10 ar   
    20    9   14 ar   
    21   10   11 ar   
    22   10   71 1    
    23   11   12 ar   
    24   11   61 1    
    25   12   13 ar   
    26   12   72 1    
    27   13   14 ar   
    28   13   15 1    
    29   14   73 1    
    30   15   16 1    
    31   15   74 1    
    32   15   75 1    
    33   16   17 1    
    34   17   18 1    
    35   17   76 1    
    36   17   77 1    
    37   18   19 1    
    38   18   27 1    
    39   18   78 1    
    40   19   20 am   BACKBONE|DICT|INTERRES
    41   19   79 1    
    42   20   21 2    
    43   20   22 1    
    44   22   23 1    
    45   22   24 1    
    46   22   80 1    
    47   23   81 1    
    48   23   82 1    
    49   23   83 1    
    50   24   25 am   BACKBONE|DICT|INTERRES
    51   24   84 1    
    52   25   26 2    
    53   27   28 2    
    54   27   29 am   BACKBONE|DICT|INTERRES
    55   29   30 1    
    56   29   85 1    
    57   30   31 1    
    58   30   32 1    
    59   30   86 1    
    60   31   87 1    
    61   31   88 1    
    62   31   89 1    
    63   32   33 2    
    64   32   34 am   BACKBONE|DICT|INTERRES
    65   34   35 1    
    66   34   90 1    
    67   35   36 1    
    68   35   37 1    
    69   35   91 1    
    70   36   92 1    
    71   36   93 1    
    72   36   94 1    
    73   37   38 2    
    74   37   39 am   BACKBONE|DICT|INTERRES
    75   39   40 1    
    76   39   95 1    
    77   40   41 1    
    78   40   42 1    
    79   40   96 1    
    80   41   97 1    
    81   41   98 1    
    82   41   99 1    
    83   42   43 2    
    84   42   44 am   BACKBONE|DICT|INTERRES
    85   44   45 1    
    86   44  100 1    
    87   45   46 1    
    88   45   47 1    
    89   45  101 1    
    90   46  102 1    
    91   46  103 1    
    92   46  104 1    
    93   47   48 2    
    94   47   49 am   BACKBONE|DICT|INTERRES
    95   49   50 1    
    96   49  105 1    
    97   50   51 1    
    98   50   52 1    
    99   50  106 1    
   100   51  107 1    
   101   51  108 1    
   102   51  109 1    
   103   52   53 2    
   104   52   54 am   BACKBONE|DICT|INTERRES
   105   54   55 1    
   106   54  110 1    
   107   55   56 1    
   108   55   59 1    
   109   55  111 1    
   110   56   57 am   BACKBONE|DICT|INTERRES
   111   56   58 2    
   112   57  112 1    
   113   57  113 1    
   114   59   60 1    
   115   59  114 1    
   116   59  115 1    
   117   60   61 1    
   118   61  116 1    
   119   61  117 1    
@<TRIPOS>SUBSTRUCTURE
     1 UNK         1 GROUP             0       ****    0 ROOT    
