@<TRIPOS>MOLECULE
3R8
117   119    1
SMALL
USER_CHARGES


@<TRIPOS>ATOM
      1 CA         14.7249  -22.2679  -43.8906 C.3       0 UNK        -0.2013 
      2 C          15.7303  -23.0480  -44.7247 C.2       0 UNK         0.4866 
      3 O          16.4546  -22.4516  -45.5220 O.2       0 UNK        -0.5176 
      4 N          15.7663  -24.3747  -44.5531 N.am      1 UNK        -0.4884 
      5 CA         16.7012  -25.2951  -45.2043 C.3       1 UNK         0.0853 
      6 C6         16.0237  -26.6501  -45.5506 C.3       10 UNK        -0.0849 
      7 S7         15.1430  -27.4532  -44.1593 S.3       10 UNK        -0.2776 
      8 C8         15.3017  -29.2164  -44.5831 C.3       10 UNK         0.0316 
      9 C9         16.7308  -29.7143  -44.4259 C.ar      10 UNK        -0.0863 
     10 C10        17.2414  -29.9943  -43.1551 C.ar      10 UNK        -0.1009 
     11 C11        18.5464  -30.4725  -43.0061 C.ar      10 UNK        -0.0712 
     12 C12        19.3446  -30.6613  -44.1377 C.ar      10 UNK        -0.0894 
     13 C13        18.8452  -30.3848  -45.4129 C.ar      10 UNK        -0.0745 
     14 C14        17.5362  -29.9160  -45.5508 C.ar      10 UNK        -0.0972 
     15 C15        19.7037  -30.6129  -46.6478 C.3       10 UNK         0.0209 
     16 S16        20.5861  -29.1014  -47.1487 S.3       10 UNK        -0.2568 
     17 C17        22.0145  -29.1019  -46.0132 C.3       10 UNK        -0.0983 
     18 CA         22.0659  -27.8440  -45.1124 C.3       3 UNK         0.0876 
     19 N          20.8623  -27.7072  -44.2814 N.am      3 UNK        -0.4424 
     20 C          20.6349  -26.7593  -43.3618 C.2       2 UNK         0.4918 
     21 O          21.4403  -25.8740  -43.0692 O.2       2 UNK        -0.4875 
     22 CA         19.2543  -26.7971  -42.6823 C.3       2 UNK         0.0481 
     23 CB         19.1737  -25.8755  -41.4474 C.3       2 UNK        -0.1831 
     24 N          18.1594  -26.5016  -43.6159 N.am      2 UNK        -0.4498 
     25 C          17.9917  -25.3960  -44.3601 C.2       1 UNK         0.5027 
     26 O          18.7929  -24.4606  -44.3886 O.2       1 UNK        -0.4969 
     27 C          23.3612  -27.8420  -44.2723 C.2       3 UNK         0.5005 
     28 O          23.5919  -28.7862  -43.5134 O.2       3 UNK        -0.5279 
     29 N          24.1533  -26.7673  -44.4095 N.am      4 UNK        -0.4463 
     30 CA         25.4041  -26.4671  -43.6956 C.3       4 UNK         0.0283 
     31 CB         26.4714  -27.5479  -43.9633 C.3       4 UNK        -0.1875 
     32 C          25.2392  -26.1674  -42.1886 C.2       4 UNK         0.4949 
     33 O          26.2468  -26.1066  -41.4838 O.2       4 UNK        -0.5039 
     34 N          23.9938  -25.9529  -41.7366 N.am      5 UNK        -0.4663 
     35 CA         23.5501  -25.6128  -40.3777 C.3       5 UNK         0.0242 
     36 CB         23.7380  -24.0981  -40.1535 C.3       5 UNK        -0.1982 
     37 C          24.1872  -26.4600  -39.2487 C.2       5 UNK         0.5017 
     38 O          24.9141  -25.9085  -38.4220 O.2       5 UNK        -0.5012 
     39 N          23.9466  -27.7754  -39.1738 N.am      6 UNK        -0.4439 
     40 CA         23.1526  -28.6276  -40.0532 C.3       6 UNK         0.0297 
     41 CB         21.7337  -28.7822  -39.4814 C.3       6 UNK        -0.2006 
     42 C          23.8927  -29.9672  -40.1226 C.2       6 UNK         0.4892 
     43 O          24.0532  -30.6115  -39.0842 O.2       6 UNK        -0.5089 
     44 N          24.3794  -30.3335  -41.3139 N.am      7 UNK        -0.4243 
     45 CA         25.2251  -31.5108  -41.5219 C.3       7 UNK         0.0196 
     46 CB         26.0957  -31.3219  -42.7759 C.3       7 UNK        -0.2007 
     47 C          24.4100  -32.8059  -41.6058 C.2       7 UNK         0.5020 
     48 O          24.6345  -33.7197  -40.8119 O.2       7 UNK        -0.5147 
     49 N          23.4758  -32.8658  -42.5659 N.am      8 UNK        -0.4734 
     50 CA         22.6960  -34.0722  -42.8802 C.3       8 UNK         0.0238 
     51 CB         21.9459  -33.8706  -44.2067 C.3       8 UNK        -0.1912 
     52 C          21.7226  -34.5020  -41.7681 C.2       8 UNK         0.5038 
     53 O          21.3717  -35.6807  -41.6994 O.2       8 UNK        -0.5046 
     54 N          21.3218  -33.5463  -40.9228 N.am      9 UNK        -0.4200 
     55 CA         20.4778  -33.7626  -39.7387 C.3       9 UNK         0.0839 
     56 C          21.2878  -34.1032  -38.4533 C.2       9 UNK         0.5513 
     57 N          22.6139  -34.1787  -38.4904 N.am      9 UNK        -0.7519 
     58 O          20.6977  -34.3189  -37.3979 O.2       9 UNK        -0.4960 
     59 C59        19.5003  -32.5791  -39.5092 C.3       10 UNK        -0.0876 
     60 S60        18.4039  -32.3071  -40.9446 S.3       10 UNK        -0.2414 
     61 C61        19.0998  -30.7724  -41.6234 C.3       10 UNK         0.0169 
     62 H62        14.1404  -22.9189  -43.2406 H         1 UNK         0.0903 
     63 H63        15.2412  -21.5399  -43.2653 H         1 UNK         0.0903 
     64 H64        14.0347  -21.7304  -44.5405 H         1 UNK         0.0903 
     65 H65        15.1484  -24.8077  -43.8801 H         1 UNK         0.3096 
     66 H66        17.0135  -24.8586  -46.1562 H         1 UNK         0.1121 
     67 H67        15.2883  -26.4845  -46.3396 H         1 UNK         0.0849 
     68 H68        16.7568  -27.3288  -45.9865 H         1 UNK         0.0849 
     69 H69        14.6447  -29.7958  -43.9326 H         1 UNK         0.0865 
     70 H70        14.9405  -29.3803  -45.5997 H         1 UNK         0.0865 
     71 H71        16.6214  -29.8467  -42.2810 H         1 UNK         0.1346 
     72 H72        20.3561  -31.0215  -44.0241 H         1 UNK         0.1412 
     73 H73        17.1450  -29.7105  -46.5382 H         1 UNK         0.1426 
     74 H74        19.0710  -30.9350  -47.4764 H         1 UNK         0.0716 
     75 H75        20.4134  -31.4251  -46.4823 H         1 UNK         0.0716 
     76 H76        22.0103  -30.0096  -45.4080 H         1 UNK         0.0695 
     77 H77        22.9136  -29.1608  -46.6297 H         1 UNK         0.0695 
     78 H78        22.0855  -26.9711  -45.7682 H         1 UNK         0.0983 
     79 H79        20.1313  -28.3789  -44.4693 H         1 UNK         0.3095 
     80 H80        19.1037  -27.8168  -42.3314 H         1 UNK         0.0454 
     81 H81        19.9425  -26.1315  -40.7184 H         1 UNK         0.0851 
     82 H82        18.2099  -25.9677  -40.9471 H         1 UNK         0.0851 
     83 H83        19.3150  -24.8267  -41.7107 H         1 UNK         0.0851 
     84 H84        17.4311  -27.2038  -43.6731 H         1 UNK         0.2976 
     85 H85        23.8429  -26.0360  -45.0356 H         1 UNK         0.3116 
     86 H86        25.7723  -25.5387  -44.1344 H         1 UNK         0.0646 
     87 H87        26.2137  -28.4902  -43.4840 H         1 UNK         0.0847 
     88 H88        26.5928  -27.7343  -45.0301 H         1 UNK         0.0847 
     89 H89        27.4449  -27.2448  -43.5760 H         1 UNK         0.0847 
     90 H90        23.2362  -26.0141  -42.4123 H         1 UNK         0.3040 
     91 H91        22.4785  -25.8122  -40.3424 H         1 UNK         0.1015 
     92 H92        23.1936  -23.5184  -40.8991 H         1 UNK         0.0786 
     93 H93        23.3642  -23.7958  -39.1743 H         1 UNK         0.0786 
     94 H94        24.7887  -23.8102  -40.2072 H         1 UNK         0.0786 
     95 H95        24.4165  -28.2937  -38.4429 H         1 UNK         0.3172 
     96 H96        23.0765  -28.2142  -41.0554 H         1 UNK         0.0595 
     97 H97        21.7432  -29.2264  -38.4850 H         1 UNK         0.0839 
     98 H98        21.1310  -29.4250  -40.1183 H         1 UNK         0.0839 
     99 H99        21.2223  -27.8229  -39.4116 H         1 UNK         0.0839 
    100 H100       24.1736  -29.7565  -42.1306 H         1 UNK         0.2998 
    101 H101       25.9015  -31.6105  -40.6696 H         1 UNK         0.0822 
    102 H102       26.6410  -32.2354  -43.0178 H         1 UNK         0.0787 
    103 H103       26.8405  -30.5425  -42.6179 H         1 UNK         0.0787 
    104 H104       25.5037  -31.0514  -43.6512 H         1 UNK         0.0787 
    105 H105       23.3541  -32.0655  -43.1701 H         1 UNK         0.3055 
    106 H106       23.4038  -34.8936  -43.0147 H         1 UNK         0.1106 
    107 H107       21.1789  -33.1028  -44.1248 H         1 UNK         0.0828 
    108 H108       22.6236  -33.5911  -45.0136 H         1 UNK         0.0828 
    109 H109       21.4456  -34.7910  -44.5113 H         1 UNK         0.0828 
    110 H110       21.6956  -32.6185  -41.0452 H         1 UNK         0.2931 
    111 H111       19.8592  -34.6433  -39.9220 H         1 UNK         0.0412 
    112 H112       23.1141  -34.4030  -37.6449 H         1 UNK         0.3472 
    113 H113       23.1290  -34.0153  -39.3468 H         1 UNK         0.3472 
    114 H114       18.8602  -32.7772  -38.6474 H         1 UNK         0.0970 
    115 H115       20.0471  -31.6652  -39.2709 H         1 UNK         0.0970 
    116 H116       20.1855  -30.8623  -41.6698 H         1 UNK         0.0612 
    117 H117       18.8760  -29.9455  -40.9479 H         1 UNK         0.0612 
@<TRIPOS>BOND
     1    1    2 1    
     2    1   62 1    
     3    1   63 1    
     4    1   64 1    
     5    2    3 2    
     6    2    4 am   BACKBONE|DICT|INTERRES
     7    4    5 1    
     8    4   65 1    
     9    5    6 1    
    10    5   25 1    
    11    5   66 1    
    12    6    7 1    
    13    6   67 1    
    14    6   68 1    
    15    7    8 1    
    16    8    9 1    
    17    8   69 1    
    18    8   70 1    
    19    9   10 ar   
    20    9   14 ar   
    21   10   11 ar   
    22   10   71 1    
    23   11   12 ar   
    24   11   61 1    
    25   12   13 ar   
    26   12   72 1    
    27   13   14 ar   
    28   13   15 1    
    29   14   73 1    
    30   15   16 1    
    31   15   74 1    
    32   15   75 1    
    33   16   17 1    
    34   17   18 1    
    35   17   76 1    
    36   17   77 1    
    37   18   19 1    
    38   18   27 1    
    39   18   78 1    
    40   19   20 am   BACKBONE|DICT|INTERRES
    41   19   79 1    
    42   20   21 2    
    43   20   22 1    
    44   22   23 1    
    45   22   24 1    
    46   22   80 1    
    47   23   81 1    
    48   23   82 1    
    49   23   83 1    
    50   24   25 am   BACKBONE|DICT|INTERRES
    51   24   84 1    
    52   25   26 2    
    53   27   28 2    
    54   27   29 am   BACKBONE|DICT|INTERRES
    55   29   30 1    
    56   29   85 1    
    57   30   31 1    
    58   30   32 1    
    59   30   86 1    
    60   31   87 1    
    61   31   88 1    
    62   31   89 1    
    63   32   33 2    
    64   32   34 am   BACKBONE|DICT|INTERRES
    65   34   35 1    
    66   34   90 1    
    67   35   36 1    
    68   35   37 1    
    69   35   91 1    
    70   36   92 1    
    71   36   93 1    
    72   36   94 1    
    73   37   38 2    
    74   37   39 am   BACKBONE|DICT|INTERRES
    75   39   40 1    
    76   39   95 1    
    77   40   41 1    
    78   40   42 1    
    79   40   96 1    
    80   41   97 1    
    81   41   98 1    
    82   41   99 1    
    83   42   43 2    
    84   42   44 am   BACKBONE|DICT|INTERRES
    85   44   45 1    
    86   44  100 1    
    87   45   46 1    
    88   45   47 1    
    89   45  101 1    
    90   46  102 1    
    91   46  103 1    
    92   46  104 1    
    93   47   48 2    
    94   47   49 am   BACKBONE|DICT|INTERRES
    95   49   50 1    
    96   49  105 1    
    97   50   51 1    
    98   50   52 1    
    99   50  106 1    
   100   51  107 1    
   101   51  108 1    
   102   51  109 1    
   103   52   53 2    
   104   52   54 am   BACKBONE|DICT|INTERRES
   105   54   55 1    
   106   54  110 1    
   107   55   56 1    
   108   55   59 1    
   109   55  111 1    
   110   56   57 am   BACKBONE|DICT|INTERRES
   111   56   58 2    
   112   57  112 1    
   113   57  113 1    
   114   59   60 1    
   115   59  114 1    
   116   59  115 1    
   117   60   61 1    
   118   61  116 1    
   119   61  117 1    
@<TRIPOS>SUBSTRUCTURE
     1 UNK         1 GROUP             0       ****    0 ROOT    
