@<TRIPOS>MOLECULE
3R8
117   119    1
SMALL
USER_CHARGES


@<TRIPOS>ATOM
      1 CA         17.2412  -25.9720  -39.3665 C.3       0 UNK        -0.2013 
      2 C          17.1974  -25.5602  -40.8304 C.2       0 UNK         0.4866 
      3 O          16.9738  -24.3863  -41.1292 O.2       0 UNK        -0.5176 
      4 N          17.4030  -26.5164  -41.7427 N.am      1 UNK        -0.4884 
      5 CA         17.4832  -26.2795  -43.1884 C.3       1 UNK         0.0853 
      6 C6         17.1131  -27.5509  -43.9906 C.3       10 UNK        -0.0849 
      7 S7         15.3105  -27.8261  -44.0558 S.3       10 UNK        -0.2776 
      8 C8         15.1526  -29.6010  -43.6476 C.3       10 UNK         0.0316 
      9 C9         16.1203  -30.5182  -44.3961 C.ar      10 UNK        -0.0863 
     10 C10        16.6877  -31.5997  -43.7178 C.ar      10 UNK        -0.1009 
     11 C11        17.6220  -32.4284  -44.3445 C.ar      10 UNK        -0.0712 
     12 C12        17.9862  -32.1744  -45.6701 C.ar      10 UNK        -0.0894 
     13 C13        17.4311  -31.0927  -46.3619 C.ar      10 UNK        -0.0745 
     14 C14        16.4762  -30.2894  -45.7313 C.ar      10 UNK        -0.0972 
     15 C15        17.9006  -30.7593  -47.7727 C.3       10 UNK         0.0209 
     16 S16        18.8677  -29.2095  -47.8324 S.3       10 UNK        -0.2568 
     17 C17        20.1972  -29.5623  -46.6339 C.3       10 UNK        -0.0983 
     18 CA         21.2112  -28.4017  -46.4620 C.3       3 UNK         0.0876 
     19 N          20.5467  -27.1601  -46.0549 N.am      3 UNK        -0.4424 
     20 C          21.1172  -25.9512  -45.9471 C.2       2 UNK         0.4918 
     21 O          22.2856  -25.7185  -46.2580 O.2       2 UNK        -0.4875 
     22 CA         20.2405  -24.7920  -45.4288 C.3       2 UNK         0.0481 
     23 CB         19.9122  -23.8200  -46.5738 C.3       2 UNK        -0.1831 
     24 N          18.9880  -25.2277  -44.8016 N.am      2 UNK        -0.4498 
     25 C          18.8892  -25.7847  -43.5859 C.2       1 UNK         0.5027 
     26 O          19.8494  -25.9555  -42.8302 O.2       1 UNK        -0.4969 
     27 C          22.2802  -28.7769  -45.4161 C.2       3 UNK         0.5005 
     28 O          21.9155  -29.2288  -44.3296 O.2       3 UNK        -0.5279 
     29 N          23.5619  -28.5272  -45.7210 N.am      4 UNK        -0.4463 
     30 CA         24.7438  -28.6521  -44.8497 C.3       4 UNK         0.0283 
     31 CB         24.9310  -30.0901  -44.3226 C.3       4 UNK        -0.1875 
     32 C          24.7782  -27.6278  -43.6978 C.2       4 UNK         0.4949 
     33 O          25.7929  -26.9514  -43.5297 O.2       4 UNK        -0.5039 
     34 N          23.6711  -27.5248  -42.9495 N.am      5 UNK        -0.4663 
     35 CA         23.3938  -26.5883  -41.8534 C.3       5 UNK         0.0242 
     36 CB         23.2948  -25.1458  -42.3928 C.3       5 UNK        -0.1982 
     37 C          24.3635  -26.7130  -40.6608 C.2       5 UNK         0.5017 
     38 O          24.6354  -25.7181  -39.9854 O.2       5 UNK        -0.5012 
     39 N          24.8602  -27.9292  -40.4109 N.am      6 UNK        -0.4439 
     40 CA         25.7625  -28.2676  -39.3158 C.3       6 UNK         0.0297 
     41 CB         27.2158  -27.9346  -39.6979 C.3       6 UNK        -0.2006 
     42 C          25.5999  -29.7579  -39.0140 C.2       6 UNK         0.4892 
     43 O          25.4768  -30.5493  -39.9513 O.2       6 UNK        -0.5089 
     44 N          25.5930  -30.1043  -37.7192 N.am      7 UNK        -0.4243 
     45 CA         25.4087  -31.4366  -37.1185 C.3       7 UNK         0.0196 
     46 CB         26.4987  -32.4249  -37.5792 C.3       7 UNK        -0.2007 
     47 C          24.0017  -32.0411  -37.2982 C.2       7 UNK         0.5020 
     48 O          23.4726  -32.6174  -36.3473 O.2       7 UNK        -0.5147 
     49 N          23.4135  -31.8954  -38.4873 N.am      8 UNK        -0.4734 
     50 CA         22.0769  -32.3481  -38.8604 C.3       8 UNK         0.0238 
     51 CB         22.1233  -33.8455  -39.2261 C.3       8 UNK        -0.1912 
     52 C          21.5724  -31.5007  -40.0376 C.2       8 UNK         0.5038 
     53 O          22.3403  -30.7136  -40.5983 O.2       8 UNK        -0.5046 
     54 N          20.3004  -31.7051  -40.4027 N.am      9 UNK        -0.4200 
     55 CA         19.6240  -31.0892  -41.5525 C.3       9 UNK         0.0839 
     56 C          19.4822  -29.5466  -41.4035 C.2       9 UNK         0.5513 
     57 N          20.1525  -28.7430  -42.2164 N.am      9 UNK        -0.7519 
     58 O          18.6982  -29.0731  -40.5845 O.2       9 UNK        -0.4960 
     59 C59        20.2109  -31.5486  -42.9182 C.3       10 UNK        -0.0876 
     60 S60        20.0471  -33.3384  -43.2469 S.3       10 UNK        -0.2414 
     61 C61        18.2621  -33.5711  -43.5659 C.3       10 UNK         0.0169 
     62 H62        16.3079  -25.7039  -38.8721 H         1 UNK         0.0903 
     63 H63        17.3895  -27.0455  -39.2498 H         1 UNK         0.0903 
     64 H64        18.0574  -25.4600  -38.8577 H         1 UNK         0.0903 
     65 H65        17.6498  -27.4496  -41.4304 H         1 UNK         0.3096 
     66 H66        16.7820  -25.4838  -43.4522 H         1 UNK         0.1121 
     67 H67        17.6209  -28.4226  -43.5752 H         1 UNK         0.0849 
     68 H68        17.4415  -27.4862  -45.0295 H         1 UNK         0.0849 
     69 H69        15.2924  -29.7061  -42.5703 H         1 UNK         0.0865 
     70 H70        14.1314  -29.9212  -43.8577 H         1 UNK         0.0865 
     71 H71        16.4163  -31.7855  -42.6875 H         1 UNK         0.1346 
     72 H72        18.7306  -32.7980  -46.1461 H         1 UNK         0.1412 
     73 H73        16.0508  -29.4532  -46.2689 H         1 UNK         0.1426 
     74 H74        17.0338  -30.6624  -48.4279 H         1 UNK         0.0716 
     75 H75        18.5053  -31.5703  -48.1814 H         1 UNK         0.0716 
     76 H76        20.7081  -30.4749  -46.9468 H         1 UNK         0.0695 
     77 H77        19.7237  -29.7844  -45.6772 H         1 UNK         0.0695 
     78 H78        21.7001  -28.2270  -47.4226 H         1 UNK         0.0983 
     79 H79        19.5796  -27.2544  -45.7913 H         1 UNK         0.3095 
     80 H80        20.8248  -24.2486  -44.6838 H         1 UNK         0.0454 
     81 H81        19.3244  -24.3002  -47.3571 H         1 UNK         0.0851 
     82 H82        20.8238  -23.4411  -47.0383 H         1 UNK         0.0851 
     83 H83        19.3533  -22.9558  -46.2144 H         1 UNK         0.0851 
     84 H84        18.1505  -25.1161  -45.3563 H         1 UNK         0.2976 
     85 H85        23.7446  -28.0838  -46.6115 H         1 UNK         0.3116 
     86 H86        25.5995  -28.4308  -45.4899 H         1 UNK         0.0646 
     87 H87        24.1384  -30.3869  -43.6346 H         1 UNK         0.0847 
     88 H88        24.9541  -30.8123  -45.1384 H         1 UNK         0.0847 
     89 H89        25.8729  -30.1825  -43.7803 H         1 UNK         0.0847 
     90 H90        22.9090  -28.1514  -43.2006 H         1 UNK         0.3040 
     91 H91        22.4099  -26.8607  -41.4675 H         1 UNK         0.1015 
     92 H92        22.9378  -24.4617  -41.6221 H         1 UNK         0.0786 
     93 H93        22.5939  -25.0852  -43.2246 H         1 UNK         0.0786 
     94 H94        24.2603  -24.7757  -42.7390 H         1 UNK         0.0786 
     95 H95        24.5635  -28.7152  -40.9781 H         1 UNK         0.3172 
     96 H96        25.4806  -27.6949  -38.4294 H         1 UNK         0.0595 
     97 H97        27.5279  -28.4728  -40.5941 H         1 UNK         0.0839 
     98 H98        27.9036  -28.2057  -38.8960 H         1 UNK         0.0839 
     99 H99        27.3432  -26.8688  -39.8879 H         1 UNK         0.0839 
    100 H100       25.6822  -29.3554  -37.0456 H         1 UNK         0.2998 
    101 H101       25.5421  -31.2890  -36.0453 H         1 UNK         0.0822 
    102 H102       26.4180  -33.3694  -37.0395 H         1 UNK         0.0787 
    103 H103       26.4207  -32.6548  -38.6422 H         1 UNK         0.0787 
    104 H104       27.4973  -32.0295  -37.3933 H         1 UNK         0.0787 
    105 H105       23.9105  -31.3867  -39.2177 H         1 UNK         0.3055 
    106 H106       21.3990  -32.1932  -38.0180 H         1 UNK         0.1106 
    107 H107       22.4819  -34.4488  -38.3920 H         1 UNK         0.0828 
    108 H108       21.1353  -34.2234  -39.4909 H         1 UNK         0.0828 
    109 H109       22.7808  -34.0283  -40.0771 H         1 UNK         0.0828 
    110 H110       19.7392  -32.3506  -39.8673 H         1 UNK         0.2931 
    111 H111       18.6008  -31.4618  -41.5086 H         1 UNK         0.0412 
    112 H112       20.7894  -29.1150  -42.9168 H         1 UNK         0.3472 
    113 H113       20.0378  -27.7382  -42.1500 H         1 UNK         0.3472 
    114 H114       19.7528  -30.9990  -43.7389 H         1 UNK         0.0970 
    115 H115       21.2734  -31.3098  -42.9691 H         1 UNK         0.0970 
    116 H116       17.7594  -33.7087  -42.6075 H         1 UNK         0.0612 
    117 H117       18.1228  -34.5025  -44.1162 H         1 UNK         0.0612 
@<TRIPOS>BOND
     1    1    2 1    
     2    1   62 1    
     3    1   63 1    
     4    1   64 1    
     5    2    3 2    
     6    2    4 am   BACKBONE|DICT|INTERRES
     7    4    5 1    
     8    4   65 1    
     9    5    6 1    
    10    5   25 1    
    11    5   66 1    
    12    6    7 1    
    13    6   67 1    
    14    6   68 1    
    15    7    8 1    
    16    8    9 1    
    17    8   69 1    
    18    8   70 1    
    19    9   10 ar   
    20    9   14 ar   
    21   10   11 ar   
    22   10   71 1    
    23   11   12 ar   
    24   11   61 1    
    25   12   13 ar   
    26   12   72 1    
    27   13   14 ar   
    28   13   15 1    
    29   14   73 1    
    30   15   16 1    
    31   15   74 1    
    32   15   75 1    
    33   16   17 1    
    34   17   18 1    
    35   17   76 1    
    36   17   77 1    
    37   18   19 1    
    38   18   27 1    
    39   18   78 1    
    40   19   20 am   BACKBONE|DICT|INTERRES
    41   19   79 1    
    42   20   21 2    
    43   20   22 1    
    44   22   23 1    
    45   22   24 1    
    46   22   80 1    
    47   23   81 1    
    48   23   82 1    
    49   23   83 1    
    50   24   25 am   BACKBONE|DICT|INTERRES
    51   24   84 1    
    52   25   26 2    
    53   27   28 2    
    54   27   29 am   BACKBONE|DICT|INTERRES
    55   29   30 1    
    56   29   85 1    
    57   30   31 1    
    58   30   32 1    
    59   30   86 1    
    60   31   87 1    
    61   31   88 1    
    62   31   89 1    
    63   32   33 2    
    64   32   34 am   BACKBONE|DICT|INTERRES
    65   34   35 1    
    66   34   90 1    
    67   35   36 1    
    68   35   37 1    
    69   35   91 1    
    70   36   92 1    
    71   36   93 1    
    72   36   94 1    
    73   37   38 2    
    74   37   39 am   BACKBONE|DICT|INTERRES
    75   39   40 1    
    76   39   95 1    
    77   40   41 1    
    78   40   42 1    
    79   40   96 1    
    80   41   97 1    
    81   41   98 1    
    82   41   99 1    
    83   42   43 2    
    84   42   44 am   BACKBONE|DICT|INTERRES
    85   44   45 1    
    86   44  100 1    
    87   45   46 1    
    88   45   47 1    
    89   45  101 1    
    90   46  102 1    
    91   46  103 1    
    92   46  104 1    
    93   47   48 2    
    94   47   49 am   BACKBONE|DICT|INTERRES
    95   49   50 1    
    96   49  105 1    
    97   50   51 1    
    98   50   52 1    
    99   50  106 1    
   100   51  107 1    
   101   51  108 1    
   102   51  109 1    
   103   52   53 2    
   104   52   54 am   BACKBONE|DICT|INTERRES
   105   54   55 1    
   106   54  110 1    
   107   55   56 1    
   108   55   59 1    
   109   55  111 1    
   110   56   57 am   BACKBONE|DICT|INTERRES
   111   56   58 2    
   112   57  112 1    
   113   57  113 1    
   114   59   60 1    
   115   59  114 1    
   116   59  115 1    
   117   60   61 1    
   118   61  116 1    
   119   61  117 1    
@<TRIPOS>SUBSTRUCTURE
     1 UNK         1 GROUP             0       ****    0 ROOT    
