@<TRIPOS>MOLECULE
3R8
117   119    1
SMALL
USER_CHARGES


@<TRIPOS>ATOM
      1 CA         20.2618  -28.0405  -49.8021 C.3       0 UNK        -0.2013 
      2 C          19.2353  -27.4052  -48.8763 C.2       0 UNK         0.4866 
      3 O          18.7913  -26.2869  -49.1373 O.2       0 UNK        -0.5176 
      4 N          18.8644  -28.1125  -47.7995 N.am      1 UNK        -0.4884 
      5 CA         17.8835  -27.7068  -46.7792 C.3       1 UNK         0.0853 
      6 C6         16.4234  -27.6253  -47.3106 C.3       10 UNK        -0.0849 
      7 S7         15.8373  -29.2363  -47.9455 S.3       10 UNK        -0.2776 
      8 C8         14.8349  -29.8635  -46.5524 C.3       10 UNK         0.0316 
      9 C9         15.6170  -29.8936  -45.2452 C.ar      10 UNK        -0.0863 
     10 C10        16.7351  -30.7238  -45.1120 C.ar      10 UNK        -0.1009 
     11 C11        17.5051  -30.6839  -43.9469 C.ar      10 UNK        -0.0712 
     12 C12        17.1159  -29.8631  -42.8868 C.ar      10 UNK        -0.0894 
     13 C13        16.0109  -29.0217  -43.0119 C.ar      10 UNK        -0.0745 
     14 C14        15.2581  -29.0468  -44.1902 C.ar      10 UNK        -0.0972 
     15 C15        15.6683  -28.0435  -41.9005 C.3       10 UNK         0.0209 
     16 S16        16.4920  -26.4445  -42.1895 S.3       10 UNK        -0.2568 
     17 C17        17.8889  -26.4558  -41.0079 C.3       10 UNK        -0.0983 
     18 CA         19.2211  -27.0875  -41.5255 C.3       3 UNK         0.0876 
     19 N          19.5784  -26.7018  -42.8958 N.am      3 UNK        -0.4424 
     20 C          19.8489  -25.4685  -43.3481 C.2       2 UNK         0.4918 
     21 O          19.8029  -24.4465  -42.6617 O.2       2 UNK        -0.4875 
     22 CA         20.2331  -25.3537  -44.8356 C.3       2 UNK         0.0481 
     23 CB         21.7601  -25.4027  -45.0011 C.3       2 UNK        -0.1831 
     24 N          19.6260  -26.3991  -45.6640 N.am      2 UNK        -0.4498 
     25 C          18.3281  -26.4493  -46.0008 C.2       1 UNK         0.5027 
     26 O          17.5156  -25.5661  -45.7202 O.2       1 UNK        -0.4969 
     27 C          20.4014  -26.8763  -40.5415 C.2       3 UNK         0.5005 
     28 O          21.5404  -26.6633  -40.9683 O.2       3 UNK        -0.5279 
     29 N          20.1070  -26.9315  -39.2331 N.am      4 UNK        -0.4463 
     30 CA         21.0046  -26.6371  -38.1114 C.3       4 UNK         0.0283 
     31 CB         21.2821  -25.1169  -38.0402 C.3       4 UNK        -0.1875 
     32 C          22.2731  -27.5145  -38.1123 C.2       4 UNK         0.4949 
     33 O          22.1561  -28.7384  -38.0509 O.2       4 UNK        -0.5039 
     34 N          23.4532  -26.8855  -38.1595 N.am      5 UNK        -0.4663 
     35 CA         24.7651  -27.5258  -38.0468 C.3       5 UNK         0.0242 
     36 CB         25.6761  -26.6193  -37.1973 C.3       5 UNK        -0.1982 
     37 C          25.4046  -27.8579  -39.4089 C.2       5 UNK         0.5017 
     38 O          26.6254  -28.0201  -39.4689 O.2       5 UNK        -0.5012 
     39 N          24.6036  -27.9595  -40.4802 N.am      6 UNK        -0.4439 
     40 CA         25.0319  -28.3122  -41.8411 C.3       6 UNK         0.0297 
     41 CB         23.9216  -27.9093  -42.8290 C.3       6 UNK        -0.2006 
     42 C          25.4303  -29.7986  -41.9833 C.2       6 UNK         0.4892 
     43 O          24.8235  -30.5298  -42.7679 O.2       6 UNK        -0.5089 
     44 N          26.4330  -30.2280  -41.2045 N.am      7 UNK        -0.4243 
     45 CA         26.9164  -31.6048  -41.0568 C.3       7 UNK         0.0196 
     46 CB         27.6498  -32.0662  -42.3379 C.3       7 UNK        -0.2007 
     47 C          25.7728  -32.5327  -40.6031 C.2       7 UNK         0.5020 
     48 O          25.1452  -32.2496  -39.5814 O.2       7 UNK        -0.5147 
     49 N          25.4843  -33.5881  -41.3759 N.am      8 UNK        -0.4734 
     50 CA         24.3708  -34.5156  -41.1445 C.3       8 UNK         0.0238 
     51 CB         24.5097  -35.7158  -42.0953 C.3       8 UNK        -0.1912 
     52 C          22.9770  -33.8724  -41.2887 C.2       8 UNK         0.5038 
     53 O          22.0175  -34.4020  -40.7268 O.2       8 UNK        -0.5046 
     54 N          22.8891  -32.7560  -42.0247 N.am      9 UNK        -0.4200 
     55 CA         21.6829  -31.9288  -42.1624 C.3       9 UNK         0.0839 
     56 C          21.5063  -30.9059  -40.9950 C.2       9 UNK         0.5513 
     57 N          22.4732  -30.7327  -40.1010 N.am      9 UNK        -0.7519 
     58 O          20.4496  -30.2973  -40.8584 O.2       9 UNK        -0.4960 
     59 C59        21.6369  -31.3120  -43.5924 C.3       10 UNK        -0.0876 
     60 S60        20.1972  -30.2821  -44.0303 S.3       10 UNK        -0.2414 
     61 C61        18.8103  -31.4486  -43.8487 C.3       10 UNK         0.0169 
     62 H62        19.8462  -28.1489  -50.8036 H         1 UNK         0.0903 
     63 H63        21.1487  -27.4108  -49.8675 H         1 UNK         0.0903 
     64 H64        20.5709  -29.0265  -49.4556 H         1 UNK         0.0903 
     65 H65        19.2654  -29.0300  -47.6603 H         1 UNK         0.3096 
     66 H66        17.9093  -28.4926  -46.0259 H         1 UNK         0.1121 
     67 H67        16.3461  -26.8858  -48.1088 H         1 UNK         0.0849 
     68 H68        15.7397  -27.2904  -46.5285 H         1 UNK         0.0849 
     69 H69        13.9383  -29.2491  -46.4558 H         1 UNK         0.0865 
     70 H70        14.4901  -30.8714  -46.7875 H         1 UNK         0.0865 
     71 H71        17.0387  -31.3509  -45.9394 H         1 UNK         0.1346 
     72 H72        17.7114  -29.8441  -41.9852 H         1 UNK         0.1412 
     73 H73        14.4123  -28.3807  -44.2956 H         1 UNK         0.1426 
     74 H74        15.9432  -28.4522  -40.9272 H         1 UNK         0.0716 
     75 H75        14.5896  -27.8833  -41.8698 H         1 UNK         0.0716 
     76 H76        17.5535  -26.9538  -40.0973 H         1 UNK         0.0695 
     77 H77        18.0611  -25.4148  -40.7278 H         1 UNK         0.0695 
     78 H78        19.0808  -28.1652  -41.5653 H         1 UNK         0.0983 
     79 H79        19.6767  -27.4703  -43.5417 H         1 UNK         0.3095 
     80 H80        19.8839  -24.3835  -45.1953 H         1 UNK         0.0454 
     81 H81        22.1674  -26.3683  -44.7007 H         1 UNK         0.0851 
     82 H82        22.2440  -24.6407  -44.3884 H         1 UNK         0.0851 
     83 H83        22.0538  -25.2204  -46.0349 H         1 UNK         0.0851 
     84 H84        20.2285  -27.1492  -45.9713 H         1 UNK         0.2976 
     85 H85        19.1635  -27.1796  -38.9716 H         1 UNK         0.3116 
     86 H86        20.4592  -26.9090  -37.2065 H         1 UNK         0.0646 
     87 H87        21.8090  -24.7511  -38.9225 H         1 UNK         0.0847 
     88 H88        21.8765  -24.8609  -37.1619 H         1 UNK         0.0847 
     89 H89        20.3511  -24.5551  -37.9626 H         1 UNK         0.0847 
     90 H90        23.4527  -25.8804  -38.2607 H         1 UNK         0.3040 
     91 H91        24.6591  -28.4762  -37.5186 H         1 UNK         0.1015 
     92 H92        25.8752  -25.6687  -37.6937 H         1 UNK         0.0786 
     93 H93        26.6387  -27.0949  -37.0043 H         1 UNK         0.0786 
     94 H94        25.2281  -26.4044  -36.2269 H         1 UNK         0.0786 
     95 H95        23.6112  -27.8051  -40.3494 H         1 UNK         0.3172 
     96 H96        25.9175  -27.7216  -42.0836 H         1 UNK         0.0595 
     97 H97        24.2092  -28.1292  -43.8579 H         1 UNK         0.0839 
     98 H98        23.7125  -26.8410  -42.7722 H         1 UNK         0.0839 
     99 H99        22.9908  -28.4414  -42.6275 H         1 UNK         0.0839 
    100 H100       26.8130  -29.5494  -40.5488 H         1 UNK         0.2998 
    101 H101       27.6419  -31.5944  -40.2420 H         1 UNK         0.0822 
    102 H102       28.0897  -33.0559  -42.2078 H         1 UNK         0.0787 
    103 H103       26.9893  -32.1034  -43.2050 H         1 UNK         0.0787 
    104 H104       28.4675  -31.3877  -42.5814 H         1 UNK         0.0787 
    105 H105       26.0373  -33.7363  -42.2082 H         1 UNK         0.3055 
    106 H106       24.4480  -34.8799  -40.1174 H         1 UNK         0.1106 
    107 H107       23.7121  -36.4412  -41.9274 H         1 UNK         0.0828 
    108 H108       24.4571  -35.4112  -43.1413 H         1 UNK         0.0828 
    109 H109       25.4548  -36.2373  -41.9427 H         1 UNK         0.0828 
    110 H110       23.7380  -32.3503  -42.4015 H         1 UNK         0.2931 
    111 H111       20.8285  -32.6011  -42.0838 H         1 UNK         0.0412 
    112 H112       23.3306  -31.2677  -40.1377 H         1 UNK         0.3472 
    113 H113       22.3166  -30.0806  -39.3376 H         1 UNK         0.3472 
    114 H114       21.7012  -32.1113  -44.3323 H         1 UNK         0.0970 
    115 H115       22.5179  -30.6933  -43.7578 H         1 UNK         0.0970 
    116 H116       18.8765  -32.2232  -44.6142 H         1 UNK         0.0612 
    117 H117       18.8520  -31.9478  -42.8811 H         1 UNK         0.0612 
@<TRIPOS>BOND
     1    1    2 1    
     2    1   62 1    
     3    1   63 1    
     4    1   64 1    
     5    2    3 2    
     6    2    4 am   BACKBONE|DICT|INTERRES
     7    4    5 1    
     8    4   65 1    
     9    5    6 1    
    10    5   25 1    
    11    5   66 1    
    12    6    7 1    
    13    6   67 1    
    14    6   68 1    
    15    7    8 1    
    16    8    9 1    
    17    8   69 1    
    18    8   70 1    
    19    9   10 ar   
    20    9   14 ar   
    21   10   11 ar   
    22   10   71 1    
    23   11   12 ar   
    24   11   61 1    
    25   12   13 ar   
    26   12   72 1    
    27   13   14 ar   
    28   13   15 1    
    29   14   73 1    
    30   15   16 1    
    31   15   74 1    
    32   15   75 1    
    33   16   17 1    
    34   17   18 1    
    35   17   76 1    
    36   17   77 1    
    37   18   19 1    
    38   18   27 1    
    39   18   78 1    
    40   19   20 am   BACKBONE|DICT|INTERRES
    41   19   79 1    
    42   20   21 2    
    43   20   22 1    
    44   22   23 1    
    45   22   24 1    
    46   22   80 1    
    47   23   81 1    
    48   23   82 1    
    49   23   83 1    
    50   24   25 am   BACKBONE|DICT|INTERRES
    51   24   84 1    
    52   25   26 2    
    53   27   28 2    
    54   27   29 am   BACKBONE|DICT|INTERRES
    55   29   30 1    
    56   29   85 1    
    57   30   31 1    
    58   30   32 1    
    59   30   86 1    
    60   31   87 1    
    61   31   88 1    
    62   31   89 1    
    63   32   33 2    
    64   32   34 am   BACKBONE|DICT|INTERRES
    65   34   35 1    
    66   34   90 1    
    67   35   36 1    
    68   35   37 1    
    69   35   91 1    
    70   36   92 1    
    71   36   93 1    
    72   36   94 1    
    73   37   38 2    
    74   37   39 am   BACKBONE|DICT|INTERRES
    75   39   40 1    
    76   39   95 1    
    77   40   41 1    
    78   40   42 1    
    79   40   96 1    
    80   41   97 1    
    81   41   98 1    
    82   41   99 1    
    83   42   43 2    
    84   42   44 am   BACKBONE|DICT|INTERRES
    85   44   45 1    
    86   44  100 1    
    87   45   46 1    
    88   45   47 1    
    89   45  101 1    
    90   46  102 1    
    91   46  103 1    
    92   46  104 1    
    93   47   48 2    
    94   47   49 am   BACKBONE|DICT|INTERRES
    95   49   50 1    
    96   49  105 1    
    97   50   51 1    
    98   50   52 1    
    99   50  106 1    
   100   51  107 1    
   101   51  108 1    
   102   51  109 1    
   103   52   53 2    
   104   52   54 am   BACKBONE|DICT|INTERRES
   105   54   55 1    
   106   54  110 1    
   107   55   56 1    
   108   55   59 1    
   109   55  111 1    
   110   56   57 am   BACKBONE|DICT|INTERRES
   111   56   58 2    
   112   57  112 1    
   113   57  113 1    
   114   59   60 1    
   115   59  114 1    
   116   59  115 1    
   117   60   61 1    
   118   61  116 1    
   119   61  117 1    
@<TRIPOS>SUBSTRUCTURE
     1 UNK         1 GROUP             0       ****    0 ROOT    
