@<TRIPOS>MOLECULE
3R8
117   119    1
SMALL
USER_CHARGES


@<TRIPOS>ATOM
      1 CA         16.1579  -24.0802  -48.7988 C.3       0 UNK        -0.2013 
      2 C          16.8357  -24.9099  -47.7189 C.2       0 UNK         0.4866 
      3 O          18.0598  -25.0281  -47.7167 O.2       0 UNK        -0.5176 
      4 N          16.0499  -25.4719  -46.7916 N.am      1 UNK        -0.4884 
      5 CA         16.5119  -26.3374  -45.6948 C.3       1 UNK         0.0853 
      6 C6         15.4459  -27.4009  -45.3234 C.3       10 UNK        -0.0849 
      7 S7         15.3172  -28.6591  -46.6398 S.3       10 UNK        -0.2776 
      8 C8         15.9760  -30.1585  -45.8269 C.3       10 UNK         0.0316 
      9 C9         17.3189  -29.9523  -45.1287 C.ar      10 UNK        -0.0863 
     10 C10        17.4602  -30.3007  -43.7804 C.ar      10 UNK        -0.1009 
     11 C11        18.6852  -30.1365  -43.1284 C.ar      10 UNK        -0.0712 
     12 C12        19.7762  -29.6250  -43.8330 C.ar      10 UNK        -0.0894 
     13 C13        19.6409  -29.2319  -45.1671 C.ar      10 UNK        -0.0745 
     14 C14        18.4168  -29.4223  -45.8176 C.ar      10 UNK        -0.0972 
     15 C15        20.8153  -28.5972  -45.8998 C.3       10 UNK         0.0209 
     16 S16        20.8382  -26.7801  -45.7209 S.3       10 UNK        -0.2568 
     17 C17        21.4337  -26.5673  -44.0071 C.3       10 UNK        -0.0983 
     18 CA         21.2247  -25.1380  -43.4432 C.3       3 UNK         0.0876 
     19 N          19.8195  -24.7442  -43.5014 N.am      3 UNK        -0.4424 
     20 C          19.3496  -23.4949  -43.5483 C.2       2 UNK         0.4918 
     21 O          20.0736  -22.4980  -43.5784 O.2       2 UNK        -0.4875 
     22 CA         17.8107  -23.3446  -43.5933 C.3       2 UNK         0.0481 
     23 CB         17.3659  -21.8964  -43.8693 C.3       2 UNK        -0.1831 
     24 N          17.1935  -24.2283  -44.5902 N.am      2 UNK        -0.4498 
     25 C          17.0122  -25.5510  -44.4635 C.2       1 UNK         0.5027 
     26 O          17.2781  -26.1581  -43.4249 O.2       1 UNK        -0.4969 
     27 C          21.7067  -25.0945  -41.9815 C.2       3 UNK         0.5005 
     28 O          20.9081  -25.3028  -41.0623 O.2       3 UNK        -0.5279 
     29 N          23.0209  -24.9317  -41.7816 N.am      4 UNK        -0.4463 
     30 CA         23.6908  -25.0827  -40.4845 C.3       4 UNK         0.0283 
     31 CB         25.0068  -24.2827  -40.5012 C.3       4 UNK        -0.1875 
     32 C          23.9074  -26.5744  -40.1554 C.2       4 UNK         0.4949 
     33 O          25.0486  -27.0254  -40.0498 O.2       4 UNK        -0.5039 
     34 N          22.8018  -27.3304  -40.0854 N.am      5 UNK        -0.4663 
     35 CA         22.6589  -28.7849  -39.8925 C.3       5 UNK         0.0242 
     36 CB         23.2101  -29.2251  -38.5229 C.3       5 UNK        -0.1982 
     37 C          23.2361  -29.6690  -41.0165 C.2       5 UNK         0.5017 
     38 O          22.7042  -30.7547  -41.2490 O.2       5 UNK        -0.5012 
     39 N          24.3108  -29.2098  -41.6742 N.am      6 UNK        -0.4439 
     40 CA         25.0480  -29.8573  -42.7679 C.3       6 UNK         0.0297 
     41 CB         24.1880  -29.8912  -44.0483 C.3       6 UNK        -0.2006 
     42 C          25.6054  -31.2445  -42.3894 C.2       6 UNK         0.4892 
     43 O          25.6853  -32.1281  -43.2448 O.2       6 UNK        -0.5089 
     44 N          25.9386  -31.4182  -41.1004 N.am      7 UNK        -0.4243 
     45 CA         26.3528  -32.6430  -40.3997 C.3       7 UNK         0.0196 
     46 CB         27.6618  -33.2151  -40.9778 C.3       7 UNK        -0.2007 
     47 C          25.2614  -33.7278  -40.3172 C.2       7 UNK         0.5020 
     48 O          25.0767  -34.3109  -39.2491 O.2       7 UNK        -0.5147 
     49 N          24.5543  -33.9727  -41.4271 N.am      8 UNK        -0.4734 
     50 CA         23.5172  -34.9933  -41.5977 C.3       8 UNK         0.0238 
     51 CB         23.0074  -34.9542  -43.0476 C.3       8 UNK        -0.1912 
     52 C          22.3414  -34.8777  -40.6146 C.2       8 UNK         0.5038 
     53 O          21.8473  -35.9089  -40.1556 O.2       8 UNK        -0.5046 
     54 N          21.9270  -33.6434  -40.3020 N.am      9 UNK        -0.4200 
     55 CA         20.8601  -33.3550  -39.3295 C.3       9 UNK         0.0839 
     56 C          21.3613  -33.2686  -37.8577 C.2       9 UNK         0.5513 
     57 N          22.6398  -33.4812  -37.5648 N.am      9 UNK        -0.7519 
     58 O          20.5687  -33.0116  -36.9553 O.2       9 UNK        -0.4960 
     59 C59        20.0310  -32.1052  -39.7248 C.3       10 UNK        -0.0876 
     60 S60        19.3732  -32.1968  -41.4254 S.3       10 UNK        -0.2414 
     61 C61        18.8341  -30.4785  -41.6553 C.3       10 UNK         0.0169 
     62 H62        16.3723  -24.4988  -49.7817 H         1 UNK         0.0903 
     63 H63        15.0758  -24.0501  -48.6725 H         1 UNK         0.0903 
     64 H64        16.5308  -23.0565  -48.7761 H         1 UNK         0.0903 
     65 H65        15.0499  -25.3337  -46.8424 H         1 UNK         0.3096 
     66 H66        17.4005  -26.8696  -46.0403 H         1 UNK         0.1121 
     67 H67        14.4698  -26.9362  -45.1752 H         1 UNK         0.0849 
     68 H68        15.6788  -27.9016  -44.3821 H         1 UNK         0.0849 
     69 H69        15.2274  -30.5192  -45.1197 H         1 UNK         0.0865 
     70 H70        16.0870  -30.9436  -46.5760 H         1 UNK         0.0865 
     71 H71        16.6178  -30.7019  -43.2334 H         1 UNK         0.1346 
     72 H72        20.7270  -29.5134  -43.3298 H         1 UNK         0.1412 
     73 H73        18.3102  -29.1367  -46.8554 H         1 UNK         0.1426 
     74 H74        20.7600  -28.8413  -46.9617 H         1 UNK         0.0716 
     75 H75        21.7574  -29.0142  -45.5437 H         1 UNK         0.0716 
     76 H76        22.4906  -26.8389  -43.9850 H         1 UNK         0.0695 
     77 H77        20.9197  -27.2816  -43.3663 H         1 UNK         0.0695 
     78 H78        21.8152  -24.4320  -44.0316 H         1 UNK         0.0983 
     79 H79        19.1423  -25.4952  -43.4248 H         1 UNK         0.3095 
     80 H80        17.4358  -23.6215  -42.6059 H         1 UNK         0.0454 
     81 H81        17.7221  -21.5423  -44.8375 H         1 UNK         0.0851 
     82 H82        17.7539  -21.2160  -43.1101 H         1 UNK         0.0851 
     83 H83        16.2799  -21.8046  -43.8562 H         1 UNK         0.0851 
     84 H84        16.9960  -23.8211  -45.4930 H         1 UNK         0.2976 
     85 H85        23.6235  -24.8040  -42.5830 H         1 UNK         0.3116 
     86 H86        23.0583  -24.6627  -39.6992 H         1 UNK         0.0646 
     87 H87        25.6943  -24.6458  -41.2662 H         1 UNK         0.0847 
     88 H88        25.5199  -24.3565  -39.5414 H         1 UNK         0.0847 
     89 H89        24.8254  -23.2242  -40.6881 H         1 UNK         0.0847 
     90 H90        21.9291  -26.8330  -40.2433 H         1 UNK         0.3040 
     91 H91        21.5840  -28.9697  -39.8879 H         1 UNK         0.1015 
     92 H92        24.2863  -29.0681  -38.4453 H         1 UNK         0.0786 
     93 H93        23.0248  -30.2866  -38.3501 H         1 UNK         0.0786 
     94 H94        22.7326  -28.6780  -37.7101 H         1 UNK         0.0786 
     95 H95        24.7071  -28.3414  -41.3202 H         1 UNK         0.3172 
     96 H96        25.9160  -29.2275  -42.9678 H         1 UNK         0.0595 
     97 H97        23.3100  -30.5273  -43.9296 H         1 UNK         0.0839 
     98 H98        24.7568  -30.2764  -44.8954 H         1 UNK         0.0839 
     99 H99        23.8484  -28.8923  -44.3191 H         1 UNK         0.0839 
    100 H100       25.8058  -30.6169  -40.4993 H         1 UNK         0.2998 
    101 H101       26.5588  -32.3351  -39.3731 H         1 UNK         0.0822 
    102 H102       28.4552  -32.4677  -40.9774 H         1 UNK         0.0787 
    103 H103       28.0115  -34.0595  -40.3823 H         1 UNK         0.0787 
    104 H104       27.5378  -33.5722  -42.0005 H         1 UNK         0.0787 
    105 H105       24.8003  -33.4245  -42.2485 H         1 UNK         0.3055 
    106 H106       23.9876  -35.9634  -41.4242 H         1 UNK         0.1106 
    107 H107       22.5611  -33.9888  -43.2909 H         1 UNK         0.0828 
    108 H108       22.2466  -35.7177  -43.2159 H         1 UNK         0.0828 
    109 H109       23.8136  -35.1393  -43.7577 H         1 UNK         0.0828 
    110 H110       22.3748  -32.8391  -40.7264 H         1 UNK         0.2931 
    111 H111       20.1619  -34.1940  -39.3404 H         1 UNK         0.0412 
    112 H112       23.3085  -33.7358  -38.2815 H         1 UNK         0.3472 
    113 H113       22.9368  -33.4254  -36.6035 H         1 UNK         0.3472 
    114 H114       20.6422  -31.2084  -39.6245 H         1 UNK         0.0970 
    115 H115       19.1863  -31.9756  -39.0455 H         1 UNK         0.0970 
    116 H116       17.8909  -30.3229  -41.1295 H         1 UNK         0.0612 
    117 H117       19.5565  -29.8002  -41.1992 H         1 UNK         0.0612 
@<TRIPOS>BOND
     1    1    2 1    
     2    1   62 1    
     3    1   63 1    
     4    1   64 1    
     5    2    3 2    
     6    2    4 am   BACKBONE|DICT|INTERRES
     7    4    5 1    
     8    4   65 1    
     9    5    6 1    
    10    5   25 1    
    11    5   66 1    
    12    6    7 1    
    13    6   67 1    
    14    6   68 1    
    15    7    8 1    
    16    8    9 1    
    17    8   69 1    
    18    8   70 1    
    19    9   10 ar   
    20    9   14 ar   
    21   10   11 ar   
    22   10   71 1    
    23   11   12 ar   
    24   11   61 1    
    25   12   13 ar   
    26   12   72 1    
    27   13   14 ar   
    28   13   15 1    
    29   14   73 1    
    30   15   16 1    
    31   15   74 1    
    32   15   75 1    
    33   16   17 1    
    34   17   18 1    
    35   17   76 1    
    36   17   77 1    
    37   18   19 1    
    38   18   27 1    
    39   18   78 1    
    40   19   20 am   BACKBONE|DICT|INTERRES
    41   19   79 1    
    42   20   21 2    
    43   20   22 1    
    44   22   23 1    
    45   22   24 1    
    46   22   80 1    
    47   23   81 1    
    48   23   82 1    
    49   23   83 1    
    50   24   25 am   BACKBONE|DICT|INTERRES
    51   24   84 1    
    52   25   26 2    
    53   27   28 2    
    54   27   29 am   BACKBONE|DICT|INTERRES
    55   29   30 1    
    56   29   85 1    
    57   30   31 1    
    58   30   32 1    
    59   30   86 1    
    60   31   87 1    
    61   31   88 1    
    62   31   89 1    
    63   32   33 2    
    64   32   34 am   BACKBONE|DICT|INTERRES
    65   34   35 1    
    66   34   90 1    
    67   35   36 1    
    68   35   37 1    
    69   35   91 1    
    70   36   92 1    
    71   36   93 1    
    72   36   94 1    
    73   37   38 2    
    74   37   39 am   BACKBONE|DICT|INTERRES
    75   39   40 1    
    76   39   95 1    
    77   40   41 1    
    78   40   42 1    
    79   40   96 1    
    80   41   97 1    
    81   41   98 1    
    82   41   99 1    
    83   42   43 2    
    84   42   44 am   BACKBONE|DICT|INTERRES
    85   44   45 1    
    86   44  100 1    
    87   45   46 1    
    88   45   47 1    
    89   45  101 1    
    90   46  102 1    
    91   46  103 1    
    92   46  104 1    
    93   47   48 2    
    94   47   49 am   BACKBONE|DICT|INTERRES
    95   49   50 1    
    96   49  105 1    
    97   50   51 1    
    98   50   52 1    
    99   50  106 1    
   100   51  107 1    
   101   51  108 1    
   102   51  109 1    
   103   52   53 2    
   104   52   54 am   BACKBONE|DICT|INTERRES
   105   54   55 1    
   106   54  110 1    
   107   55   56 1    
   108   55   59 1    
   109   55  111 1    
   110   56   57 am   BACKBONE|DICT|INTERRES
   111   56   58 2    
   112   57  112 1    
   113   57  113 1    
   114   59   60 1    
   115   59  114 1    
   116   59  115 1    
   117   60   61 1    
   118   61  116 1    
   119   61  117 1    
@<TRIPOS>SUBSTRUCTURE
     1 UNK         1 GROUP             0       ****    0 ROOT    
