@<TRIPOS>MOLECULE
3R8
117   119    1
SMALL
USER_CHARGES


@<TRIPOS>ATOM
      1 CA         16.6296  -21.8209  -43.0208 C.3       0 UNK        -0.2013 
      2 C          17.3257  -22.7082  -44.0418 C.2       0 UNK         0.4866 
      3 O          18.0802  -22.2075  -44.8763 O.2       0 UNK        -0.5176 
      4 N          17.0708  -24.0209  -43.9887 N.am      1 UNK        -0.4884 
      5 CA         17.7035  -25.0428  -44.8265 C.3       1 UNK         0.0853 
      6 C6         16.9216  -26.3879  -44.8178 C.3       10 UNK        -0.0849 
      7 S7         16.2175  -26.8754  -43.1979 S.3       10 UNK        -0.2776 
      8 C8         15.5129  -28.5200  -43.5559 C.3       10 UNK         0.0316 
      9 C9         16.5970  -29.5857  -43.5922 C.ar      10 UNK        -0.0863 
     10 C10        16.9981  -30.2303  -42.4171 C.ar      10 UNK        -0.1009 
     11 C11        18.0719  -31.1263  -42.4303 C.ar      10 UNK        -0.0712 
     12 C12        18.7208  -31.4004  -43.6369 C.ar      10 UNK        -0.0894 
     13 C13        18.2974  -30.7967  -44.8224 C.ar      10 UNK        -0.0745 
     14 C14        17.2288  -29.8991  -44.7968 C.ar      10 UNK        -0.0972 
     15 C15        19.0085  -31.0804  -46.1317 C.3       10 UNK         0.0209 
     16 S16        20.1156  -29.7090  -46.5725 S.3       10 UNK        -0.2568 
     17 C17        21.5414  -29.9907  -45.4613 C.3       10 UNK        -0.0983 
     18 CA         21.9076  -28.8157  -44.5074 C.3       3 UNK         0.0876 
     19 N          21.5370  -27.4998  -45.0333 N.am      3 UNK        -0.4424 
     20 C          22.1204  -26.3489  -44.6832 C.2       2 UNK         0.4918 
     21 O          23.0549  -26.2755  -43.8877 O.2       2 UNK        -0.4875 
     22 CA         21.5394  -25.0615  -45.2880 C.3       2 UNK         0.0481 
     23 CB         22.2103  -24.7551  -46.6357 C.3       2 UNK        -0.1831 
     24 N          20.0808  -25.0791  -45.4556 N.am      2 UNK        -0.4498 
     25 C          19.1944  -25.2080  -44.4562 C.2       1 UNK         0.5027 
     26 O          19.5184  -25.4397  -43.2890 O.2       1 UNK        -0.4969 
     27 C          21.4840  -29.0339  -43.0356 C.2       3 UNK         0.5005 
     28 O          22.0767  -29.8940  -42.3799 O.2       3 UNK        -0.5279 
     29 N          20.5443  -28.2296  -42.5083 N.am      4 UNK        -0.4463 
     30 CA         20.2650  -28.1559  -41.0698 C.3       4 UNK         0.0283 
     31 CB         18.8688  -27.5759  -40.8025 C.3       4 UNK        -0.1875 
     32 C          21.3194  -27.3074  -40.3499 C.2       4 UNK         0.4949 
     33 O          21.7971  -27.7138  -39.2924 O.2       4 UNK        -0.5039 
     34 N          21.6847  -26.1613  -40.9451 N.am      5 UNK        -0.4663 
     35 CA         22.7108  -25.2466  -40.4303 C.3       5 UNK         0.0242 
     36 CB         22.7054  -23.9471  -41.2513 C.3       5 UNK        -0.1982 
     37 C          24.1137  -25.8787  -40.4017 C.2       5 UNK         0.5017 
     38 O          24.8474  -25.6859  -39.4323 O.2       5 UNK        -0.5012 
     39 N          24.4365  -26.6595  -41.4419 N.am      6 UNK        -0.4439 
     40 CA         25.6442  -27.4846  -41.5376 C.3       6 UNK         0.0297 
     41 CB         25.8621  -27.8820  -43.0066 C.3       6 UNK        -0.2006 
     42 C          25.6082  -28.7434  -40.6468 C.2       6 UNK         0.4892 
     43 O          26.6544  -29.3686  -40.4703 O.2       6 UNK        -0.5089 
     44 N          24.4244  -29.0924  -40.1175 N.am      7 UNK        -0.4243 
     45 CA         24.1226  -30.2504  -39.2693 C.3       7 UNK         0.0196 
     46 CB         24.8005  -30.1074  -37.8898 C.3       7 UNK        -0.2007 
     47 C          24.4282  -31.5907  -39.9634 C.2       7 UNK         0.5020 
     48 O          25.0947  -32.4500  -39.3832 O.2       7 UNK        -0.5147 
     49 N          23.9420  -31.7361  -41.2029 N.am      8 UNK        -0.4734 
     50 CA         24.0544  -32.9556  -42.0009 C.3       8 UNK         0.0238 
     51 CB         24.1199  -32.5805  -43.4953 C.3       8 UNK        -0.1912 
     52 C          22.8957  -33.9033  -41.6486 C.2       8 UNK         0.5038 
     53 O          23.0216  -34.6861  -40.7064 O.2       8 UNK        -0.5046 
     54 N          21.7854  -33.8021  -42.3921 N.am      9 UNK        -0.4200 
     55 CA         20.5428  -34.5742  -42.2058 C.3       9 UNK         0.0839 
     56 C          20.6512  -36.1002  -42.5125 C.2       9 UNK         0.5513 
     57 N          21.6982  -36.5661  -43.1830 N.am      9 UNK        -0.7519 
     58 O          19.7579  -36.8719  -42.1726 O.2       9 UNK        -0.4960 
     59 C59        19.8436  -34.2525  -40.8445 C.3       10 UNK        -0.0876 
     60 S60        18.1802  -33.5345  -41.0638 S.3       10 UNK        -0.2414 
     61 C61        18.5691  -31.7561  -41.1384 C.3       10 UNK         0.0169 
     62 H62        16.0178  -21.0746  -43.5268 H         1 UNK         0.0903 
     63 H63        15.9841  -22.3942  -42.3555 H         1 UNK         0.0903 
     64 H64        17.3680  -21.3006  -42.4113 H         1 UNK         0.0903 
     65 H65        16.4672  -24.3896  -43.2662 H         1 UNK         0.3096 
     66 H66        17.6688  -24.6689  -45.8526 H         1 UNK         0.1121 
     67 H67        17.5478  -27.1937  -45.2019 H         1 UNK         0.0849 
     68 H68        16.0859  -26.3124  -45.5154 H         1 UNK         0.0849 
     69 H69        14.7814  -28.7661  -42.7847 H         1 UNK         0.0865 
     70 H70        14.9634  -28.4929  -44.4982 H         1 UNK         0.0865 
     71 H71        16.5066  -29.9942  -41.4832 H         1 UNK         0.1346 
     72 H72        19.5639  -32.0736  -43.6494 H         1 UNK         0.1412 
     73 H73        16.9165  -29.4162  -45.7126 H         1 UNK         0.1426 
     74 H74        18.2703  -31.2071  -46.9250 H         1 UNK         0.0716 
     75 H75        19.5693  -32.0153  -46.0848 H         1 UNK         0.0716 
     76 H76        22.3928  -30.1812  -46.1166 H         1 UNK         0.0695 
     77 H77        21.4042  -30.9226  -44.9118 H         1 UNK         0.0695 
     78 H78        22.9984  -28.8197  -44.4587 H         1 UNK         0.0983 
     79 H79        20.7794  -27.4913  -45.7017 H         1 UNK         0.3095 
     80 H80        21.7759  -24.2461  -44.6014 H         1 UNK         0.0454 
     81 H81        21.9828  -25.5147  -47.3846 H         1 UNK         0.0851 
     82 H82        23.2957  -24.7164  -46.5310 H         1 UNK         0.0851 
     83 H83        21.8920  -23.7892  -47.0281 H         1 UNK         0.0851 
     84 H84        19.7377  -24.8866  -46.3860 H         1 UNK         0.2976 
     85 H85        20.1115  -27.5222  -43.0892 H         1 UNK         0.3116 
     86 H86        20.2922  -29.1652  -40.6538 H         1 UNK         0.0646 
     87 H87        18.1016  -28.1225  -41.3401 H         1 UNK         0.0847 
     88 H88        18.7896  -26.5283  -41.0915 H         1 UNK         0.0847 
     89 H89        18.6228  -27.6350  -39.7418 H         1 UNK         0.0847 
     90 H90        21.2191  -25.8942  -41.8038 H         1 UNK         0.3040 
     91 H91        22.4442  -24.9990  -39.4003 H         1 UNK         0.1015 
     92 H92        23.4230  -23.2308  -40.8489 H         1 UNK         0.0786 
     93 H93        21.7256  -23.4694  -41.2323 H         1 UNK         0.0786 
     94 H94        22.9720  -24.1221  -42.2936 H         1 UNK         0.0786 
     95 H95        23.8068  -26.6726  -42.2421 H         1 UNK         0.3172 
     96 H96        26.4955  -26.8801  -41.2179 H         1 UNK         0.0595 
     97 H97        25.0662  -28.5327  -43.3682 H         1 UNK         0.0839 
     98 H98        26.8022  -28.4215  -43.1296 H         1 UNK         0.0839 
     99 H99        25.9036  -27.0071  -43.6558 H         1 UNK         0.0839 
    100 H100       23.6317  -28.4950  -40.3131 H         1 UNK         0.2998 
    101 H101       23.0437  -30.2346  -39.1064 H         1 UNK         0.0822 
    102 H102       24.5310  -29.1644  -37.4140 H         1 UNK         0.0787 
    103 H103       24.4912  -30.9091  -37.2181 H         1 UNK         0.0787 
    104 H104       25.8876  -30.1471  -37.9651 H         1 UNK         0.0787 
    105 H105       23.3569  -30.9953  -41.5878 H         1 UNK         0.3055 
    106 H106       24.9823  -33.4751  -41.7497 H         1 UNK         0.1106 
    107 H107       23.2780  -31.9642  -43.8078 H         1 UNK         0.0828 
    108 H108       24.1364  -33.4706  -44.1258 H         1 UNK         0.0828 
    109 H109       25.0290  -32.0193  -43.7126 H         1 UNK         0.0828 
    110 H110       21.7833  -33.1406  -43.1531 H         1 UNK         0.2931 
    111 H111       19.8996  -34.2206  -43.0109 H         1 UNK         0.0412 
    112 H112       22.4341  -35.9467  -43.4811 H         1 UNK         0.3472 
    113 H113       21.7538  -37.5517  -43.3877 H         1 UNK         0.3472 
    114 H114       19.7425  -35.1429  -40.2214 H         1 UNK         0.0970 
    115 H115       20.4387  -33.5711  -40.2352 H         1 UNK         0.0970 
    116 H116       19.6447  -31.5901  -41.0635 H         1 UNK         0.0612 
    117 H117       18.1255  -31.2632  -40.2720 H         1 UNK         0.0612 
@<TRIPOS>BOND
     1    1    2 1    
     2    1   62 1    
     3    1   63 1    
     4    1   64 1    
     5    2    3 2    
     6    2    4 am   BACKBONE|DICT|INTERRES
     7    4    5 1    
     8    4   65 1    
     9    5    6 1    
    10    5   25 1    
    11    5   66 1    
    12    6    7 1    
    13    6   67 1    
    14    6   68 1    
    15    7    8 1    
    16    8    9 1    
    17    8   69 1    
    18    8   70 1    
    19    9   10 ar   
    20    9   14 ar   
    21   10   11 ar   
    22   10   71 1    
    23   11   12 ar   
    24   11   61 1    
    25   12   13 ar   
    26   12   72 1    
    27   13   14 ar   
    28   13   15 1    
    29   14   73 1    
    30   15   16 1    
    31   15   74 1    
    32   15   75 1    
    33   16   17 1    
    34   17   18 1    
    35   17   76 1    
    36   17   77 1    
    37   18   19 1    
    38   18   27 1    
    39   18   78 1    
    40   19   20 am   BACKBONE|DICT|INTERRES
    41   19   79 1    
    42   20   21 2    
    43   20   22 1    
    44   22   23 1    
    45   22   24 1    
    46   22   80 1    
    47   23   81 1    
    48   23   82 1    
    49   23   83 1    
    50   24   25 am   BACKBONE|DICT|INTERRES
    51   24   84 1    
    52   25   26 2    
    53   27   28 2    
    54   27   29 am   BACKBONE|DICT|INTERRES
    55   29   30 1    
    56   29   85 1    
    57   30   31 1    
    58   30   32 1    
    59   30   86 1    
    60   31   87 1    
    61   31   88 1    
    62   31   89 1    
    63   32   33 2    
    64   32   34 am   BACKBONE|DICT|INTERRES
    65   34   35 1    
    66   34   90 1    
    67   35   36 1    
    68   35   37 1    
    69   35   91 1    
    70   36   92 1    
    71   36   93 1    
    72   36   94 1    
    73   37   38 2    
    74   37   39 am   BACKBONE|DICT|INTERRES
    75   39   40 1    
    76   39   95 1    
    77   40   41 1    
    78   40   42 1    
    79   40   96 1    
    80   41   97 1    
    81   41   98 1    
    82   41   99 1    
    83   42   43 2    
    84   42   44 am   BACKBONE|DICT|INTERRES
    85   44   45 1    
    86   44  100 1    
    87   45   46 1    
    88   45   47 1    
    89   45  101 1    
    90   46  102 1    
    91   46  103 1    
    92   46  104 1    
    93   47   48 2    
    94   47   49 am   BACKBONE|DICT|INTERRES
    95   49   50 1    
    96   49  105 1    
    97   50   51 1    
    98   50   52 1    
    99   50  106 1    
   100   51  107 1    
   101   51  108 1    
   102   51  109 1    
   103   52   53 2    
   104   52   54 am   BACKBONE|DICT|INTERRES
   105   54   55 1    
   106   54  110 1    
   107   55   56 1    
   108   55   59 1    
   109   55  111 1    
   110   56   57 am   BACKBONE|DICT|INTERRES
   111   56   58 2    
   112   57  112 1    
   113   57  113 1    
   114   59   60 1    
   115   59  114 1    
   116   59  115 1    
   117   60   61 1    
   118   61  116 1    
   119   61  117 1    
@<TRIPOS>SUBSTRUCTURE
     1 UNK         1 GROUP             0       ****    0 ROOT    
