@<TRIPOS>MOLECULE
3R8
117   119    1
SMALL
USER_CHARGES


@<TRIPOS>ATOM
      1 CA         21.2682  -22.0175  -46.3255 C.3       0 UNK        -0.2013 
      2 C          21.4870  -23.2584  -45.4734 C.2       0 UNK         0.4866 
      3 O          22.1350  -23.1784  -44.4301 O.2       0 UNK        -0.5176 
      4 N          20.9526  -24.4066  -45.9101 N.am      1 UNK        -0.4884 
      5 CA         21.0368  -25.6929  -45.2063 C.3       1 UNK         0.0853 
      6 C6         20.6765  -26.8835  -46.1328 C.3       10 UNK        -0.0849 
      7 S7         19.0272  -26.7337  -46.9093 S.3       10 UNK        -0.2776 
      8 C8         18.8453  -28.3626  -47.6972 C.3       10 UNK         0.0316 
      9 C9         18.4742  -29.4486  -46.6969 C.ar      10 UNK        -0.0863 
     10 C10        19.4215  -30.3979  -46.2978 C.ar      10 UNK        -0.1009 
     11 C11        19.0625  -31.4324  -45.4284 C.ar      10 UNK        -0.0712 
     12 C12        17.7480  -31.5134  -44.9632 C.ar      10 UNK        -0.0894 
     13 C13        16.8025  -30.5485  -45.3197 C.ar      10 UNK        -0.0745 
     14 C14        17.1692  -29.5224  -46.1962 C.ar      10 UNK        -0.0972 
     15 C15        15.3947  -30.6164  -44.7420 C.3       10 UNK         0.0209 
     16 S16        15.4019  -30.5892  -42.9162 S.3       10 UNK        -0.2568 
     17 C17        15.8505  -28.8575  -42.5577 C.3       10 UNK        -0.0983 
     18 CA         17.3843  -28.5953  -42.5083 C.3       3 UNK         0.0876 
     19 N          17.7159  -27.2362  -42.9415 N.am      3 UNK        -0.4424 
     20 C          17.4386  -26.0952  -42.2948 C.2       2 UNK         0.4918 
     21 O          16.7173  -26.0355  -41.2987 O.2       2 UNK        -0.4875 
     22 CA         18.1012  -24.8014  -42.8191 C.3       2 UNK         0.0481 
     23 CB         18.7351  -23.9987  -41.6658 C.3       2 UNK        -0.1831 
     24 N          19.0826  -24.9786  -43.9016 N.am      2 UNK        -0.4498 
     25 C          20.1960  -25.7307  -43.9157 C.2       1 UNK         0.5027 
     26 O          20.5408  -26.4700  -42.9911 O.2       1 UNK        -0.4969 
     27 C          18.0687  -28.9703  -41.1663 C.2       3 UNK         0.5005 
     28 O          17.5361  -29.7899  -40.4155 O.2       3 UNK        -0.5279 
     29 N          19.2358  -28.3649  -40.8790 N.am      4 UNK        -0.4463 
     30 CA         20.0002  -28.5600  -39.6409 C.3       4 UNK         0.0283 
     31 CB         19.2446  -27.9983  -38.4184 C.3       4 UNK        -0.1875 
     32 C          21.3968  -27.9289  -39.7111 C.2       4 UNK         0.4949 
     33 O          22.3597  -28.5498  -39.2620 O.2       4 UNK        -0.5039 
     34 N          21.4942  -26.7091  -40.2605 N.am      5 UNK        -0.4663 
     35 CA         22.7363  -25.9296  -40.3532 C.3       5 UNK         0.0242 
     36 CB         22.4225  -24.4982  -40.8171 C.3       5 UNK        -0.1982 
     37 C          23.8108  -26.5680  -41.2495 C.2       5 UNK         0.5017 
     38 O          24.9988  -26.3429  -41.0142 O.2       5 UNK        -0.5012 
     39 N          23.3916  -27.3939  -42.2184 N.am      6 UNK        -0.4439 
     40 CA         24.2480  -28.2447  -43.0522 C.3       6 UNK         0.0297 
     41 CB         23.4576  -28.6864  -44.2991 C.3       6 UNK        -0.2006 
     42 C          24.8312  -29.4464  -42.2747 C.2       6 UNK         0.4892 
     43 O          24.6363  -30.5908  -42.6849 O.2       6 UNK        -0.5089 
     44 N          25.5176  -29.1670  -41.1560 N.am      7 UNK        -0.4243 
     45 CA         26.2010  -30.1068  -40.2544 C.3       7 UNK         0.0196 
     46 CB         27.4980  -30.6174  -40.9167 C.3       7 UNK        -0.2007 
     47 C          25.2996  -31.2563  -39.7572 C.2       7 UNK         0.5020 
     48 O          25.7324  -32.4106  -39.7294 O.2       7 UNK        -0.5147 
     49 N          24.0389  -30.9296  -39.4298 N.am      8 UNK        -0.4734 
     50 CA         22.9550  -31.8496  -39.0518 C.3       8 UNK         0.0238 
     51 CB         23.2397  -32.4885  -37.6759 C.3       8 UNK        -0.1912 
     52 C          22.6169  -32.9001  -40.1325 C.2       8 UNK         0.5038 
     53 O          22.0462  -33.9416  -39.8034 O.2       8 UNK        -0.5046 
     54 N          22.9811  -32.6146  -41.3914 N.am      9 UNK        -0.4200 
     55 CA         22.8822  -33.5027  -42.5592 C.3       9 UNK         0.0839 
     56 C          23.8288  -34.7400  -42.4927 C.2       9 UNK         0.5513 
     57 N          24.8673  -34.7356  -41.6629 N.am      9 UNK        -0.7519 
     58 O          23.6415  -35.7093  -43.2239 O.2       9 UNK        -0.4960 
     59 C59        21.4172  -33.8638  -42.9341 C.3       10 UNK        -0.0876 
     60 S60        20.3817  -32.3821  -43.1978 S.3       10 UNK        -0.2414 
     61 C61        20.0795  -32.4744  -44.9898 C.3       10 UNK         0.0169 
     62 H62        22.2266  -21.6043  -46.6388 H         1 UNK         0.0903 
     63 H63        20.6837  -22.2337  -47.2195 H         1 UNK         0.0903 
     64 H64        20.7406  -21.2567  -45.7509 H         1 UNK         0.0903 
     65 H65        20.4327  -24.4224  -46.7774 H         1 UNK         0.3096 
     66 H66        22.0742  -25.8149  -44.8886 H         1 UNK         0.1121 
     67 H67        20.7303  -27.8266  -45.5851 H         1 UNK         0.0849 
     68 H68        21.4193  -26.9620  -46.9283 H         1 UNK         0.0849 
     69 H69        18.0652  -28.2978  -48.4572 H         1 UNK         0.0865 
     70 H70        19.7629  -28.6171  -48.2301 H         1 UNK         0.0865 
     71 H71        20.4339  -30.3398  -46.6741 H         1 UNK         0.1346 
     72 H72        17.4695  -32.3120  -44.2887 H         1 UNK         0.1412 
     73 H73        16.4413  -28.7787  -46.4916 H         1 UNK         0.1426 
     74 H74        14.7732  -29.8014  -45.1160 H         1 UNK         0.0716 
     75 H75        14.9235  -31.5414  -45.0770 H         1 UNK         0.0716 
     76 H76        15.3757  -28.5561  -41.6223 H         1 UNK         0.0695 
     77 H77        15.3874  -28.2386  -43.3279 H         1 UNK         0.0695 
     78 H78        17.8668  -29.2376  -43.2434 H         1 UNK         0.0983 
     79 H79        18.3150  -27.1721  -43.7519 H         1 UNK         0.3095 
     80 H80        17.2959  -24.1989  -43.2413 H         1 UNK         0.0454 
     81 H81        19.2105  -23.0871  -42.0280 H         1 UNK         0.0851 
     82 H82        19.4868  -24.5811  -41.1358 H         1 UNK         0.0851 
     83 H83        17.9831  -23.7005  -40.9343 H         1 UNK         0.0851 
     84 H84        18.8889  -24.4551  -44.7444 H         1 UNK         0.2976 
     85 H85        19.6448  -27.7511  -41.5762 H         1 UNK         0.3116 
     86 H86        20.1389  -29.6339  -39.5005 H         1 UNK         0.0646 
     87 H87        18.3242  -28.5474  -38.2223 H         1 UNK         0.0847 
     88 H88        19.8519  -28.0698  -37.5148 H         1 UNK         0.0847 
     89 H89        18.9831  -26.9483  -38.5544 H         1 UNK         0.0847 
     90 H90        20.6678  -26.2732  -40.6410 H         1 UNK         0.3040 
     91 H91        23.1593  -25.8721  -39.3476 H         1 UNK         0.1015 
     92 H92        21.9917  -24.4784  -41.8182 H         1 UNK         0.0786 
     93 H93        23.3291  -23.8922  -40.8468 H         1 UNK         0.0786 
     94 H94        21.7284  -24.0022  -40.1387 H         1 UNK         0.0786 
     95 H95        22.3908  -27.4849  -42.3420 H         1 UNK         0.3172 
     96 H96        25.0973  -27.6494  -43.3937 H         1 UNK         0.0595 
     97 H97        22.5428  -29.2185  -44.0336 H         1 UNK         0.0839 
     98 H98        24.0512  -29.3530  -44.9264 H         1 UNK         0.0839 
     99 H99        23.1910  -27.8339  -44.9195 H         1 UNK         0.0839 
    100 H100       25.5778  -28.1846  -40.9015 H         1 UNK         0.2998 
    101 H101       26.4817  -29.5368  -39.3675 H         1 UNK         0.0822 
    102 H102       28.0770  -31.2317  -40.2259 H         1 UNK         0.0787 
    103 H103       27.2869  -31.2262  -41.7968 H         1 UNK         0.0787 
    104 H104       28.1377  -29.7909  -41.2263 H         1 UNK         0.0787 
    105 H105       23.7563  -29.9545  -39.4924 H         1 UNK         0.3055 
    106 H106       22.0579  -31.2381  -38.9487 H         1 UNK         0.1106 
    107 H107       23.4585  -31.7300  -36.9244 H         1 UNK         0.0828 
    108 H108       22.3781  -33.0543  -37.3195 H         1 UNK         0.0828 
    109 H109       24.0848  -33.1763  -37.7158 H         1 UNK         0.0828 
    110 H110       23.4867  -31.7531  -41.5697 H         1 UNK         0.2931 
    111 H111       23.2770  -32.9146  -43.3882 H         1 UNK         0.0412 
    112 H112       25.4795  -35.5354  -41.6347 H         1 UNK         0.3472 
    113 H113       25.0485  -33.9395  -41.0624 H         1 UNK         0.3472 
    114 H114       20.9587  -34.4725  -42.1538 H         1 UNK         0.0970 
    115 H115       21.3964  -34.4777  -43.8361 H         1 UNK         0.0970 
    116 H116       19.7030  -33.4655  -45.2472 H         1 UNK         0.0612 
    117 H117       21.0254  -32.3473  -45.5188 H         1 UNK         0.0612 
@<TRIPOS>BOND
     1    1    2 1    
     2    1   62 1    
     3    1   63 1    
     4    1   64 1    
     5    2    3 2    
     6    2    4 am   BACKBONE|DICT|INTERRES
     7    4    5 1    
     8    4   65 1    
     9    5    6 1    
    10    5   25 1    
    11    5   66 1    
    12    6    7 1    
    13    6   67 1    
    14    6   68 1    
    15    7    8 1    
    16    8    9 1    
    17    8   69 1    
    18    8   70 1    
    19    9   10 ar   
    20    9   14 ar   
    21   10   11 ar   
    22   10   71 1    
    23   11   12 ar   
    24   11   61 1    
    25   12   13 ar   
    26   12   72 1    
    27   13   14 ar   
    28   13   15 1    
    29   14   73 1    
    30   15   16 1    
    31   15   74 1    
    32   15   75 1    
    33   16   17 1    
    34   17   18 1    
    35   17   76 1    
    36   17   77 1    
    37   18   19 1    
    38   18   27 1    
    39   18   78 1    
    40   19   20 am   BACKBONE|DICT|INTERRES
    41   19   79 1    
    42   20   21 2    
    43   20   22 1    
    44   22   23 1    
    45   22   24 1    
    46   22   80 1    
    47   23   81 1    
    48   23   82 1    
    49   23   83 1    
    50   24   25 am   BACKBONE|DICT|INTERRES
    51   24   84 1    
    52   25   26 2    
    53   27   28 2    
    54   27   29 am   BACKBONE|DICT|INTERRES
    55   29   30 1    
    56   29   85 1    
    57   30   31 1    
    58   30   32 1    
    59   30   86 1    
    60   31   87 1    
    61   31   88 1    
    62   31   89 1    
    63   32   33 2    
    64   32   34 am   BACKBONE|DICT|INTERRES
    65   34   35 1    
    66   34   90 1    
    67   35   36 1    
    68   35   37 1    
    69   35   91 1    
    70   36   92 1    
    71   36   93 1    
    72   36   94 1    
    73   37   38 2    
    74   37   39 am   BACKBONE|DICT|INTERRES
    75   39   40 1    
    76   39   95 1    
    77   40   41 1    
    78   40   42 1    
    79   40   96 1    
    80   41   97 1    
    81   41   98 1    
    82   41   99 1    
    83   42   43 2    
    84   42   44 am   BACKBONE|DICT|INTERRES
    85   44   45 1    
    86   44  100 1    
    87   45   46 1    
    88   45   47 1    
    89   45  101 1    
    90   46  102 1    
    91   46  103 1    
    92   46  104 1    
    93   47   48 2    
    94   47   49 am   BACKBONE|DICT|INTERRES
    95   49   50 1    
    96   49  105 1    
    97   50   51 1    
    98   50   52 1    
    99   50  106 1    
   100   51  107 1    
   101   51  108 1    
   102   51  109 1    
   103   52   53 2    
   104   52   54 am   BACKBONE|DICT|INTERRES
   105   54   55 1    
   106   54  110 1    
   107   55   56 1    
   108   55   59 1    
   109   55  111 1    
   110   56   57 am   BACKBONE|DICT|INTERRES
   111   56   58 2    
   112   57  112 1    
   113   57  113 1    
   114   59   60 1    
   115   59  114 1    
   116   59  115 1    
   117   60   61 1    
   118   61  116 1    
   119   61  117 1    
@<TRIPOS>SUBSTRUCTURE
     1 UNK         1 GROUP             0       ****    0 ROOT    
