@<TRIPOS>MOLECULE
3R8
117   119    1
SMALL
USER_CHARGES


@<TRIPOS>ATOM
      1 CA         14.7397  -23.7309  -46.0094 C.3       0 UNK        -0.2013 
      2 C          15.8334  -24.5208  -45.3062 C.2       0 UNK         0.4866 
      3 O          16.9995  -24.4244  -45.6887 O.2       0 UNK        -0.5176 
      4 N          15.4646  -25.3062  -44.2864 N.am      1 UNK        -0.4884 
      5 CA         16.3822  -26.1201  -43.4803 C.3       1 UNK         0.0853 
      6 C6         15.6164  -27.1239  -42.5824 C.3       10 UNK        -0.0849 
      7 S7         14.5775  -28.2835  -43.5292 S.3       10 UNK        -0.2776 
      8 C8         15.5174  -29.8436  -43.3740 C.3       10 UNK         0.0316 
      9 C9         16.7036  -30.0052  -44.3278 C.ar      10 UNK        -0.0863 
     10 C10        17.6789  -30.9596  -44.0175 C.ar      10 UNK        -0.1009 
     11 C11        18.7325  -31.2332  -44.9001 C.ar      10 UNK        -0.0712 
     12 C12        18.8015  -30.5274  -46.1034 C.ar      10 UNK        -0.0894 
     13 C13        17.8456  -29.5613  -46.4282 C.ar      10 UNK        -0.0745 
     14 C14        16.8007  -29.3038  -45.5373 C.ar      10 UNK        -0.0972 
     15 C15        17.9012  -28.8474  -47.7730 C.3       10 UNK         0.0209 
     16 S16        18.7180  -27.2231  -47.6740 S.3       10 UNK        -0.2568 
     17 C17        20.4500  -27.6907  -47.3333 C.3       10 UNK        -0.0983 
     18 CA         20.9888  -27.0923  -46.0107 C.3       3 UNK         0.0876 
     19 N          20.0846  -27.2929  -44.8688 N.am      3 UNK        -0.4424 
     20 C          20.1611  -26.5777  -43.7397 C.2       2 UNK         0.4918 
     21 O          20.9863  -25.6828  -43.5469 O.2       2 UNK        -0.4875 
     22 CA         19.1714  -26.9270  -42.6248 C.3       2 UNK         0.0481 
     23 CB         19.9194  -27.5102  -41.4171 C.3       2 UNK        -0.1831 
     24 N          18.4955  -25.6987  -42.2072 N.am      2 UNK        -0.4498 
     25 C          17.2997  -25.2373  -42.5983 C.2       1 UNK         0.5027 
     26 O          16.8894  -24.1393  -42.2171 O.2       1 UNK        -0.4969 
     27 C          22.4054  -27.6253  -45.7087 C.2       3 UNK         0.5005 
     28 O          23.3852  -27.0722  -46.2097 O.2       3 UNK        -0.5279 
     29 N          22.4802  -28.6673  -44.8689 N.am      4 UNK        -0.4463 
     30 CA         23.7056  -29.2365  -44.3176 C.3       4 UNK         0.0283 
     31 CB         23.8057  -30.7216  -44.7102 C.3       4 UNK        -0.1875 
     32 C          23.6916  -29.0188  -42.7984 C.2       4 UNK         0.4949 
     33 O          23.6239  -29.9764  -42.0256 O.2       4 UNK        -0.5039 
     34 N          23.7373  -27.7446  -42.3871 N.am      5 UNK        -0.4663 
     35 CA         23.7767  -27.3253  -40.9806 C.3       5 UNK         0.0242 
     36 CB         23.6863  -25.7938  -40.8984 C.3       5 UNK        -0.1982 
     37 C          25.0178  -27.8381  -40.2293 C.2       5 UNK         0.5017 
     38 O          24.9127  -28.1809  -39.0524 O.2       5 UNK        -0.5012 
     39 N          26.1493  -27.9476  -40.9411 N.am      6 UNK        -0.4439 
     40 CA         27.4034  -28.5305  -40.4524 C.3       6 UNK         0.0297 
     41 CB         28.5188  -28.2580  -41.4744 C.3       6 UNK        -0.2006 
     42 C          27.3122  -30.0391  -40.1476 C.2       6 UNK         0.4892 
     43 O          28.0900  -30.5306  -39.3297 O.2       6 UNK        -0.5089 
     44 N          26.3634  -30.7384  -40.7873 N.am      7 UNK        -0.4243 
     45 CA         26.0460  -32.1464  -40.5355 C.3       7 UNK         0.0196 
     46 CB         25.6281  -32.8065  -41.8614 C.3       7 UNK        -0.2007 
     47 C          24.9416  -32.3156  -39.4741 C.2       7 UNK         0.5020 
     48 O          24.5716  -33.4531  -39.1822 O.2       7 UNK        -0.5147 
     49 N          24.4247  -31.2004  -38.9314 N.am      8 UNK        -0.4734 
     50 CA         23.3195  -31.1019  -37.9711 C.3       8 UNK         0.0238 
     51 CB         23.7093  -31.7245  -36.6129 C.3       8 UNK        -0.1912 
     52 C          21.9915  -31.6481  -38.5316 C.2       8 UNK         0.5038 
     53 O          21.2444  -32.3072  -37.8059 O.2       8 UNK        -0.5046 
     54 N          21.7213  -31.3610  -39.8140 N.am      9 UNK        -0.4200 
     55 CA         20.5045  -31.7834  -40.5300 C.3       9 UNK         0.0839 
     56 C          19.1836  -31.0884  -40.0730 C.2       9 UNK         0.5513 
     57 N          19.2227  -30.0836  -39.2064 N.am      9 UNK        -0.7519 
     58 O          18.0993  -31.4754  -40.4984 O.2       9 UNK        -0.4960 
     59 C59        20.7152  -31.7077  -42.0671 C.3       10 UNK        -0.0876 
     60 S60        19.8365  -33.0257  -42.9670 S.3       10 UNK        -0.2414 
     61 C61        19.7753  -32.3269  -44.6519 C.3       10 UNK         0.0169 
     62 H62        13.7567  -23.9227  -45.5793 H         1 UNK         0.0903 
     63 H63        14.9408  -22.6627  -45.9331 H         1 UNK         0.0903 
     64 H64        14.7052  -23.9970  -47.0655 H         1 UNK         0.0903 
     65 H65        14.4942  -25.3424  -44.0086 H         1 UNK         0.3096 
     66 H66        16.9956  -26.6697  -44.1950 H         1 UNK         0.1121 
     67 H67        16.3066  -27.6943  -41.9581 H         1 UNK         0.0849 
     68 H68        14.9671  -26.5891  -41.8861 H         1 UNK         0.0849 
     69 H69        14.8276  -30.6667  -43.5653 H         1 UNK         0.0865 
     70 H70        15.8466  -29.9645  -42.3403 H         1 UNK         0.0865 
     71 H71        17.5827  -31.5194  -43.0981 H         1 UNK         0.1346 
     72 H72        19.5886  -30.7601  -46.8074 H         1 UNK         0.1412 
     73 H73        16.0457  -28.5815  -45.8147 H         1 UNK         0.1426 
     74 H74        16.8877  -28.7038  -48.1506 H         1 UNK         0.0716 
     75 H75        18.4116  -29.4643  -48.5145 H         1 UNK         0.0716 
     76 H76        20.5509  -28.7752  -47.3414 H         1 UNK         0.0695 
     77 H77        21.0552  -27.3377  -48.1704 H         1 UNK         0.0695 
     78 H78        21.0847  -26.0143  -46.1629 H         1 UNK         0.0983 
     79 H79        19.3585  -27.9854  -44.9892 H         1 UNK         0.3095 
     80 H80        18.4719  -27.6880  -42.9704 H         1 UNK         0.0454 
     81 H81        20.4506  -28.4243  -41.6823 H         1 UNK         0.0851 
     82 H82        20.6535  -26.8106  -41.0166 H         1 UNK         0.0851 
     83 H83        19.2259  -27.7538  -40.6135 H         1 UNK         0.0851 
     84 H84        19.0676  -25.0770  -41.6539 H         1 UNK         0.2976 
     85 H85        21.6161  -29.0274  -44.4912 H         1 UNK         0.3116 
     86 H86        24.5853  -28.7239  -44.7124 H         1 UNK         0.0646 
     87 H87        24.7390  -31.1550  -44.3502 H         1 UNK         0.0847 
     88 H88        23.7906  -30.8455  -45.7930 H         1 UNK         0.0847 
     89 H89        22.9901  -31.3125  -44.2958 H         1 UNK         0.0847 
     90 H90        23.7496  -27.0114  -43.0830 H         1 UNK         0.3040 
     91 H91        22.9025  -27.7494  -40.4824 H         1 UNK         0.1015 
     92 H92        22.7718  -25.4235  -41.3624 H         1 UNK         0.0786 
     93 H93        24.5306  -25.3108  -41.3918 H         1 UNK         0.0786 
     94 H94        23.6795  -25.4585  -39.8602 H         1 UNK         0.0786 
     95 H95        26.1341  -27.6364  -41.9017 H         1 UNK         0.3172 
     96 H96        27.6636  -28.0250  -39.5200 H         1 UNK         0.0595 
     97 H97        29.4735  -28.6534  -41.1242 H         1 UNK         0.0839 
     98 H98        28.6558  -27.1891  -41.6392 H         1 UNK         0.0839 
     99 H99        28.3084  -28.7240  -42.4380 H         1 UNK         0.0839 
    100 H100       25.7346  -30.2521  -41.4137 H         1 UNK         0.2998 
    101 H101       26.9350  -32.6621  -40.1662 H         1 UNK         0.0822 
    102 H102       24.6809  -32.4111  -42.2286 H         1 UNK         0.0787 
    103 H103       26.3803  -32.6588  -42.6364 H         1 UNK         0.0787 
    104 H104       25.5001  -33.8825  -41.7369 H         1 UNK         0.0787 
    105 H105       24.8084  -30.3102  -39.2272 H         1 UNK         0.3055 
    106 H106       23.1560  -30.0359  -37.8039 H         1 UNK         0.1106 
    107 H107       23.8296  -32.8061  -36.6801 H         1 UNK         0.0828 
    108 H108       24.6430  -31.3053  -36.2380 H         1 UNK         0.0828 
    109 H109       22.9440  -31.5306  -35.8603 H         1 UNK         0.0828 
    110 H110       22.3994  -30.8348  -40.3516 H         1 UNK         0.2931 
    111 H111       20.3755  -32.8364  -40.2714 H         1 UNK         0.0412 
    112 H112       18.3583  -29.6614  -38.9071 H         1 UNK         0.3472 
    113 H113       20.0979  -29.7706  -38.8212 H         1 UNK         0.3472 
    114 H114       21.7707  -31.8381  -42.3076 H         1 UNK         0.0970 
    115 H115       20.4356  -30.7295  -42.4607 H         1 UNK         0.0970 
    116 H116       20.7664  -31.9534  -44.9110 H         1 UNK         0.0612 
    117 H117       19.5692  -33.1469  -45.3410 H         1 UNK         0.0612 
@<TRIPOS>BOND
     1    1    2 1    
     2    1   62 1    
     3    1   63 1    
     4    1   64 1    
     5    2    3 2    
     6    2    4 am   BACKBONE|DICT|INTERRES
     7    4    5 1    
     8    4   65 1    
     9    5    6 1    
    10    5   25 1    
    11    5   66 1    
    12    6    7 1    
    13    6   67 1    
    14    6   68 1    
    15    7    8 1    
    16    8    9 1    
    17    8   69 1    
    18    8   70 1    
    19    9   10 ar   
    20    9   14 ar   
    21   10   11 ar   
    22   10   71 1    
    23   11   12 ar   
    24   11   61 1    
    25   12   13 ar   
    26   12   72 1    
    27   13   14 ar   
    28   13   15 1    
    29   14   73 1    
    30   15   16 1    
    31   15   74 1    
    32   15   75 1    
    33   16   17 1    
    34   17   18 1    
    35   17   76 1    
    36   17   77 1    
    37   18   19 1    
    38   18   27 1    
    39   18   78 1    
    40   19   20 am   BACKBONE|DICT|INTERRES
    41   19   79 1    
    42   20   21 2    
    43   20   22 1    
    44   22   23 1    
    45   22   24 1    
    46   22   80 1    
    47   23   81 1    
    48   23   82 1    
    49   23   83 1    
    50   24   25 am   BACKBONE|DICT|INTERRES
    51   24   84 1    
    52   25   26 2    
    53   27   28 2    
    54   27   29 am   BACKBONE|DICT|INTERRES
    55   29   30 1    
    56   29   85 1    
    57   30   31 1    
    58   30   32 1    
    59   30   86 1    
    60   31   87 1    
    61   31   88 1    
    62   31   89 1    
    63   32   33 2    
    64   32   34 am   BACKBONE|DICT|INTERRES
    65   34   35 1    
    66   34   90 1    
    67   35   36 1    
    68   35   37 1    
    69   35   91 1    
    70   36   92 1    
    71   36   93 1    
    72   36   94 1    
    73   37   38 2    
    74   37   39 am   BACKBONE|DICT|INTERRES
    75   39   40 1    
    76   39   95 1    
    77   40   41 1    
    78   40   42 1    
    79   40   96 1    
    80   41   97 1    
    81   41   98 1    
    82   41   99 1    
    83   42   43 2    
    84   42   44 am   BACKBONE|DICT|INTERRES
    85   44   45 1    
    86   44  100 1    
    87   45   46 1    
    88   45   47 1    
    89   45  101 1    
    90   46  102 1    
    91   46  103 1    
    92   46  104 1    
    93   47   48 2    
    94   47   49 am   BACKBONE|DICT|INTERRES
    95   49   50 1    
    96   49  105 1    
    97   50   51 1    
    98   50   52 1    
    99   50  106 1    
   100   51  107 1    
   101   51  108 1    
   102   51  109 1    
   103   52   53 2    
   104   52   54 am   BACKBONE|DICT|INTERRES
   105   54   55 1    
   106   54  110 1    
   107   55   56 1    
   108   55   59 1    
   109   55  111 1    
   110   56   57 am   BACKBONE|DICT|INTERRES
   111   56   58 2    
   112   57  112 1    
   113   57  113 1    
   114   59   60 1    
   115   59  114 1    
   116   59  115 1    
   117   60   61 1    
   118   61  116 1    
   119   61  117 1    
@<TRIPOS>SUBSTRUCTURE
     1 UNK         1 GROUP             0       ****    0 ROOT    
