@<TRIPOS>MOLECULE
3R8
117   119    1
SMALL
USER_CHARGES


@<TRIPOS>ATOM
      1 CA         22.8865  -27.1788  -47.3832 C.3       0 UNK        -0.2013 
      2 C          21.7085  -27.1271  -48.3546 C.2       0 UNK         0.4866 
      3 O          21.9173  -26.8696  -49.5386 O.2       0 UNK        -0.5176 
      4 N          20.4642  -27.3753  -47.9217 N.am      1 UNK        -0.4884 
      5 CA         20.0335  -27.6202  -46.5403 C.3       1 UNK         0.0853 
      6 C6         18.5831  -28.1604  -46.4804 C.3       10 UNK        -0.0849 
      7 S7         18.4617  -29.8550  -47.1418 S.3       10 UNK        -0.2776 
      8 C8         16.9222  -30.4601  -46.3725 C.3       10 UNK         0.0316 
      9 C9         16.9881  -30.4959  -44.8493 C.ar      10 UNK        -0.0863 
     10 C10        17.8227  -31.4078  -44.1950 C.ar      10 UNK        -0.1009 
     11 C11        17.8662  -31.4518  -42.7971 C.ar      10 UNK        -0.0712 
     12 C12        17.0698  -30.5777  -42.0517 C.ar      10 UNK        -0.0894 
     13 C13        16.2353  -29.6605  -42.6947 C.ar      10 UNK        -0.0745 
     14 C14        16.1966  -29.6259  -44.0921 C.ar      10 UNK        -0.0972 
     15 C15        15.3608  -28.7148  -41.8875 C.3       10 UNK         0.0209 
     16 S16        16.1321  -27.0763  -41.7191 S.3       10 UNK        -0.2568 
     17 C17        17.1766  -27.2653  -40.2298 C.3       10 UNK        -0.0983 
     18 CA         18.6977  -27.3949  -40.5184 C.3       3 UNK         0.0876 
     19 N          19.1515  -26.4589  -41.5528 N.am      3 UNK        -0.4424 
     20 C          20.3880  -26.3679  -42.0554 C.2       2 UNK         0.4918 
     21 O          21.3737  -26.9666  -41.6185 O.2       2 UNK        -0.4875 
     22 CA         20.5138  -25.5560  -43.3438 C.3       2 UNK         0.0481 
     23 CB         21.7836  -24.6877  -43.3869 C.3       2 UNK        -0.1831 
     24 N          20.5136  -26.5481  -44.4094 N.am      2 UNK        -0.4498 
     25 C          20.1467  -26.3480  -45.6775 C.2       1 UNK         0.5027 
     26 O          19.8644  -25.2463  -46.1539 O.2       1 UNK        -0.4969 
     27 C          19.4972  -27.2737  -39.2060 C.2       3 UNK         0.5005 
     28 O          19.9500  -28.2842  -38.6678 O.2       3 UNK        -0.5279 
     29 N          19.6738  -26.0303  -38.7334 N.am      4 UNK        -0.4463 
     30 CA         20.3854  -25.6994  -37.4941 C.3       4 UNK         0.0283 
     31 CB         20.0693  -24.2479  -37.0979 C.3       4 UNK        -0.1875 
     32 C          21.9063  -25.9102  -37.5857 C.2       4 UNK         0.4949 
     33 O          22.5380  -26.1927  -36.5678 O.2       4 UNK        -0.5039 
     34 N          22.4643  -25.7759  -38.7962 N.am      5 UNK        -0.4663 
     35 CA         23.8805  -26.0157  -39.0859 C.3       5 UNK         0.0242 
     36 CB         24.2818  -25.1857  -40.3165 C.3       5 UNK        -0.1982 
     37 C          24.1955  -27.5036  -39.3216 C.2       5 UNK         0.5017 
     38 O          25.3714  -27.8684  -39.3195 O.2       5 UNK        -0.5012 
     39 N          23.1525  -28.3183  -39.5508 N.am      6 UNK        -0.4439 
     40 CA         23.1837  -29.7369  -39.9255 C.3       6 UNK         0.0297 
     41 CB         23.7885  -30.5941  -38.7921 C.3       6 UNK        -0.2006 
     42 C          23.8608  -29.9834  -41.2909 C.2       6 UNK         0.4892 
     43 O          24.4284  -31.0555  -41.5080 O.2       6 UNK        -0.5089 
     44 N          23.7940  -28.9841  -42.1851 N.am      7 UNK        -0.4243 
     45 CA         24.6000  -28.8800  -43.4087 C.3       7 UNK         0.0196 
     46 CB         24.3675  -27.5025  -44.0461 C.3       7 UNK        -0.2007 
     47 C          24.3849  -29.9938  -44.4480 C.2       7 UNK         0.5020 
     48 O          25.2979  -30.2680  -45.2273 O.2       7 UNK        -0.5147 
     49 N          23.1986  -30.6101  -44.4440 N.am      8 UNK        -0.4734 
     50 CA         22.8412  -31.7461  -45.2993 C.3       8 UNK         0.0238 
     51 CB         21.8008  -31.2779  -46.3342 C.3       8 UNK        -0.1912 
     52 C          22.3169  -32.9296  -44.4660 C.2       8 UNK         0.5038 
     53 O          21.6463  -33.8040  -45.0210 O.2       8 UNK        -0.5046 
     54 N          22.5929  -32.9236  -43.1538 N.am      9 UNK        -0.4200 
     55 CA         21.9759  -33.8248  -42.1662 C.3       9 UNK         0.0839 
     56 C          22.9377  -34.9252  -41.6352 C.2       9 UNK         0.5513 
     57 N          24.1721  -35.0178  -42.1143 N.am      9 UNK        -0.7519 
     58 O          22.5522  -35.7216  -40.7830 O.2       9 UNK        -0.4960 
     59 C59        21.3083  -33.0342  -41.0055 C.3       10 UNK        -0.0876 
     60 S60        20.3078  -31.6102  -41.5638 S.3       10 UNK        -0.2414 
     61 C61        18.7787  -32.4371  -42.0881 C.3       10 UNK         0.0169 
     62 H62        23.8287  -27.1739  -47.9311 H         1 UNK         0.0903 
     63 H63        22.8846  -26.3099  -46.7257 H         1 UNK         0.0903 
     64 H64        22.8714  -28.0841  -46.7785 H         1 UNK         0.0903 
     65 H65        19.7124  -27.3357  -48.5950 H         1 UNK         0.3096 
     66 H66        20.6890  -28.3804  -46.1117 H         1 UNK         0.1121 
     67 H67        17.8981  -27.5117  -47.0301 H         1 UNK         0.0849 
     68 H68        18.2276  -28.1706  -45.4487 H         1 UNK         0.0849 
     69 H69        16.0906  -29.8400  -46.7111 H         1 UNK         0.0865 
     70 H70        16.7180  -31.4661  -46.7419 H         1 UNK         0.0865 
     71 H71        18.4413  -32.0793  -44.7755 H         1 UNK         0.1346 
     72 H72        17.1068  -30.6087  -40.9712 H         1 UNK         0.1412 
     73 H73        15.5481  -28.9166  -44.5887 H         1 UNK         0.1426 
     74 H74        15.1330  -29.1323  -40.9055 H         1 UNK         0.0716 
     75 H75        14.4001  -28.5950  -42.3909 H         1 UNK         0.0716 
     76 H76        16.9780  -26.3885  -39.6099 H         1 UNK         0.0695 
     77 H77        16.8325  -28.1212  -39.6465 H         1 UNK         0.0695 
     78 H78        18.8793  -28.3979  -40.9120 H         1 UNK         0.0983 
     79 H79        18.4074  -25.9559  -42.0157 H         1 UNK         0.3095 
     80 H80        19.6406  -24.9077  -43.4461 H         1 UNK         0.0454 
     81 H81        22.6905  -25.2855  -43.3306 H         1 UNK         0.0851 
     82 H82        21.8302  -24.1015  -44.3045 H         1 UNK         0.0851 
     83 H83        21.8030  -23.9856  -42.5527 H         1 UNK         0.0851 
     84 H84        20.6997  -27.4900  -44.0914 H         1 UNK         0.2976 
     85 H85        19.2735  -25.2604  -39.2511 H         1 UNK         0.3116 
     86 H86        20.0113  -26.3559  -36.7051 H         1 UNK         0.0646 
     87 H87        20.5645  -23.9829  -36.1626 H         1 UNK         0.0847 
     88 H88        18.9997  -24.1001  -36.9474 H         1 UNK         0.0847 
     89 H89        20.4049  -23.5382  -37.8553 H         1 UNK         0.0847 
     90 H90        21.8680  -25.5637  -39.5836 H         1 UNK         0.3040 
     91 H91        24.4828  -25.6836  -38.2371 H         1 UNK         0.1015 
     92 H92        24.0953  -24.1232  -40.1590 H         1 UNK         0.0786 
     93 H93        23.7338  -25.4965  -41.2052 H         1 UNK         0.0786 
     94 H94        25.3448  -25.2989  -40.5346 H         1 UNK         0.0786 
     95 H95        22.2318  -27.8967  -39.5507 H         1 UNK         0.3172 
     96 H96        22.1411  -30.0295  -40.0392 H         1 UNK         0.0595 
     97 H97        23.2735  -30.4196  -37.8476 H         1 UNK         0.0839 
     98 H98        24.8471  -30.3809  -38.6421 H         1 UNK         0.0839 
     99 H99        23.7082  -31.6587  -39.0109 H         1 UNK         0.0839 
    100 H100       23.2427  -28.1721  -41.9332 H         1 UNK         0.2998 
    101 H101       25.6474  -28.9369  -43.1036 H         1 UNK         0.0822 
    102 H102       24.6561  -26.6999  -43.3673 H         1 UNK         0.0787 
    103 H103       24.9617  -27.3833  -44.9533 H         1 UNK         0.0787 
    104 H104       23.3221  -27.3606  -44.3185 H         1 UNK         0.0787 
    105 H105       22.5141  -30.3312  -43.7540 H         1 UNK         0.3055 
    106 H106       23.7185  -32.1171  -45.8355 H         1 UNK         0.1106 
    107 H107       21.5419  -32.0790  -47.0282 H         1 UNK         0.0828 
    108 H108       20.8784  -30.9572  -45.8481 H         1 UNK         0.0828 
    109 H109       22.1767  -30.4483  -46.9328 H         1 UNK         0.0828 
    110 H110       23.2135  -32.2160  -42.7751 H         1 UNK         0.2931 
    111 H111       21.1734  -34.3820  -42.6532 H         1 UNK         0.0412 
    112 H112       24.7865  -35.7384  -41.7671 H         1 UNK         0.3472 
    113 H113       24.4956  -34.3713  -42.8163 H         1 UNK         0.3472 
    114 H114       20.6804  -33.6940  -40.4037 H         1 UNK         0.0970 
    115 H115       22.0711  -32.6507  -40.3284 H         1 UNK         0.0970 
    116 H116       19.0195  -33.2724  -42.7501 H         1 UNK         0.0612 
    117 H117       18.2734  -32.8601  -41.2164 H         1 UNK         0.0612 
@<TRIPOS>BOND
     1    1    2 1    
     2    1   62 1    
     3    1   63 1    
     4    1   64 1    
     5    2    3 2    
     6    2    4 am   BACKBONE|DICT|INTERRES
     7    4    5 1    
     8    4   65 1    
     9    5    6 1    
    10    5   25 1    
    11    5   66 1    
    12    6    7 1    
    13    6   67 1    
    14    6   68 1    
    15    7    8 1    
    16    8    9 1    
    17    8   69 1    
    18    8   70 1    
    19    9   10 ar   
    20    9   14 ar   
    21   10   11 ar   
    22   10   71 1    
    23   11   12 ar   
    24   11   61 1    
    25   12   13 ar   
    26   12   72 1    
    27   13   14 ar   
    28   13   15 1    
    29   14   73 1    
    30   15   16 1    
    31   15   74 1    
    32   15   75 1    
    33   16   17 1    
    34   17   18 1    
    35   17   76 1    
    36   17   77 1    
    37   18   19 1    
    38   18   27 1    
    39   18   78 1    
    40   19   20 am   BACKBONE|DICT|INTERRES
    41   19   79 1    
    42   20   21 2    
    43   20   22 1    
    44   22   23 1    
    45   22   24 1    
    46   22   80 1    
    47   23   81 1    
    48   23   82 1    
    49   23   83 1    
    50   24   25 am   BACKBONE|DICT|INTERRES
    51   24   84 1    
    52   25   26 2    
    53   27   28 2    
    54   27   29 am   BACKBONE|DICT|INTERRES
    55   29   30 1    
    56   29   85 1    
    57   30   31 1    
    58   30   32 1    
    59   30   86 1    
    60   31   87 1    
    61   31   88 1    
    62   31   89 1    
    63   32   33 2    
    64   32   34 am   BACKBONE|DICT|INTERRES
    65   34   35 1    
    66   34   90 1    
    67   35   36 1    
    68   35   37 1    
    69   35   91 1    
    70   36   92 1    
    71   36   93 1    
    72   36   94 1    
    73   37   38 2    
    74   37   39 am   BACKBONE|DICT|INTERRES
    75   39   40 1    
    76   39   95 1    
    77   40   41 1    
    78   40   42 1    
    79   40   96 1    
    80   41   97 1    
    81   41   98 1    
    82   41   99 1    
    83   42   43 2    
    84   42   44 am   BACKBONE|DICT|INTERRES
    85   44   45 1    
    86   44  100 1    
    87   45   46 1    
    88   45   47 1    
    89   45  101 1    
    90   46  102 1    
    91   46  103 1    
    92   46  104 1    
    93   47   48 2    
    94   47   49 am   BACKBONE|DICT|INTERRES
    95   49   50 1    
    96   49  105 1    
    97   50   51 1    
    98   50   52 1    
    99   50  106 1    
   100   51  107 1    
   101   51  108 1    
   102   51  109 1    
   103   52   53 2    
   104   52   54 am   BACKBONE|DICT|INTERRES
   105   54   55 1    
   106   54  110 1    
   107   55   56 1    
   108   55   59 1    
   109   55  111 1    
   110   56   57 am   BACKBONE|DICT|INTERRES
   111   56   58 2    
   112   57  112 1    
   113   57  113 1    
   114   59   60 1    
   115   59  114 1    
   116   59  115 1    
   117   60   61 1    
   118   61  116 1    
   119   61  117 1    
@<TRIPOS>SUBSTRUCTURE
     1 UNK         1 GROUP             0       ****    0 ROOT    
