@<TRIPOS>MOLECULE
3R8
117   119    1
SMALL
USER_CHARGES


@<TRIPOS>ATOM
      1 CA         15.1714  -23.3592  -41.7937 C.3       0 UNK        -0.2013 
      2 C          15.7997  -23.9890  -43.0280 C.2       0 UNK         0.4866 
      3 O          15.3957  -23.6756  -44.1485 O.2       0 UNK        -0.5176 
      4 N          16.7781  -24.8815  -42.8322 N.am      1 UNK        -0.4884 
      5 CA         17.5285  -25.5502  -43.8994 C.3       1 UNK         0.0853 
      6 C6         18.3773  -26.7254  -43.3507 C.3       10 UNK        -0.0849 
      7 S7         17.3399  -28.1089  -42.7774 S.3       10 UNK        -0.2776 
      8 C8         17.3023  -29.1691  -44.2595 C.3       10 UNK         0.0316 
      9 C9         18.5443  -30.0430  -44.3704 C.ar      10 UNK        -0.0863 
     10 C10        18.5747  -31.2862  -43.7348 C.ar      10 UNK        -0.1009 
     11 C11        19.6892  -32.1187  -43.8554 C.ar      10 UNK        -0.0712 
     12 C12        20.7912  -31.6856  -44.5986 C.ar      10 UNK        -0.0894 
     13 C13        20.7838  -30.4427  -45.2425 C.ar      10 UNK        -0.0745 
     14 C14        19.6432  -29.6339  -45.1336 C.ar      10 UNK        -0.0972 
     15 C15        22.0159  -30.0519  -46.0673 C.3       10 UNK         0.0209 
     16 S16        22.0332  -28.3612  -46.7666 S.3       10 UNK        -0.2568 
     17 C17        22.4641  -27.3718  -45.2979 C.3       10 UNK        -0.0983 
     18 CA         22.4763  -25.8474  -45.5786 C.3       3 UNK         0.0876 
     19 N          21.1692  -25.3898  -46.0577 N.am      3 UNK        -0.4424 
     20 C          20.8910  -24.1943  -46.5937 C.2       2 UNK         0.4918 
     21 O          21.7386  -23.3390  -46.8479 O.2       2 UNK        -0.4875 
     22 CA         19.4000  -23.8917  -46.8452 C.3       2 UNK         0.0481 
     23 CB         19.0418  -24.1552  -48.3161 C.3       2 UNK        -0.1831 
     24 N          18.4912  -24.6563  -45.9768 N.am      2 UNK        -0.4498 
     25 C          18.4419  -24.5548  -44.6390 C.2       1 UNK         0.5027 
     26 O          19.1461  -23.7807  -43.9869 O.2       1 UNK        -0.4969 
     27 C          22.9570  -25.0885  -44.3186 C.2       3 UNK         0.5005 
     28 O          24.1426  -25.1729  -43.9942 O.2       3 UNK        -0.5279 
     29 N          22.0437  -24.4005  -43.6097 N.am      4 UNK        -0.4463 
     30 CA         22.2116  -23.6396  -42.3625 C.3       4 UNK         0.0283 
     31 CB         23.2216  -22.4865  -42.5238 C.3       4 UNK        -0.1875 
     32 C          22.5394  -24.5123  -41.1393 C.2       4 UNK         0.4949 
     33 O          21.8172  -24.4589  -40.1445 O.2       4 UNK        -0.5039 
     34 N          23.6051  -25.3125  -41.2412 N.am      5 UNK        -0.4663 
     35 CA         24.0572  -26.2574  -40.2174 C.3       5 UNK         0.0242 
     36 CB         25.5813  -26.4206  -40.3460 C.3       5 UNK        -0.1982 
     37 C          23.3607  -27.6282  -40.3104 C.2       5 UNK         0.5017 
     38 O          23.5528  -28.4501  -39.4138 O.2       5 UNK        -0.5012 
     39 N          22.5953  -27.8574  -41.3898 N.am      6 UNK        -0.4439 
     40 CA         21.9856  -29.1311  -41.7902 C.3       6 UNK         0.0297 
     41 CB         20.8974  -29.5777  -40.7876 C.3       6 UNK        -0.2006 
     42 C          23.0775  -30.1803  -42.0820 C.2       6 UNK         0.4892 
     43 O          23.9914  -29.8842  -42.8545 O.2       6 UNK        -0.5089 
     44 N          22.9803  -31.3646  -41.4721 N.am      7 UNK        -0.4243 
     45 CA         23.9618  -32.4433  -41.5468 C.3       7 UNK         0.0196 
     46 CB         23.7796  -33.2447  -42.8548 C.3       7 UNK        -0.2007 
     47 C          23.8407  -33.2951  -40.2735 C.2       7 UNK         0.5020 
     48 O          23.4176  -32.7829  -39.2357 O.2       7 UNK        -0.5147 
     49 N          24.1838  -34.5866  -40.3686 N.am      8 UNK        -0.4734 
     50 CA         24.0431  -35.5782  -39.2923 C.3       8 UNK         0.0238 
     51 CB         24.8889  -36.8142  -39.6443 C.3       8 UNK        -0.1912 
     52 C          22.5825  -35.9840  -38.9978 C.2       8 UNK         0.5038 
     53 O          22.3430  -36.7005  -38.0246 O.2       8 UNK        -0.5046 
     54 N          21.6468  -35.5405  -39.8462 N.am      9 UNK        -0.4200 
     55 CA         20.1940  -35.6933  -39.7128 C.3       9 UNK         0.0839 
     56 C          19.6042  -35.0791  -38.4100 C.2       9 UNK         0.5513 
     57 N          18.4781  -35.6001  -37.9412 N.am      9 UNK        -0.7519 
     58 O          20.1309  -34.1254  -37.8405 O.2       9 UNK        -0.4960 
     59 C59        19.4684  -35.1666  -40.9806 C.3       10 UNK        -0.0876 
     60 S60        19.8800  -33.4381  -41.4228 S.3       10 UNK        -0.2414 
     61 C61        19.6698  -33.5043  -43.2266 C.3       10 UNK         0.0169 
     62 H62        15.3035  -22.2778  -41.8162 H         1 UNK         0.0903 
     63 H63        14.1030  -23.5718  -41.7663 H         1 UNK         0.0903 
     64 H64        15.6155  -23.7357  -40.8724 H         1 UNK         0.0903 
     65 H65        17.0732  -25.0980  -41.8909 H         1 UNK         0.3096 
     66 H66        16.8046  -25.9446  -44.6164 H         1 UNK         0.1121 
     67 H67        19.0737  -27.0967  -44.1014 H         1 UNK         0.0849 
     68 H68        18.9993  -26.3940  -42.5164 H         1 UNK         0.0849 
     69 H69        16.4154  -29.8029  -44.2098 H         1 UNK         0.0865 
     70 H70        17.1796  -28.5578  -45.1548 H         1 UNK         0.0865 
     71 H71        17.7218  -31.6165  -43.1573 H         1 UNK         0.1346 
     72 H72        21.6525  -32.3308  -44.6978 H         1 UNK         0.1412 
     73 H73        19.5959  -28.6882  -45.6507 H         1 UNK         0.1426 
     74 H74        22.1005  -30.7535  -46.8982 H         1 UNK         0.0716 
     75 H75        22.9133  -30.1872  -45.4615 H         1 UNK         0.0716 
     76 H76        21.7484  -27.6014  -44.5091 H         1 UNK         0.0695 
     77 H77        23.4398  -27.7098  -44.9416 H         1 UNK         0.0695 
     78 H78        23.2078  -25.6461  -46.3644 H         1 UNK         0.0983 
     79 H79        20.4106  -26.0446  -45.9538 H         1 UNK         0.3095 
     80 H80        19.2420  -22.8310  -46.6394 H         1 UNK         0.0454 
     81 H81        19.6831  -23.5771  -48.9831 H         1 UNK         0.0851 
     82 H82        19.1617  -25.2065  -48.5810 H         1 UNK         0.0851 
     83 H83        18.0127  -23.8681  -48.5328 H         1 UNK         0.0851 
     84 H84        17.8749  -25.3088  -46.4412 H         1 UNK         0.2976 
     85 H85        21.0923  -24.3832  -43.9625 H         1 UNK         0.3116 
     86 H86        21.2379  -23.1865  -42.1681 H         1 UNK         0.0646 
     87 H87        23.2604  -21.8765  -41.6204 H         1 UNK         0.0847 
     88 H88        22.9410  -21.8287  -43.3464 H         1 UNK         0.0847 
     89 H89        24.2335  -22.8451  -42.7132 H         1 UNK         0.0847 
     90 H90        24.1123  -25.2993  -42.1244 H         1 UNK         0.3040 
     91 H91        23.8378  -25.8490  -39.2281 H         1 UNK         0.1015 
     92 H92        26.0936  -25.4651  -40.2318 H         1 UNK         0.0786 
     93 H93        25.8610  -26.8387  -41.3141 H         1 UNK         0.0786 
     94 H94        25.9710  -27.0891  -39.5769 H         1 UNK         0.0786 
     95 H95        22.5428  -27.1115  -42.0661 H         1 UNK         0.3172 
     96 H96        21.4801  -28.9529  -42.7380 H         1 UNK         0.0595 
     97 H97        20.1611  -28.7884  -40.6355 H         1 UNK         0.0839 
     98 H98        21.3085  -29.8395  -39.8122 H         1 UNK         0.0839 
     99 H99        20.3523  -30.4437  -41.1647 H         1 UNK         0.0839 
    100 H100       22.2422  -31.5096  -40.7950 H         1 UNK         0.2998 
    101 H101       24.9629  -32.0070  -41.5365 H         1 UNK         0.0822 
    102 H102       23.8372  -32.5926  -43.7263 H         1 UNK         0.0787 
    103 H103       24.5613  -33.9943  -42.9806 H         1 UNK         0.0787 
    104 H104       22.8169  -33.7556  -42.8836 H         1 UNK         0.0787 
    105 H105       24.5243  -34.9297  -41.2560 H         1 UNK         0.3055 
    106 H106       24.4394  -35.1419  -38.3724 H         1 UNK         0.1106 
    107 H107       24.5382  -37.2973  -40.5571 H         1 UNK         0.0828 
    108 H108       25.9380  -36.5522  -39.7826 H         1 UNK         0.0828 
    109 H109       24.8474  -37.5576  -38.8468 H         1 UNK         0.0828 
    110 H110       21.9466  -34.9311  -40.5910 H         1 UNK         0.2931 
    111 H111       20.0131  -36.7688  -39.6586 H         1 UNK         0.0412 
    112 H112       18.0697  -35.2114  -37.1051 H         1 UNK         0.3472 
    113 H113       18.0315  -36.3793  -38.4000 H         1 UNK         0.3472 
    114 H114       18.3854  -35.2511  -40.8724 H         1 UNK         0.0970 
    115 H115       19.7249  -35.8116  -41.8226 H         1 UNK         0.0970 
    116 H116       18.7192  -33.9866  -43.4597 H         1 UNK         0.0612 
    117 H117       20.4491  -34.1351  -43.6568 H         1 UNK         0.0612 
@<TRIPOS>BOND
     1    1    2 1    
     2    1   62 1    
     3    1   63 1    
     4    1   64 1    
     5    2    3 2    
     6    2    4 am   BACKBONE|DICT|INTERRES
     7    4    5 1    
     8    4   65 1    
     9    5    6 1    
    10    5   25 1    
    11    5   66 1    
    12    6    7 1    
    13    6   67 1    
    14    6   68 1    
    15    7    8 1    
    16    8    9 1    
    17    8   69 1    
    18    8   70 1    
    19    9   10 ar   
    20    9   14 ar   
    21   10   11 ar   
    22   10   71 1    
    23   11   12 ar   
    24   11   61 1    
    25   12   13 ar   
    26   12   72 1    
    27   13   14 ar   
    28   13   15 1    
    29   14   73 1    
    30   15   16 1    
    31   15   74 1    
    32   15   75 1    
    33   16   17 1    
    34   17   18 1    
    35   17   76 1    
    36   17   77 1    
    37   18   19 1    
    38   18   27 1    
    39   18   78 1    
    40   19   20 am   BACKBONE|DICT|INTERRES
    41   19   79 1    
    42   20   21 2    
    43   20   22 1    
    44   22   23 1    
    45   22   24 1    
    46   22   80 1    
    47   23   81 1    
    48   23   82 1    
    49   23   83 1    
    50   24   25 am   BACKBONE|DICT|INTERRES
    51   24   84 1    
    52   25   26 2    
    53   27   28 2    
    54   27   29 am   BACKBONE|DICT|INTERRES
    55   29   30 1    
    56   29   85 1    
    57   30   31 1    
    58   30   32 1    
    59   30   86 1    
    60   31   87 1    
    61   31   88 1    
    62   31   89 1    
    63   32   33 2    
    64   32   34 am   BACKBONE|DICT|INTERRES
    65   34   35 1    
    66   34   90 1    
    67   35   36 1    
    68   35   37 1    
    69   35   91 1    
    70   36   92 1    
    71   36   93 1    
    72   36   94 1    
    73   37   38 2    
    74   37   39 am   BACKBONE|DICT|INTERRES
    75   39   40 1    
    76   39   95 1    
    77   40   41 1    
    78   40   42 1    
    79   40   96 1    
    80   41   97 1    
    81   41   98 1    
    82   41   99 1    
    83   42   43 2    
    84   42   44 am   BACKBONE|DICT|INTERRES
    85   44   45 1    
    86   44  100 1    
    87   45   46 1    
    88   45   47 1    
    89   45  101 1    
    90   46  102 1    
    91   46  103 1    
    92   46  104 1    
    93   47   48 2    
    94   47   49 am   BACKBONE|DICT|INTERRES
    95   49   50 1    
    96   49  105 1    
    97   50   51 1    
    98   50   52 1    
    99   50  106 1    
   100   51  107 1    
   101   51  108 1    
   102   51  109 1    
   103   52   53 2    
   104   52   54 am   BACKBONE|DICT|INTERRES
   105   54   55 1    
   106   54  110 1    
   107   55   56 1    
   108   55   59 1    
   109   55  111 1    
   110   56   57 am   BACKBONE|DICT|INTERRES
   111   56   58 2    
   112   57  112 1    
   113   57  113 1    
   114   59   60 1    
   115   59  114 1    
   116   59  115 1    
   117   60   61 1    
   118   61  116 1    
   119   61  117 1    
@<TRIPOS>SUBSTRUCTURE
     1 UNK         1 GROUP             0       ****    0 ROOT    
