@<TRIPOS>MOLECULE
3R8
117   119    1
SMALL
USER_CHARGES


@<TRIPOS>ATOM
      1 CA         17.1850  -23.5463  -49.7593 C.3       0 UNK        -0.2013 
      2 C          17.9094  -24.6304  -48.9753 C.2       0 UNK         0.4866 
      3 O          18.5537  -25.4930  -49.5731 O.2       0 UNK        -0.5176 
      4 N          17.8136  -24.5916  -47.6439 N.am      1 UNK        -0.4884 
      5 CA         18.4414  -25.5329  -46.7179 C.3       1 UNK         0.0853 
      6 C6         17.7080  -26.9050  -46.6531 C.3       10 UNK        -0.0849 
      7 S7         15.9597  -26.8016  -46.1244 S.3       10 UNK        -0.2776 
      8 C8         15.4663  -28.5528  -46.1583 C.3       10 UNK         0.0316 
      9 C9         15.9379  -29.3133  -44.9255 C.ar      10 UNK        -0.0863 
     10 C10        17.0846  -30.1129  -44.9818 C.ar      10 UNK        -0.1009 
     11 C11        17.4801  -30.8593  -43.8680 C.ar      10 UNK        -0.0712 
     12 C12        16.7159  -30.8121  -42.7002 C.ar      10 UNK        -0.0894 
     13 C13        15.5921  -29.9864  -42.6145 C.ar      10 UNK        -0.0745 
     14 C14        15.2040  -29.2442  -43.7353 C.ar      10 UNK        -0.0972 
     15 C15        14.7886  -29.9115  -41.3199 C.3       10 UNK         0.0209 
     16 S16        15.8272  -29.6112  -39.8464 S.3       10 UNK        -0.2568 
     17 C17        16.4828  -27.9418  -40.1783 C.3       10 UNK        -0.0983 
     18 CA         17.9605  -27.9581  -40.6569 C.3       3 UNK         0.0876 
     19 N          18.2817  -26.7147  -41.3562 N.am      3 UNK        -0.4424 
     20 C          19.1840  -26.6096  -42.3346 C.2       2 UNK         0.4918 
     21 O          19.8826  -27.5431  -42.7316 O.2       2 UNK        -0.4875 
     22 CA         19.3190  -25.2424  -43.0070 C.3       2 UNK         0.0481 
     23 CB         20.6285  -24.5461  -42.6042 C.3       2 UNK        -0.1831 
     24 N          19.3082  -25.5038  -44.4399 N.am      2 UNK        -0.4498 
     25 C          18.5536  -24.8638  -45.3365 C.2       1 UNK         0.5027 
     26 O          17.9382  -23.8180  -45.1032 O.2       1 UNK        -0.4969 
     27 C          18.9884  -28.1947  -39.5291 C.2       3 UNK         0.5005 
     28 O          18.6941  -27.9284  -38.3613 O.2       3 UNK        -0.5279 
     29 N          20.1975  -28.6361  -39.9002 N.am      4 UNK        -0.4463 
     30 CA         21.3092  -28.8848  -38.9861 C.3       4 UNK         0.0283 
     31 CB         22.1153  -27.5911  -38.7759 C.3       4 UNK        -0.1875 
     32 C          22.1927  -29.9972  -39.5556 C.2       4 UNK         0.4949 
     33 O          22.7053  -29.8539  -40.6672 O.2       4 UNK        -0.5039 
     34 N          22.3659  -31.0773  -38.7843 N.am      5 UNK        -0.4663 
     35 CA         23.2290  -32.2130  -39.1178 C.3       5 UNK         0.0242 
     36 CB         22.9717  -33.3550  -38.1222 C.3       5 UNK        -0.1982 
     37 C          24.7130  -31.8193  -39.1137 C.2       5 UNK         0.5017 
     38 O          25.1392  -31.0774  -38.2256 O.2       5 UNK        -0.5012 
     39 N          25.4632  -32.3138  -40.1077 N.am      6 UNK        -0.4439 
     40 CA         26.8931  -32.1042  -40.3813 C.3       6 UNK         0.0297 
     41 CB         27.7775  -32.5600  -39.2042 C.3       6 UNK        -0.2006 
     42 C          27.2500  -30.6753  -40.8291 C.2       6 UNK         0.4892 
     43 O          28.0710  -30.5198  -41.7335 O.2       6 UNK        -0.5089 
     44 N          26.6227  -29.6649  -40.2147 N.am      7 UNK        -0.4243 
     45 CA         26.7437  -28.2502  -40.5667 C.3       7 UNK         0.0196 
     46 CB         26.1079  -27.3994  -39.4566 C.3       7 UNK        -0.2007 
     47 C          26.1139  -27.9139  -41.9292 C.2       7 UNK         0.5020 
     48 O          26.6050  -27.0103  -42.6067 O.2       7 UNK        -0.5147 
     49 N          25.0533  -28.6382  -42.3081 N.am      8 UNK        -0.4734 
     50 CA         24.3601  -28.4822  -43.5849 C.3       8 UNK         0.0238 
     51 CB         23.1825  -27.5059  -43.4262 C.3       8 UNK        -0.1912 
     52 C          23.9065  -29.8398  -44.1318 C.2       8 UNK         0.5038 
     53 O          24.2735  -30.1877  -45.2549 O.2       8 UNK        -0.5046 
     54 N          23.1211  -30.5782  -43.3396 N.am      9 UNK        -0.4200 
     55 CA         22.5665  -31.8882  -43.7030 C.3       9 UNK         0.0839 
     56 C          23.6382  -32.9994  -43.5715 C.2       9 UNK         0.5513 
     57 N          23.8569  -33.7878  -44.6137 N.am      9 UNK        -0.7519 
     58 O          24.2367  -33.1782  -42.5121 O.2       9 UNK        -0.4960 
     59 C59        21.3119  -32.2423  -42.8637 C.3       10 UNK        -0.0876 
     60 S60        20.0375  -30.9408  -42.8900 S.3       10 UNK        -0.2414 
     61 C61        18.7388  -31.7091  -43.9016 C.3       10 UNK         0.0169 
     62 H62        16.6562  -22.8542  -49.1041 H         1 UNK         0.0903 
     63 H63        17.8963  -22.9741  -50.3543 H         1 UNK         0.0903 
     64 H64        16.4578  -23.9952  -50.4354 H         1 UNK         0.0903 
     65 H65        17.3095  -23.8470  -47.1762 H         1 UNK         0.3096 
     66 H66        19.4643  -25.7035  -47.0620 H         1 UNK         0.1121 
     67 H67        17.7391  -27.3803  -47.6346 H         1 UNK         0.0849 
     68 H68        18.2348  -27.5868  -45.9834 H         1 UNK         0.0849 
     69 H69        14.3782  -28.6063  -46.2185 H         1 UNK         0.0865 
     70 H70        15.8382  -29.0234  -47.0699 H         1 UNK         0.0865 
     71 H71        17.6657  -30.1585  -45.8927 H         1 UNK         0.1346 
     72 H72        17.0214  -31.3941  -41.8413 H         1 UNK         0.1412 
     73 H73        14.3240  -28.6169  -43.6880 H         1 UNK         0.1426 
     74 H74        14.2566  -30.8541  -41.1860 H         1 UNK         0.0716 
     75 H75        14.0258  -29.1334  -41.3786 H         1 UNK         0.0716 
     76 H76        16.3533  -27.3231  -39.2886 H         1 UNK         0.0695 
     77 H77        15.8518  -27.4836  -40.9419 H         1 UNK         0.0695 
     78 H78        18.0671  -28.7798  -41.3684 H         1 UNK         0.0983 
     79 H79        17.7727  -25.8934  -41.0637 H         1 UNK         0.3095 
     80 H80        18.4722  -24.6150  -42.7202 H         1 UNK         0.0454 
     81 H81        21.5014  -25.1458  -42.8613 H         1 UNK         0.0851 
     82 H82        20.6603  -24.3667  -41.5289 H         1 UNK         0.0851 
     83 H83        20.7297  -23.5802  -43.0990 H         1 UNK         0.0851 
     84 H84        19.7471  -26.3797  -44.6949 H         1 UNK         0.2976 
     85 H85        20.3840  -28.8090  -40.8836 H         1 UNK         0.3116 
     86 H86        20.9178  -29.2124  -38.0204 H         1 UNK         0.0646 
     87 H87        22.5265  -27.2163  -39.7144 H         1 UNK         0.0847 
     88 H88        22.9487  -27.7595  -38.0931 H         1 UNK         0.0847 
     89 H89        21.4980  -26.8036  -38.3436 H         1 UNK         0.0847 
     90 H90        21.9357  -31.0955  -37.8708 H         1 UNK         0.3040 
     91 H91        22.9662  -32.5635  -40.1152 H         1 UNK         0.1015 
     92 H92        21.9306  -33.6774  -38.1473 H         1 UNK         0.0786 
     93 H93        23.2089  -33.0599  -37.0990 H         1 UNK         0.0786 
     94 H94        23.5848  -34.2255  -38.3602 H         1 UNK         0.0786 
     95 H95        24.9814  -32.8291  -40.8441 H         1 UNK         0.3172 
     96 H96        27.1181  -32.7566  -41.2267 H         1 UNK         0.0595 
     97 H97        27.6402  -31.9363  -38.3205 H         1 UNK         0.0839 
     98 H98        28.8337  -32.5090  -39.4719 H         1 UNK         0.0839 
     99 H99        27.5642  -33.5915  -38.9237 H         1 UNK         0.0839 
    100 H100       25.9964  -29.9059  -39.4514 H         1 UNK         0.2998 
    101 H101       27.8066  -28.0057  -40.6233 H         1 UNK         0.0822 
    102 H102       26.5938  -27.5714  -38.4960 H         1 UNK         0.0787 
    103 H103       26.1967  -26.3352  -39.6796 H         1 UNK         0.0787 
    104 H104       25.0474  -27.6222  -39.3413 H         1 UNK         0.0787 
    105 H105       24.6957  -29.3502  -41.6834 H         1 UNK         0.3055 
    106 H106       25.0476  -28.0661  -44.3254 H         1 UNK         0.1106 
    107 H107       22.5923  -27.4431  -44.3413 H         1 UNK         0.0828 
    108 H108       22.5118  -27.8136  -42.6236 H         1 UNK         0.0828 
    109 H109       23.5365  -26.5012  -43.1964 H         1 UNK         0.0828 
    110 H110       22.8748  -30.2348  -42.4135 H         1 UNK         0.2931 
    111 H111       22.2480  -31.8333  -44.7464 H         1 UNK         0.0412 
    112 H112       23.3675  -33.6482  -45.4843 H         1 UNK         0.3472 
    113 H113       24.5391  -34.5259  -44.5349 H         1 UNK         0.3472 
    114 H114       20.8801  -33.1830  -43.2102 H         1 UNK         0.0970 
    115 H115       21.5767  -32.4056  -41.8206 H         1 UNK         0.0970 
    116 H116       18.5124  -32.7052  -43.5184 H         1 UNK         0.0612 
    117 H117       19.1018  -31.8353  -44.9227 H         1 UNK         0.0612 
@<TRIPOS>BOND
     1    1    2 1    
     2    1   62 1    
     3    1   63 1    
     4    1   64 1    
     5    2    3 2    
     6    2    4 am   BACKBONE|DICT|INTERRES
     7    4    5 1    
     8    4   65 1    
     9    5    6 1    
    10    5   25 1    
    11    5   66 1    
    12    6    7 1    
    13    6   67 1    
    14    6   68 1    
    15    7    8 1    
    16    8    9 1    
    17    8   69 1    
    18    8   70 1    
    19    9   10 ar   
    20    9   14 ar   
    21   10   11 ar   
    22   10   71 1    
    23   11   12 ar   
    24   11   61 1    
    25   12   13 ar   
    26   12   72 1    
    27   13   14 ar   
    28   13   15 1    
    29   14   73 1    
    30   15   16 1    
    31   15   74 1    
    32   15   75 1    
    33   16   17 1    
    34   17   18 1    
    35   17   76 1    
    36   17   77 1    
    37   18   19 1    
    38   18   27 1    
    39   18   78 1    
    40   19   20 am   BACKBONE|DICT|INTERRES
    41   19   79 1    
    42   20   21 2    
    43   20   22 1    
    44   22   23 1    
    45   22   24 1    
    46   22   80 1    
    47   23   81 1    
    48   23   82 1    
    49   23   83 1    
    50   24   25 am   BACKBONE|DICT|INTERRES
    51   24   84 1    
    52   25   26 2    
    53   27   28 2    
    54   27   29 am   BACKBONE|DICT|INTERRES
    55   29   30 1    
    56   29   85 1    
    57   30   31 1    
    58   30   32 1    
    59   30   86 1    
    60   31   87 1    
    61   31   88 1    
    62   31   89 1    
    63   32   33 2    
    64   32   34 am   BACKBONE|DICT|INTERRES
    65   34   35 1    
    66   34   90 1    
    67   35   36 1    
    68   35   37 1    
    69   35   91 1    
    70   36   92 1    
    71   36   93 1    
    72   36   94 1    
    73   37   38 2    
    74   37   39 am   BACKBONE|DICT|INTERRES
    75   39   40 1    
    76   39   95 1    
    77   40   41 1    
    78   40   42 1    
    79   40   96 1    
    80   41   97 1    
    81   41   98 1    
    82   41   99 1    
    83   42   43 2    
    84   42   44 am   BACKBONE|DICT|INTERRES
    85   44   45 1    
    86   44  100 1    
    87   45   46 1    
    88   45   47 1    
    89   45  101 1    
    90   46  102 1    
    91   46  103 1    
    92   46  104 1    
    93   47   48 2    
    94   47   49 am   BACKBONE|DICT|INTERRES
    95   49   50 1    
    96   49  105 1    
    97   50   51 1    
    98   50   52 1    
    99   50  106 1    
   100   51  107 1    
   101   51  108 1    
   102   51  109 1    
   103   52   53 2    
   104   52   54 am   BACKBONE|DICT|INTERRES
   105   54   55 1    
   106   54  110 1    
   107   55   56 1    
   108   55   59 1    
   109   55  111 1    
   110   56   57 am   BACKBONE|DICT|INTERRES
   111   56   58 2    
   112   57  112 1    
   113   57  113 1    
   114   59   60 1    
   115   59  114 1    
   116   59  115 1    
   117   60   61 1    
   118   61  116 1    
   119   61  117 1    
@<TRIPOS>SUBSTRUCTURE
     1 UNK         1 GROUP             0       ****    0 ROOT    
