@<TRIPOS>MOLECULE
3R8
117   119    1
SMALL
USER_CHARGES


@<TRIPOS>ATOM
      1 CA         16.6493  -22.8328  -41.7010 C.3       0 UNK        -0.2013 
      2 C          17.1031  -23.2936  -43.0781 C.2       0 UNK         0.4866 
      3 O          17.4399  -22.4626  -43.9226 O.2       0 UNK        -0.5176 
      4 N          17.1042  -24.6111  -43.3136 N.am      1 UNK        -0.4884 
      5 CA         17.5574  -25.2397  -44.5592 C.3       1 UNK         0.0853 
      6 C6         17.1654  -26.7350  -44.6260 C.3       10 UNK        -0.0849 
      7 S7         15.3840  -27.0719  -44.4015 S.3       10 UNK        -0.2776 
      8 C8         15.3871  -28.3088  -43.0449 C.3       10 UNK         0.0316 
      9 C9         16.3138  -29.5148  -43.2413 C.ar      10 UNK        -0.0863 
     10 C10        16.7481  -30.2311  -42.1200 C.ar      10 UNK        -0.1009 
     11 C11        17.6263  -31.3141  -42.2501 C.ar      10 UNK        -0.0712 
     12 C12        18.0892  -31.6677  -43.5218 C.ar      10 UNK        -0.0894 
     13 C13        17.6680  -30.9625  -44.6507 C.ar      10 UNK        -0.0745 
     14 C14        16.7530  -29.9186  -44.5069 C.ar      10 UNK        -0.0972 
     15 C15        18.1874  -31.3168  -46.0342 C.3       10 UNK         0.0209 
     16 S16        19.1139  -29.9314  -46.7733 S.3       10 UNK        -0.2568 
     17 C17        20.8007  -30.1571  -46.1034 C.3       10 UNK        -0.0983 
     18 CA         21.3751  -28.9585  -45.2917 C.3       3 UNK         0.0876 
     19 N          20.9650  -27.6562  -45.8274 N.am      3 UNK        -0.4424 
     20 C          21.6772  -26.5254  -45.7406 C.2       2 UNK         0.4918 
     21 O          22.7871  -26.4551  -45.2166 O.2       2 UNK        -0.4875 
     22 CA         21.0087  -25.2472  -46.2828 C.3       2 UNK         0.0481 
     23 CB         21.2106  -25.1335  -47.8020 C.3       2 UNK        -0.1831 
     24 N          19.5767  -25.1717  -45.9642 N.am      2 UNK        -0.4498 
     25 C          19.0886  -25.1315  -44.7157 C.2       1 UNK         0.5027 
     26 O          19.8051  -25.1177  -43.7119 O.2       1 UNK        -0.4969 
     27 C          21.1643  -29.0957  -43.7667 C.2       3 UNK         0.5005 
     28 O          21.6780  -30.0527  -43.1926 O.2       3 UNK        -0.5279 
     29 N          20.4800  -28.1419  -43.1137 N.am      4 UNK        -0.4463 
     30 CA         20.3631  -28.0980  -41.6503 C.3       4 UNK         0.0283 
     31 CB         19.0781  -27.3606  -41.2403 C.3       4 UNK        -0.1875 
     32 C          21.5872  -27.4506  -40.9776 C.2       4 UNK         0.4949 
     33 O          21.7437  -27.5949  -39.7638 O.2       4 UNK        -0.5039 
     34 N          22.4264  -26.7430  -41.7519 N.am      5 UNK        -0.4663 
     35 CA         23.6448  -26.0743  -41.2880 C.3       5 UNK         0.0242 
     36 CB         24.3026  -25.3318  -42.4612 C.3       5 UNK        -0.1982 
     37 C          24.6276  -27.0709  -40.6534 C.2       5 UNK         0.5017 
     38 O          24.9753  -28.0683  -41.2893 O.2       5 UNK        -0.5012 
     39 N          25.0020  -26.8080  -39.3925 N.am      6 UNK        -0.4439 
     40 CA         25.8339  -27.6518  -38.5208 C.3       6 UNK         0.0297 
     41 CB         27.2851  -27.7031  -39.0452 C.3       6 UNK        -0.2006 
     42 C          25.2570  -29.0635  -38.2656 C.2       6 UNK         0.4892 
     43 O          26.0092  -29.9574  -37.8745 O.2       6 UNK        -0.5089 
     44 N          23.9453  -29.2412  -38.4997 N.am      7 UNK        -0.4243 
     45 CA         23.1968  -30.5023  -38.4717 C.3       7 UNK         0.0196 
     46 CB         23.1000  -31.0560  -37.0342 C.3       7 UNK        -0.2007 
     47 C          23.7142  -31.5460  -39.4836 C.2       7 UNK         0.5020 
     48 O          23.5715  -32.7464  -39.2462 O.2       7 UNK        -0.5147 
     49 N          24.2799  -31.0921  -40.6127 N.am      8 UNK        -0.4734 
     50 CA         24.8276  -31.9281  -41.6908 C.3       8 UNK         0.0238 
     51 CB         25.8682  -31.1030  -42.4708 C.3       8 UNK        -0.1912 
     52 C          23.7408  -32.5278  -42.6123 C.2       8 UNK         0.5038 
     53 O          23.9140  -32.5543  -43.8330 O.2       8 UNK        -0.5046 
     54 N          22.6384  -32.9825  -42.0085 N.am      9 UNK        -0.4200 
     55 CA         21.4415  -33.5268  -42.6559 C.3       9 UNK         0.0839 
     56 C          21.7271  -34.8458  -43.4217 C.2       9 UNK         0.5513 
     57 N          21.1148  -35.0365  -44.5824 N.am      9 UNK        -0.7519 
     58 O          22.4574  -35.7156  -42.9505 O.2       9 UNK        -0.4960 
     59 C59        20.3049  -33.7295  -41.6196 C.3       10 UNK        -0.0876 
     60 S60        19.8390  -32.1830  -40.7566 S.3       10 UNK        -0.2414 
     61 C61        18.0351  -32.1134  -41.0162 C.3       10 UNK         0.0169 
     62 H62        15.7860  -22.1740  -41.7911 H         1 UNK         0.0903 
     63 H63        16.3715  -23.6702  -41.0612 H         1 UNK         0.0903 
     64 H64        17.4495  -22.2811  -41.2084 H         1 UNK         0.0903 
     65 H65        16.8116  -25.2470  -42.5869 H         1 UNK         0.3096 
     66 H66        17.0861  -24.7128  -45.3921 H         1 UNK         0.1121 
     67 H67        17.7298  -27.3000  -43.8843 H         1 UNK         0.0849 
     68 H68        17.4482  -27.1547  -45.5935 H         1 UNK         0.0849 
     69 H69        14.3685  -28.6742  -42.9085 H         1 UNK         0.0865 
     70 H70        15.6528  -27.7931  -42.1210 H         1 UNK         0.0865 
     71 H71        16.3979  -29.9433  -41.1379 H         1 UNK         0.1346 
     72 H72        18.7742  -32.4931  -43.6354 H         1 UNK         0.1412 
     73 H73        16.4178  -29.3998  -45.3935 H         1 UNK         0.1426 
     74 H74        17.3374  -31.5496  -46.6770 H         1 UNK         0.0716 
     75 H75        18.8083  -32.2135  -46.0132 H         1 UNK         0.0716 
     76 H76        21.4445  -30.3241  -46.9682 H         1 UNK         0.0695 
     77 H77        20.8565  -31.0870  -45.5339 H         1 UNK         0.0695 
     78 H78        22.4602  -29.0189  -45.4069 H         1 UNK         0.0983 
     79 H79        20.0690  -27.6431  -46.2931 H         1 UNK         0.3095 
     80 H80        21.4989  -24.3926  -45.8115 H         1 UNK         0.0454 
     81 H81        20.7191  -25.9446  -48.3405 H         1 UNK         0.0851 
     82 H82        22.2707  -25.1693  -48.0572 H         1 UNK         0.0851 
     83 H83        20.8203  -24.1905  -48.1850 H         1 UNK         0.0851 
     84 H84        18.9361  -25.1873  -46.7456 H         1 UNK         0.2976 
     85 H85        20.1382  -27.3381  -43.6221 H         1 UNK         0.3116 
     86 H86        20.2865  -29.1190  -41.2698 H         1 UNK         0.0646 
     87 H87        18.1958  -27.8344  -41.6642 H         1 UNK         0.0847 
     88 H88        19.0880  -26.3153  -41.5466 H         1 UNK         0.0847 
     89 H89        18.9550  -27.3751  -40.1565 H         1 UNK         0.0847 
     90 H90        22.2385  -26.6938  -42.7434 H         1 UNK         0.3040 
     91 H91        23.3460  -25.3364  -40.5405 H         1 UNK         0.1015 
     92 H92        25.1791  -24.7744  -42.1281 H         1 UNK         0.0786 
     93 H93        23.6162  -24.6177  -42.9170 H         1 UNK         0.0786 
     94 H94        24.6325  -26.0220  -43.2390 H         1 UNK         0.0786 
     95 H95        24.6347  -25.9734  -38.9549 H         1 UNK         0.3172 
     96 H96        25.8518  -27.1567  -37.5488 H         1 UNK         0.0595 
     97 H97        27.3563  -28.2533  -39.9842 H         1 UNK         0.0839 
     98 H98        27.9444  -28.1969  -38.3303 H         1 UNK         0.0839 
     99 H99        27.6840  -26.7025  -39.2112 H         1 UNK         0.0839 
    100 H100       23.4103  -28.4441  -38.8298 H         1 UNK         0.2998 
    101 H101       22.1843  -30.2562  -38.7963 H         1 UNK         0.0822 
    102 H102       22.7192  -30.3032  -36.3440 H         1 UNK         0.0787 
    103 H103       22.4204  -31.9079  -36.9884 H         1 UNK         0.0787 
    104 H104       24.0683  -31.3934  -36.6637 H         1 UNK         0.0787 
    105 H105       24.3446  -30.0895  -40.7544 H         1 UNK         0.3055 
    106 H106       25.3497  -32.7734  -41.2368 H         1 UNK         0.1106 
    107 H107       25.4031  -30.2644  -42.9909 H         1 UNK         0.0828 
    108 H108       26.3749  -31.7132  -43.2195 H         1 UNK         0.0828 
    109 H109       26.6353  -30.7010  -41.8086 H         1 UNK         0.0828 
    110 H110       22.6190  -32.9503  -40.9964 H         1 UNK         0.2931 
    111 H111       21.1139  -32.7803  -43.3817 H         1 UNK         0.0412 
    112 H112       21.2762  -35.8964  -45.0838 H         1 UNK         0.3472 
    113 H113       20.5122  -34.3335  -44.9791 H         1 UNK         0.3472 
    114 H114       19.4258  -34.1579  -42.1032 H         1 UNK         0.0970 
    115 H115       20.6080  -34.4566  -40.8636 H         1 UNK         0.0970 
    116 H116       17.5955  -31.6695  -40.1218 H         1 UNK         0.0612 
    117 H117       17.6219  -33.1205  -41.0805 H         1 UNK         0.0612 
@<TRIPOS>BOND
     1    1    2 1    
     2    1   62 1    
     3    1   63 1    
     4    1   64 1    
     5    2    3 2    
     6    2    4 am   BACKBONE|DICT|INTERRES
     7    4    5 1    
     8    4   65 1    
     9    5    6 1    
    10    5   25 1    
    11    5   66 1    
    12    6    7 1    
    13    6   67 1    
    14    6   68 1    
    15    7    8 1    
    16    8    9 1    
    17    8   69 1    
    18    8   70 1    
    19    9   10 ar   
    20    9   14 ar   
    21   10   11 ar   
    22   10   71 1    
    23   11   12 ar   
    24   11   61 1    
    25   12   13 ar   
    26   12   72 1    
    27   13   14 ar   
    28   13   15 1    
    29   14   73 1    
    30   15   16 1    
    31   15   74 1    
    32   15   75 1    
    33   16   17 1    
    34   17   18 1    
    35   17   76 1    
    36   17   77 1    
    37   18   19 1    
    38   18   27 1    
    39   18   78 1    
    40   19   20 am   BACKBONE|DICT|INTERRES
    41   19   79 1    
    42   20   21 2    
    43   20   22 1    
    44   22   23 1    
    45   22   24 1    
    46   22   80 1    
    47   23   81 1    
    48   23   82 1    
    49   23   83 1    
    50   24   25 am   BACKBONE|DICT|INTERRES
    51   24   84 1    
    52   25   26 2    
    53   27   28 2    
    54   27   29 am   BACKBONE|DICT|INTERRES
    55   29   30 1    
    56   29   85 1    
    57   30   31 1    
    58   30   32 1    
    59   30   86 1    
    60   31   87 1    
    61   31   88 1    
    62   31   89 1    
    63   32   33 2    
    64   32   34 am   BACKBONE|DICT|INTERRES
    65   34   35 1    
    66   34   90 1    
    67   35   36 1    
    68   35   37 1    
    69   35   91 1    
    70   36   92 1    
    71   36   93 1    
    72   36   94 1    
    73   37   38 2    
    74   37   39 am   BACKBONE|DICT|INTERRES
    75   39   40 1    
    76   39   95 1    
    77   40   41 1    
    78   40   42 1    
    79   40   96 1    
    80   41   97 1    
    81   41   98 1    
    82   41   99 1    
    83   42   43 2    
    84   42   44 am   BACKBONE|DICT|INTERRES
    85   44   45 1    
    86   44  100 1    
    87   45   46 1    
    88   45   47 1    
    89   45  101 1    
    90   46  102 1    
    91   46  103 1    
    92   46  104 1    
    93   47   48 2    
    94   47   49 am   BACKBONE|DICT|INTERRES
    95   49   50 1    
    96   49  105 1    
    97   50   51 1    
    98   50   52 1    
    99   50  106 1    
   100   51  107 1    
   101   51  108 1    
   102   51  109 1    
   103   52   53 2    
   104   52   54 am   BACKBONE|DICT|INTERRES
   105   54   55 1    
   106   54  110 1    
   107   55   56 1    
   108   55   59 1    
   109   55  111 1    
   110   56   57 am   BACKBONE|DICT|INTERRES
   111   56   58 2    
   112   57  112 1    
   113   57  113 1    
   114   59   60 1    
   115   59  114 1    
   116   59  115 1    
   117   60   61 1    
   118   61  116 1    
   119   61  117 1    
@<TRIPOS>SUBSTRUCTURE
     1 UNK         1 GROUP             0       ****    0 ROOT    
