@<TRIPOS>MOLECULE
3R8
117   119    1
SMALL
USER_CHARGES


@<TRIPOS>ATOM
      1 CA         18.2568  -22.6449  -41.7012 C.3       0 UNK        -0.2013 
      2 C          17.3402  -23.0630  -42.8416 C.2       0 UNK         0.4866 
      3 O          17.0547  -22.2562  -43.7263 O.2       0 UNK        -0.5176 
      4 N          16.8782  -24.3192  -42.8235 N.am      1 UNK        -0.4884 
      5 CA         16.0607  -24.9535  -43.8669 C.3       1 UNK         0.0853 
      6 C6         15.4977  -26.3240  -43.3965 C.3       10 UNK        -0.0849 
      7 S7         16.7476  -27.4024  -42.6006 S.3       10 UNK        -0.2776 
      8 C8         16.9651  -28.7314  -43.8337 C.3       10 UNK         0.0316 
      9 C9         18.2699  -29.5035  -43.6465 C.ar      10 UNK        -0.0863 
     10 C10        18.6947  -29.9029  -42.3738 C.ar      10 UNK        -0.1009 
     11 C11        19.8928  -30.6010  -42.2083 C.ar      10 UNK        -0.0712 
     12 C12        20.6764  -30.8985  -43.3265 C.ar      10 UNK        -0.0894 
     13 C13        20.2585  -30.5271  -44.6075 C.ar      10 UNK        -0.0745 
     14 C14        19.0504  -29.8390  -44.7597 C.ar      10 UNK        -0.0972 
     15 C15        21.1083  -30.8914  -45.8222 C.3       10 UNK         0.0209 
     16 S16        21.7039  -29.4445  -46.7639 S.3       10 UNK        -0.2568 
     17 C17        22.6218  -28.5077  -45.4915 C.3       10 UNK        -0.0983 
     18 CA         22.7119  -26.9741  -45.7633 C.3       3 UNK         0.0876 
     19 N          21.4292  -26.3817  -46.1927 N.am      3 UNK        -0.4424 
     20 C          20.3026  -26.3391  -45.4690 C.2       2 UNK         0.4918 
     21 O          20.2379  -26.6955  -44.2891 O.2       2 UNK        -0.4875 
     22 CA         19.0549  -25.7711  -46.1598 C.3       2 UNK         0.0481 
     23 CB         18.5381  -26.7298  -47.2525 C.3       2 UNK        -0.1831 
     24 N          18.0615  -25.5619  -45.1131 N.am      2 UNK        -0.4498 
     25 C          16.8215  -25.0745  -45.2043 C.2       1 UNK         0.5027 
     26 O          16.2885  -24.7112  -46.2537 O.2       1 UNK        -0.4969 
     27 C          23.3415  -26.2517  -44.5438 C.2       3 UNK         0.5005 
     28 O          24.1768  -26.8410  -43.8558 O.2       3 UNK        -0.5279 
     29 N          22.8619  -25.0345  -44.2315 N.am      4 UNK        -0.4463 
     30 CA         23.0523  -24.2960  -42.9723 C.3       4 UNK         0.0283 
     31 CB         24.5123  -23.8127  -42.8428 C.3       4 UNK        -0.1875 
     32 C          22.5804  -25.0713  -41.7173 C.2       4 UNK         0.4949 
     33 O          23.0169  -24.7506  -40.6114 O.2       4 UNK        -0.5039 
     34 N          21.7276  -26.0929  -41.9138 N.am      5 UNK        -0.4663 
     35 CA         21.2959  -27.1145  -40.9524 C.3       5 UNK         0.0242 
     36 CB         20.3171  -26.5098  -39.9257 C.3       5 UNK        -0.1982 
     37 C          22.4681  -27.8771  -40.2939 C.2       5 UNK         0.5017 
     38 O          22.3485  -28.3038  -39.1435 O.2       5 UNK        -0.5012 
     39 N          23.5901  -28.0231  -41.0170 N.am      6 UNK        -0.4439 
     40 CA         24.8743  -28.5180  -40.5114 C.3       6 UNK         0.0297 
     41 CB         25.9979  -28.0194  -41.4388 C.3       6 UNK        -0.2006 
     42 C          24.9251  -30.0440  -40.2964 C.2       6 UNK         0.4892 
     43 O          25.7553  -30.7210  -40.9038 O.2       6 UNK        -0.5089 
     44 N          24.0458  -30.5541  -39.4233 N.am      7 UNK        -0.4243 
     45 CA         23.9976  -31.8986  -38.8209 C.3       7 UNK         0.0196 
     46 CB         25.2397  -32.1261  -37.9368 C.3       7 UNK        -0.2007 
     47 C          23.7903  -33.0988  -39.7678 C.2       7 UNK         0.5020 
     48 O          23.4301  -34.1718  -39.2834 O.2       7 UNK        -0.5147 
     49 N          23.9919  -32.9235  -41.0801 N.am      8 UNK        -0.4734 
     50 CA         23.9299  -33.9634  -42.1184 C.3       8 UNK         0.0238 
     51 CB         24.3272  -33.3420  -43.4680 C.3       8 UNK        -0.1912 
     52 C          22.5815  -34.7004  -42.2382 C.2       8 UNK         0.5038 
     53 O          22.5464  -35.8061  -42.7794 O.2       8 UNK        -0.5046 
     54 N          21.5110  -34.0851  -41.7258 N.am      9 UNK        -0.4200 
     55 CA         20.1774  -34.6756  -41.5725 C.3       9 UNK         0.0839 
     56 C          20.0511  -35.7122  -40.4166 C.2       9 UNK         0.5513 
     57 N          21.0275  -35.8515  -39.5266 N.am      9 UNK        -0.7519 
     58 O          19.0484  -36.4174  -40.3372 O.2       9 UNK        -0.4960 
     59 C59        19.0845  -33.5779  -41.5054 C.3       10 UNK        -0.0876 
     60 S60        19.2811  -32.3770  -40.1320 S.3       10 UNK        -0.2414 
     61 C61        20.3323  -31.0517  -40.8234 C.3       10 UNK         0.0169 
     62 H62        17.8183  -21.8114  -41.1531 H         1 UNK         0.0903 
     63 H63        18.4319  -23.4591  -40.9980 H         1 UNK         0.0903 
     64 H64        19.2216  -22.3250  -42.0940 H         1 UNK         0.0903 
     65 H65        17.1444  -24.9371  -42.0687 H         1 UNK         0.3096 
     66 H66        15.2106  -24.2939  -44.0563 H         1 UNK         0.1121 
     67 H67        14.7137  -26.1475  -42.6584 H         1 UNK         0.0849 
     68 H68        15.0046  -26.8522  -44.2152 H         1 UNK         0.0849 
     69 H69        16.1260  -29.4248  -43.7667 H         1 UNK         0.0865 
     70 H70        16.9305  -28.2950  -44.8322 H         1 UNK         0.0865 
     71 H71        18.0906  -29.6752  -41.5063 H         1 UNK         0.1346 
     72 H72        21.6047  -31.4366  -43.2016 H         1 UNK         0.1412 
     73 H73        18.7288  -29.5599  -45.7520 H         1 UNK         0.1426 
     74 H74        20.5172  -31.5217  -46.4879 H         1 UNK         0.0716 
     75 H75        21.9715  -31.4891  -45.5256 H         1 UNK         0.0716 
     76 H76        23.6214  -28.9399  -45.4182 H         1 UNK         0.0695 
     77 H77        22.1512  -28.6798  -44.5227 H         1 UNK         0.0695 
     78 H78        23.4069  -26.8246  -46.5908 H         1 UNK         0.0983 
     79 H79        21.4042  -26.0493  -47.1465 H         1 UNK         0.3095 
     80 H80        19.3094  -24.8058  -46.6003 H         1 UNK         0.0454 
     81 H81        19.3248  -26.9911  -47.9611 H         1 UNK         0.0851 
     82 H82        17.7324  -26.2795  -47.8316 H         1 UNK         0.0851 
     83 H83        18.1610  -27.6591  -46.8305 H         1 UNK         0.0851 
     84 H84        18.3945  -25.8550  -44.2002 H         1 UNK         0.2976 
     85 H85        22.1771  -24.6418  -44.8622 H         1 UNK         0.3116 
     86 H86        22.4146  -23.4132  -43.0372 H         1 UNK         0.0646 
     87 H87        25.2026  -24.6442  -42.6981 H         1 UNK         0.0847 
     88 H88        24.8295  -23.2638  -43.7292 H         1 UNK         0.0847 
     89 H89        24.6301  -23.1426  -41.9904 H         1 UNK         0.0847 
     90 H90        21.3813  -26.2454  -42.8586 H         1 UNK         0.3040 
     91 H91        20.7454  -27.8556  -41.5340 H         1 UNK         0.1015 
     92 H92        19.8938  -27.2837  -39.2843 H         1 UNK         0.0786 
     93 H93        19.4832  -26.0131  -40.4218 H         1 UNK         0.0786 
     94 H94        20.8086  -25.7814  -39.2801 H         1 UNK         0.0786 
     95 H95        23.6050  -27.6472  -41.9599 H         1 UNK         0.3172 
     96 H96        25.0433  -28.0624  -39.5334 H         1 UNK         0.0595 
     97 H97        25.9057  -28.4360  -42.4428 H         1 UNK         0.0839 
     98 H98        26.9789  -28.3040  -41.0562 H         1 UNK         0.0839 
     99 H99        25.9886  -26.9327  -41.5264 H         1 UNK         0.0839 
    100 H100       23.3676  -29.8903  -39.0545 H         1 UNK         0.2998 
    101 H101       23.1256  -31.8889  -38.1649 H         1 UNK         0.0822 
    102 H102       25.1729  -33.0745  -37.4017 H         1 UNK         0.0787 
    103 H103       25.3431  -31.3409  -37.1878 H         1 UNK         0.0787 
    104 H104       26.1569  -32.1509  -38.5264 H         1 UNK         0.0787 
    105 H105       24.4002  -32.0340  -41.3506 H         1 UNK         0.3055 
    106 H106       24.6736  -34.7199  -41.8588 H         1 UNK         0.1106 
    107 H107       25.3339  -32.9249  -43.4308 H         1 UNK         0.0828 
    108 H108       24.3190  -34.0900  -44.2622 H         1 UNK         0.0828 
    109 H109       23.6462  -32.5446  -43.7646 H         1 UNK         0.0828 
    110 H110       21.6509  -33.2008  -41.2641 H         1 UNK         0.2931 
    111 H111       19.9816  -35.2445  -42.4835 H         1 UNK         0.0412 
    112 H112       20.9275  -36.5328  -38.7912 H         1 UNK         0.3472 
    113 H113       21.8571  -35.2664  -39.5591 H         1 UNK         0.3472 
    114 H114       18.1008  -34.0392  -41.4010 H         1 UNK         0.0970 
    115 H115       19.0350  -33.0547  -42.4595 H         1 UNK         0.0970 
    116 H116       21.3708  -31.3816  -40.8363 H         1 UNK         0.0612 
    117 H117       20.2999  -30.1988  -40.1442 H         1 UNK         0.0612 
@<TRIPOS>BOND
     1    1    2 1    
     2    1   62 1    
     3    1   63 1    
     4    1   64 1    
     5    2    3 2    
     6    2    4 am   BACKBONE|DICT|INTERRES
     7    4    5 1    
     8    4   65 1    
     9    5    6 1    
    10    5   25 1    
    11    5   66 1    
    12    6    7 1    
    13    6   67 1    
    14    6   68 1    
    15    7    8 1    
    16    8    9 1    
    17    8   69 1    
    18    8   70 1    
    19    9   10 ar   
    20    9   14 ar   
    21   10   11 ar   
    22   10   71 1    
    23   11   12 ar   
    24   11   61 1    
    25   12   13 ar   
    26   12   72 1    
    27   13   14 ar   
    28   13   15 1    
    29   14   73 1    
    30   15   16 1    
    31   15   74 1    
    32   15   75 1    
    33   16   17 1    
    34   17   18 1    
    35   17   76 1    
    36   17   77 1    
    37   18   19 1    
    38   18   27 1    
    39   18   78 1    
    40   19   20 am   BACKBONE|DICT|INTERRES
    41   19   79 1    
    42   20   21 2    
    43   20   22 1    
    44   22   23 1    
    45   22   24 1    
    46   22   80 1    
    47   23   81 1    
    48   23   82 1    
    49   23   83 1    
    50   24   25 am   BACKBONE|DICT|INTERRES
    51   24   84 1    
    52   25   26 2    
    53   27   28 2    
    54   27   29 am   BACKBONE|DICT|INTERRES
    55   29   30 1    
    56   29   85 1    
    57   30   31 1    
    58   30   32 1    
    59   30   86 1    
    60   31   87 1    
    61   31   88 1    
    62   31   89 1    
    63   32   33 2    
    64   32   34 am   BACKBONE|DICT|INTERRES
    65   34   35 1    
    66   34   90 1    
    67   35   36 1    
    68   35   37 1    
    69   35   91 1    
    70   36   92 1    
    71   36   93 1    
    72   36   94 1    
    73   37   38 2    
    74   37   39 am   BACKBONE|DICT|INTERRES
    75   39   40 1    
    76   39   95 1    
    77   40   41 1    
    78   40   42 1    
    79   40   96 1    
    80   41   97 1    
    81   41   98 1    
    82   41   99 1    
    83   42   43 2    
    84   42   44 am   BACKBONE|DICT|INTERRES
    85   44   45 1    
    86   44  100 1    
    87   45   46 1    
    88   45   47 1    
    89   45  101 1    
    90   46  102 1    
    91   46  103 1    
    92   46  104 1    
    93   47   48 2    
    94   47   49 am   BACKBONE|DICT|INTERRES
    95   49   50 1    
    96   49  105 1    
    97   50   51 1    
    98   50   52 1    
    99   50  106 1    
   100   51  107 1    
   101   51  108 1    
   102   51  109 1    
   103   52   53 2    
   104   52   54 am   BACKBONE|DICT|INTERRES
   105   54   55 1    
   106   54  110 1    
   107   55   56 1    
   108   55   59 1    
   109   55  111 1    
   110   56   57 am   BACKBONE|DICT|INTERRES
   111   56   58 2    
   112   57  112 1    
   113   57  113 1    
   114   59   60 1    
   115   59  114 1    
   116   59  115 1    
   117   60   61 1    
   118   61  116 1    
   119   61  117 1    
@<TRIPOS>SUBSTRUCTURE
     1 UNK         1 GROUP             0       ****    0 ROOT    
