@<TRIPOS>MOLECULE
3R8
117   119    1
SMALL
USER_CHARGES


@<TRIPOS>ATOM
      1 CA         13.8088  -22.0563  -42.3200 C.3       0 UNK        -0.2013 
      2 C          15.1428  -22.6565  -42.7395 C.2       0 UNK         0.4866 
      3 O          16.1895  -22.0918  -42.4201 O.2       0 UNK        -0.5176 
      4 N          15.1048  -23.7970  -43.4442 N.am      1 UNK        -0.4884 
      5 CA         16.2535  -24.5281  -43.9991 C.3       1 UNK         0.0853 
      6 C6         17.2656  -24.9727  -42.8976 C.3       10 UNK        -0.0849 
      7 S7         18.3435  -26.3733  -43.3591 S.3       10 UNK        -0.2776 
      8 C8         17.2090  -27.7890  -43.1860 C.3       10 UNK         0.0316 
      9 C9         17.8705  -29.0615  -43.6901 C.ar      10 UNK        -0.0863 
     10 C10        18.1399  -30.1195  -42.8189 C.ar      10 UNK        -0.1009 
     11 C11        18.7901  -31.2678  -43.2800 C.ar      10 UNK        -0.0712 
     12 C12        19.1963  -31.3403  -44.6171 C.ar      10 UNK        -0.0894 
     13 C13        18.9313  -30.2889  -45.5024 C.ar      10 UNK        -0.0745 
     14 C14        18.2326  -29.1701  -45.0353 C.ar      10 UNK        -0.0972 
     15 C15        19.4154  -30.3821  -46.9511 C.3       10 UNK         0.0209 
     16 S16        19.8938  -28.7858  -47.7132 S.3       10 UNK        -0.2568 
     17 C17        21.1695  -28.1827  -46.5544 C.3       10 UNK        -0.0983 
     18 CA         21.4310  -26.6551  -46.6468 C.3       3 UNK         0.0876 
     19 N          20.1979  -25.8551  -46.6297 N.am      3 UNK        -0.4424 
     20 C          20.1382  -24.5422  -46.9069 C.2       2 UNK         0.4918 
     21 O          21.1206  -23.8519  -47.1778 O.2       2 UNK        -0.4875 
     22 CA         18.7529  -23.8841  -46.8712 C.3       2 UNK         0.0481 
     23 CB         18.0001  -24.1289  -48.1930 C.3       2 UNK        -0.1831 
     24 N          17.9809  -24.3673  -45.7273 N.am      2 UNK        -0.4498 
     25 C          16.8944  -23.7916  -45.2034 C.2       1 UNK         0.5027 
     26 O          16.3825  -22.7659  -45.6616 O.2       1 UNK        -0.4969 
     27 C          22.4127  -26.2440  -45.5312 C.2       3 UNK         0.5005 
     28 O          23.6235  -26.2550  -45.7582 O.2       3 UNK        -0.5279 
     29 N          21.8635  -25.9250  -44.3451 N.am      4 UNK        -0.4463 
     30 CA         22.5687  -25.6347  -43.0880 C.3       4 UNK         0.0283 
     31 CB         23.3465  -24.3055  -43.1866 C.3       4 UNK        -0.1875 
     32 C          23.4458  -26.8145  -42.6165 C.2       4 UNK         0.4949 
     33 O          24.5405  -26.6046  -42.0924 O.2       4 UNK        -0.5039 
     34 N          22.9473  -28.0393  -42.8396 N.am      5 UNK        -0.4663 
     35 CA         23.6412  -29.3003  -42.5703 C.3       5 UNK         0.0242 
     36 CB         22.8775  -30.4426  -43.2606 C.3       5 UNK        -0.1982 
     37 C          23.8553  -29.5781  -41.0724 C.2       5 UNK         0.5017 
     38 O          24.9117  -30.0951  -40.7056 O.2       5 UNK        -0.5012 
     39 N          22.8711  -29.1996  -40.2415 N.am      6 UNK        -0.4439 
     40 CA         22.8749  -29.2560  -38.7744 C.3       6 UNK         0.0297 
     41 CB         23.7712  -28.1317  -38.2073 C.3       6 UNK        -0.2006 
     42 C          23.2222  -30.6597  -38.2384 C.2       6 UNK         0.4892 
     43 O          22.3956  -31.5648  -38.3449 O.2       6 UNK        -0.5089 
     44 N          24.4375  -30.8287  -37.6985 N.am      7 UNK        -0.4243 
     45 CA         24.9656  -32.0959  -37.1849 C.3       7 UNK         0.0196 
     46 CB         26.3229  -31.8407  -36.5103 C.3       7 UNK        -0.2007 
     47 C          25.0949  -33.2010  -38.2498 C.2       7 UNK         0.5020 
     48 O          25.0196  -34.3794  -37.8996 O.2       7 UNK        -0.5147 
     49 N          25.2534  -32.8217  -39.5274 N.am      8 UNK        -0.4734 
     50 CA         25.3223  -33.7545  -40.6578 C.3       8 UNK         0.0238 
     51 CB         25.9193  -33.0437  -41.8833 C.3       8 UNK        -0.1912 
     52 C          23.9742  -34.4193  -40.9989 C.2       8 UNK         0.5038 
     53 O          23.9725  -35.3949  -41.7510 O.2       8 UNK        -0.5046 
     54 N          22.8651  -33.9154  -40.4370 N.am      9 UNK        -0.4200 
     55 CA         21.5386  -34.5500  -40.5053 C.3       9 UNK         0.0839 
     56 C          21.4151  -35.8515  -39.6581 C.2       9 UNK         0.5513 
     57 N          22.3408  -36.1558  -38.7540 N.am      9 UNK        -0.7519 
     58 O          20.4586  -36.6027  -39.8295 O.2       9 UNK        -0.4960 
     59 C59        20.3973  -33.5637  -40.1449 C.3       10 UNK        -0.0876 
     60 S60        20.3955  -32.0600  -41.1761 S.3       10 UNK        -0.2414 
     61 C61        19.0419  -32.4287  -42.3299 C.3       10 UNK         0.0169 
     62 H62        13.6977  -21.0583  -42.7433 H         1 UNK         0.0903 
     63 H63        12.9650  -22.6610  -42.6521 H         1 UNK         0.0903 
     64 H64        13.7594  -21.9734  -41.2345 H         1 UNK         0.0903 
     65 H65        14.2020  -24.1796  -43.6911 H         1 UNK         0.3096 
     66 H66        15.8131  -25.4279  -44.4295 H         1 UNK         0.1121 
     67 H67        16.7270  -25.2616  -41.9934 H         1 UNK         0.0849 
     68 H68        17.9012  -24.1361  -42.6019 H         1 UNK         0.0849 
     69 H69        16.9127  -27.8881  -42.1404 H         1 UNK         0.0865 
     70 H70        16.2952  -27.6167  -43.7551 H         1 UNK         0.0865 
     71 H71        17.8511  -30.0521  -41.7787 H         1 UNK         0.1346 
     72 H72        19.7198  -32.2189  -44.9688 H         1 UNK         0.1412 
     73 H73        18.0053  -28.3557  -45.7079 H         1 UNK         0.1426 
     74 H74        18.6245  -30.8316  -47.5527 H         1 UNK         0.0716 
     75 H75        20.2726  -31.0543  -47.0149 H         1 UNK         0.0716 
     76 H76        22.0900  -28.7347  -46.7543 H         1 UNK         0.0695 
     77 H77        20.8772  -28.4513  -45.5386 H         1 UNK         0.0695 
     78 H78        21.9265  -26.4589  -47.6005 H         1 UNK         0.0983 
     79 H79        19.3424  -26.3751  -46.5099 H         1 UNK         0.3095 
     80 H80        18.9056  -22.8095  -46.7502 H         1 UNK         0.0454 
     81 H81        17.0631  -23.5735  -48.2295 H         1 UNK         0.0851 
     82 H82        17.7685  -25.1847  -48.3376 H         1 UNK         0.0851 
     83 H83        18.5964  -23.8052  -49.0472 H         1 UNK         0.0851 
     84 H84        18.3575  -25.1655  -45.2314 H         1 UNK         0.2976 
     85 H85        20.8552  -25.9542  -44.2775 H         1 UNK         0.3116 
     86 H86        21.7972  -25.5082  -42.3268 H         1 UNK         0.0646 
     87 H87        24.1795  -24.3739  -43.8870 H         1 UNK         0.0847 
     88 H88        23.7602  -24.0219  -42.2182 H         1 UNK         0.0847 
     89 H89        22.7003  -23.4908  -43.5131 H         1 UNK         0.0847 
     90 H90        22.0380  -28.1076  -43.2721 H         1 UNK         0.3040 
     91 H91        24.6346  -29.2386  -43.0207 H         1 UNK         0.1015 
     92 H92        21.8113  -30.4036  -43.0401 H         1 UNK         0.0786 
     93 H93        23.2380  -31.4219  -42.9456 H         1 UNK         0.0786 
     94 H94        22.9882  -30.3896  -44.3439 H         1 UNK         0.0786 
     95 H95        22.0319  -28.8273  -40.6624 H         1 UNK         0.3172 
     96 H96        21.8517  -29.0543  -38.4537 H         1 UNK         0.0595 
     97 H97        24.8030  -28.2084  -38.5525 H         1 UNK         0.0839 
     98 H98        23.7800  -28.1434  -37.1164 H         1 UNK         0.0839 
     99 H99        23.4017  -27.1519  -38.5105 H         1 UNK         0.0839 
    100 H100       25.0637  -30.0369  -37.6844 H         1 UNK         0.2998 
    101 H101       24.2684  -32.4590  -36.4268 H         1 UNK         0.0822 
    102 H102       26.7303  -32.7624  -36.0921 H         1 UNK         0.0787 
    103 H103       27.0573  -31.4508  -37.2165 H         1 UNK         0.0787 
    104 H104       26.2320  -31.1280  -35.6903 H         1 UNK         0.0787 
    105 H105       25.2648  -31.8301  -39.7522 H         1 UNK         0.3055 
    106 H106       26.0036  -34.5625  -40.3809 H         1 UNK         0.1106 
    107 H107       25.2820  -32.2351  -42.2358 H         1 UNK         0.0828 
    108 H108       26.8998  -32.6232  -41.6599 H         1 UNK         0.0828 
    109 H109       26.0481  -33.7394  -42.7137 H         1 UNK         0.0828 
    110 H110       22.9374  -33.1085  -39.8292 H         1 UNK         0.2931 
    111 H111       21.3824  -34.8521  -41.5428 H         1 UNK         0.0412 
    112 H112       23.1330  -35.5481  -38.5962 H         1 UNK         0.3472 
    113 H113       22.2445  -37.0039  -38.2178 H         1 UNK         0.3472 
    114 H114       20.4807  -33.2556  -39.1013 H         1 UNK         0.0970 
    115 H115       19.4254  -34.0536  -40.2303 H         1 UNK         0.0970 
    116 H116       19.2816  -33.3374  -42.8846 H         1 UNK         0.0612 
    117 H117       18.1309  -32.6371  -41.7669 H         1 UNK         0.0612 
@<TRIPOS>BOND
     1    1    2 1    
     2    1   62 1    
     3    1   63 1    
     4    1   64 1    
     5    2    3 2    
     6    2    4 am   BACKBONE|DICT|INTERRES
     7    4    5 1    
     8    4   65 1    
     9    5    6 1    
    10    5   25 1    
    11    5   66 1    
    12    6    7 1    
    13    6   67 1    
    14    6   68 1    
    15    7    8 1    
    16    8    9 1    
    17    8   69 1    
    18    8   70 1    
    19    9   10 ar   
    20    9   14 ar   
    21   10   11 ar   
    22   10   71 1    
    23   11   12 ar   
    24   11   61 1    
    25   12   13 ar   
    26   12   72 1    
    27   13   14 ar   
    28   13   15 1    
    29   14   73 1    
    30   15   16 1    
    31   15   74 1    
    32   15   75 1    
    33   16   17 1    
    34   17   18 1    
    35   17   76 1    
    36   17   77 1    
    37   18   19 1    
    38   18   27 1    
    39   18   78 1    
    40   19   20 am   BACKBONE|DICT|INTERRES
    41   19   79 1    
    42   20   21 2    
    43   20   22 1    
    44   22   23 1    
    45   22   24 1    
    46   22   80 1    
    47   23   81 1    
    48   23   82 1    
    49   23   83 1    
    50   24   25 am   BACKBONE|DICT|INTERRES
    51   24   84 1    
    52   25   26 2    
    53   27   28 2    
    54   27   29 am   BACKBONE|DICT|INTERRES
    55   29   30 1    
    56   29   85 1    
    57   30   31 1    
    58   30   32 1    
    59   30   86 1    
    60   31   87 1    
    61   31   88 1    
    62   31   89 1    
    63   32   33 2    
    64   32   34 am   BACKBONE|DICT|INTERRES
    65   34   35 1    
    66   34   90 1    
    67   35   36 1    
    68   35   37 1    
    69   35   91 1    
    70   36   92 1    
    71   36   93 1    
    72   36   94 1    
    73   37   38 2    
    74   37   39 am   BACKBONE|DICT|INTERRES
    75   39   40 1    
    76   39   95 1    
    77   40   41 1    
    78   40   42 1    
    79   40   96 1    
    80   41   97 1    
    81   41   98 1    
    82   41   99 1    
    83   42   43 2    
    84   42   44 am   BACKBONE|DICT|INTERRES
    85   44   45 1    
    86   44  100 1    
    87   45   46 1    
    88   45   47 1    
    89   45  101 1    
    90   46  102 1    
    91   46  103 1    
    92   46  104 1    
    93   47   48 2    
    94   47   49 am   BACKBONE|DICT|INTERRES
    95   49   50 1    
    96   49  105 1    
    97   50   51 1    
    98   50   52 1    
    99   50  106 1    
   100   51  107 1    
   101   51  108 1    
   102   51  109 1    
   103   52   53 2    
   104   52   54 am   BACKBONE|DICT|INTERRES
   105   54   55 1    
   106   54  110 1    
   107   55   56 1    
   108   55   59 1    
   109   55  111 1    
   110   56   57 am   BACKBONE|DICT|INTERRES
   111   56   58 2    
   112   57  112 1    
   113   57  113 1    
   114   59   60 1    
   115   59  114 1    
   116   59  115 1    
   117   60   61 1    
   118   61  116 1    
   119   61  117 1    
@<TRIPOS>SUBSTRUCTURE
     1 UNK         1 GROUP             0       ****    0 ROOT    
