@<TRIPOS>MOLECULE
3R8
117   119    1
SMALL
USER_CHARGES


@<TRIPOS>ATOM
      1 CA         15.7286  -22.7376  -46.5995 C.3       0 UNK        -0.2013 
      2 C          16.6378  -23.9008  -46.2342 C.2       0 UNK         0.4866 
      3 O          17.3633  -24.4058  -47.0915 O.2       0 UNK        -0.5176 
      4 N          16.6200  -24.3239  -44.9640 N.am      1 UNK        -0.4884 
      5 CA         17.3929  -25.4472  -44.4146 C.3       1 UNK         0.0853 
      6 C6         16.7160  -26.0275  -43.1427 C.3       10 UNK        -0.0849 
      7 S7         15.1399  -26.8618  -43.5392 S.3       10 UNK        -0.2776 
      8 C8         15.2984  -28.4656  -42.6655 C.3       10 UNK         0.0316 
      9 C9         16.5383  -29.2898  -43.0207 C.ar      10 UNK        -0.0863 
     10 C10        17.1107  -30.1168  -42.0469 C.ar      10 UNK        -0.1009 
     11 C11        18.2666  -30.8535  -42.3245 C.ar      10 UNK        -0.0712 
     12 C12        18.8503  -30.7681  -43.5902 C.ar      10 UNK        -0.0894 
     13 C13        18.2767  -29.9687  -44.5795 C.ar      10 UNK        -0.0745 
     14 C14        17.1156  -29.2448  -44.2951 C.ar      10 UNK        -0.0972 
     15 C15        18.8997  -29.8860  -45.9611 C.3       10 UNK         0.0209 
     16 S16        19.7882  -28.3170  -46.1842 S.3       10 UNK        -0.2568 
     17 C17        21.4851  -28.7040  -45.6120 C.3       10 UNK        -0.0983 
     18 CA         22.0328  -27.8262  -44.4465 C.3       3 UNK         0.0876 
     19 N          21.5957  -26.4330  -44.4797 N.am      3 UNK        -0.4424 
     20 C          21.8334  -25.5133  -45.4133 C.2       2 UNK         0.4918 
     21 O          22.6258  -25.6594  -46.3451 O.2       2 UNK        -0.4875 
     22 CA         20.9811  -24.2305  -45.2810 C.3       2 UNK         0.0481 
     23 CB         21.2284  -23.2358  -46.4291 C.3       2 UNK        -0.1831 
     24 N          19.5420  -24.5301  -45.2127 N.am      2 UNK        -0.4498 
     25 C          18.8795  -25.0839  -44.1855 C.2       1 UNK         0.5027 
     26 O          19.4254  -25.3562  -43.1117 O.2       1 UNK        -0.4969 
     27 C          21.7685  -28.4256  -43.0504 C.2       3 UNK         0.5005 
     28 O          22.5368  -29.2882  -42.6199 O.2       3 UNK        -0.5279 
     29 N          20.7687  -27.9070  -42.3133 N.am      4 UNK        -0.4463 
     30 CA         20.5769  -28.1794  -40.8843 C.3       4 UNK         0.0283 
     31 CB         19.2430  -27.5840  -40.4081 C.3       4 UNK        -0.1875 
     32 C          21.7326  -27.6254  -40.0364 C.2       4 UNK         0.4949 
     33 O          22.2107  -28.3133  -39.1364 O.2       4 UNK        -0.5039 
     34 N          22.2009  -26.4167  -40.3831 N.am      5 UNK        -0.4663 
     35 CA         23.3574  -25.7535  -39.7689 C.3       5 UNK         0.0242 
     36 CB         23.4276  -24.3018  -40.2695 C.3       5 UNK        -0.1982 
     37 C          24.6912  -26.4778  -40.0312 C.2       5 UNK         0.5017 
     38 O          25.6041  -26.3799  -39.2115 O.2       5 UNK        -0.5012 
     39 N          24.7672  -27.2067  -41.1534 N.am      6 UNK        -0.4439 
     40 CA         25.8867  -28.0774  -41.5200 C.3       6 UNK         0.0297 
     41 CB         25.9447  -28.1958  -43.0529 C.3       6 UNK        -0.2006 
     42 C          25.7921  -29.4758  -40.8777 C.2       6 UNK         0.4892 
     43 O          26.7352  -30.2547  -41.0206 O.2       6 UNK        -0.5089 
     44 N          24.6670  -29.7740  -40.2066 N.am      7 UNK        -0.4243 
     45 CA         24.3047  -31.0510  -39.5853 C.3       7 UNK         0.0196 
     46 CB         25.2343  -31.3721  -38.3955 C.3       7 UNK        -0.2007 
     47 C          24.2018  -32.2025  -40.6028 C.2       7 UNK         0.5020 
     48 O          24.5953  -33.3295  -40.2965 O.2       7 UNK        -0.5147 
     49 N          23.6481  -31.9161  -41.7923 N.am      8 UNK        -0.4734 
     50 CA         23.4901  -32.8805  -42.8914 C.3       8 UNK         0.0238 
     51 CB         23.0058  -32.1415  -44.1479 C.3       8 UNK        -0.1912 
     52 C          22.5589  -34.0658  -42.5687 C.2       8 UNK         0.5038 
     53 O          22.6792  -35.1153  -43.2021 O.2       8 UNK        -0.5046 
     54 N          21.6711  -33.8824  -41.5841 N.am      9 UNK        -0.4200 
     55 CA         20.8155  -34.9279  -41.0040 C.3       9 UNK         0.0839 
     56 C          21.5595  -35.8852  -40.0254 C.2       9 UNK         0.5513 
     57 N          22.8118  -35.6394  -39.6557 N.am      9 UNK        -0.7519 
     58 O          20.9859  -36.8830  -39.5965 O.2       9 UNK        -0.4960 
     59 C59        19.5489  -34.3230  -40.3411 C.3       10 UNK        -0.0876 
     60 S60        18.4687  -33.4842  -41.5478 S.3       10 UNK        -0.2414 
     61 C61        18.8962  -31.7405  -41.2639 C.3       10 UNK         0.0169 
     62 H62        15.0333  -23.0377  -47.3829 H         1 UNK         0.0903 
     63 H63        15.1474  -22.3898  -45.7456 H         1 UNK         0.0903 
     64 H64        16.3202  -21.9012  -46.9708 H         1 UNK         0.0903 
     65 H65        16.0134  -23.8587  -44.3032 H         1 UNK         0.3096 
     66 H66        17.4108  -26.2416  -45.1646 H         1 UNK         0.1121 
     67 H67        16.5327  -25.2434  -42.4062 H         1 UNK         0.0849 
     68 H68        17.3684  -26.7491  -42.6519 H         1 UNK         0.0849 
     69 H69        14.4128  -29.0657  -42.8780 H         1 UNK         0.0865 
     70 H70        15.2820  -28.2648  -41.5930 H         1 UNK         0.0865 
     71 H71        16.6644  -30.1781  -41.0636 H         1 UNK         0.1346 
     72 H72        19.7431  -31.3367  -43.8059 H         1 UNK         0.1412 
     73 H73        16.6746  -28.6325  -45.0691 H         1 UNK         0.1426 
     74 H74        18.1109  -29.9486  -46.7122 H         1 UNK         0.0716 
     75 H75        19.5638  -30.7306  -46.1505 H         1 UNK         0.0716 
     76 H76        22.1314  -28.5614  -46.4792 H         1 UNK         0.0695 
     77 H77        21.5679  -29.7654  -45.3760 H         1 UNK         0.0695 
     78 H78        23.1196  -27.8043  -44.5464 H         1 UNK         0.0983 
     79 H79        20.9199  -26.1591  -43.7748 H         1 UNK         0.3095 
     80 H80        21.2738  -23.7431  -44.3488 H         1 UNK         0.0454 
     81 H81        20.9508  -23.6593  -47.3952 H         1 UNK         0.0851 
     82 H82        22.2810  -22.9554  -46.4850 H         1 UNK         0.0851 
     83 H83        20.6576  -22.3179  -46.2889 H         1 UNK         0.0851 
     84 H84        19.0090  -24.3922  -46.0674 H         1 UNK         0.2976 
     85 H85        20.1341  -27.2312  -42.7189 H         1 UNK         0.3116 
     86 H86        20.5431  -29.2612  -40.7439 H         1 UNK         0.0646 
     87 H87        18.4018  -28.0100  -40.9491 H         1 UNK         0.0847 
     88 H88        19.2085  -26.5015  -40.5377 H         1 UNK         0.0847 
     89 H89        19.0801  -27.7909  -39.3496 H         1 UNK         0.0847 
     90 H90        21.7263  -25.9130  -41.1185 H         1 UNK         0.3040 
     91 H91        23.2026  -25.7399  -38.6875 H         1 UNK         0.1015 
     92 H92        24.2640  -23.7713  -39.8118 H         1 UNK         0.0786 
     93 H93        22.5214  -23.7505  -40.0178 H         1 UNK         0.0786 
     94 H94        23.5628  -24.2518  -41.3508 H         1 UNK         0.0786 
     95 H95        23.9553  -27.2393  -41.7512 H         1 UNK         0.3172 
     96 H96        26.8182  -27.6204  -41.1794 H         1 UNK         0.0595 
     97 H97        25.0854  -28.7364  -43.4500 H         1 UNK         0.0839 
     98 H98        26.8368  -28.7403  -43.3654 H         1 UNK         0.0839 
     99 H99        25.9819  -27.2166  -43.5306 H         1 UNK         0.0839 
    100 H100       23.9529  -29.0588  -40.1406 H         1 UNK         0.2998 
    101 H101       23.2988  -30.9158  -39.1852 H         1 UNK         0.0822 
    102 H102       25.2727  -30.5436  -37.6883 H         1 UNK         0.0787 
    103 H103       24.8809  -32.2473  -37.8489 H         1 UNK         0.0787 
    104 H104       26.2531  -31.5836  -38.7215 H         1 UNK         0.0787 
    105 H105       23.3396  -30.9637  -41.9772 H         1 UNK         0.3055 
    106 H106       24.4761  -33.3011  -43.1013 H         1 UNK         0.1106 
    107 H107       22.9232  -32.8213  -44.9970 H         1 UNK         0.0828 
    108 H108       23.6960  -31.3473  -44.4335 H         1 UNK         0.0828 
    109 H109       22.0258  -31.6933  -43.9909 H         1 UNK         0.0828 
    110 H110       21.6661  -32.9892  -41.1180 H         1 UNK         0.2931 
    111 H111       20.4763  -35.5628  -41.8251 H         1 UNK         0.0412 
    112 H112       23.3189  -34.8293  -39.9963 H         1 UNK         0.3472 
    113 H113       23.2680  -36.2795  -39.0251 H         1 UNK         0.3472 
    114 H114       18.9500  -35.1083  -39.8755 H         1 UNK         0.0970 
    115 H115       19.8189  -33.6373  -39.5360 H         1 UNK         0.0970 
    116 H116       19.9793  -31.6169  -41.2880 H         1 UNK         0.0612 
    117 H117       18.5693  -31.4428  -40.2663 H         1 UNK         0.0612 
@<TRIPOS>BOND
     1    1    2 1    
     2    1   62 1    
     3    1   63 1    
     4    1   64 1    
     5    2    3 2    
     6    2    4 am   BACKBONE|DICT|INTERRES
     7    4    5 1    
     8    4   65 1    
     9    5    6 1    
    10    5   25 1    
    11    5   66 1    
    12    6    7 1    
    13    6   67 1    
    14    6   68 1    
    15    7    8 1    
    16    8    9 1    
    17    8   69 1    
    18    8   70 1    
    19    9   10 ar   
    20    9   14 ar   
    21   10   11 ar   
    22   10   71 1    
    23   11   12 ar   
    24   11   61 1    
    25   12   13 ar   
    26   12   72 1    
    27   13   14 ar   
    28   13   15 1    
    29   14   73 1    
    30   15   16 1    
    31   15   74 1    
    32   15   75 1    
    33   16   17 1    
    34   17   18 1    
    35   17   76 1    
    36   17   77 1    
    37   18   19 1    
    38   18   27 1    
    39   18   78 1    
    40   19   20 am   BACKBONE|DICT|INTERRES
    41   19   79 1    
    42   20   21 2    
    43   20   22 1    
    44   22   23 1    
    45   22   24 1    
    46   22   80 1    
    47   23   81 1    
    48   23   82 1    
    49   23   83 1    
    50   24   25 am   BACKBONE|DICT|INTERRES
    51   24   84 1    
    52   25   26 2    
    53   27   28 2    
    54   27   29 am   BACKBONE|DICT|INTERRES
    55   29   30 1    
    56   29   85 1    
    57   30   31 1    
    58   30   32 1    
    59   30   86 1    
    60   31   87 1    
    61   31   88 1    
    62   31   89 1    
    63   32   33 2    
    64   32   34 am   BACKBONE|DICT|INTERRES
    65   34   35 1    
    66   34   90 1    
    67   35   36 1    
    68   35   37 1    
    69   35   91 1    
    70   36   92 1    
    71   36   93 1    
    72   36   94 1    
    73   37   38 2    
    74   37   39 am   BACKBONE|DICT|INTERRES
    75   39   40 1    
    76   39   95 1    
    77   40   41 1    
    78   40   42 1    
    79   40   96 1    
    80   41   97 1    
    81   41   98 1    
    82   41   99 1    
    83   42   43 2    
    84   42   44 am   BACKBONE|DICT|INTERRES
    85   44   45 1    
    86   44  100 1    
    87   45   46 1    
    88   45   47 1    
    89   45  101 1    
    90   46  102 1    
    91   46  103 1    
    92   46  104 1    
    93   47   48 2    
    94   47   49 am   BACKBONE|DICT|INTERRES
    95   49   50 1    
    96   49  105 1    
    97   50   51 1    
    98   50   52 1    
    99   50  106 1    
   100   51  107 1    
   101   51  108 1    
   102   51  109 1    
   103   52   53 2    
   104   52   54 am   BACKBONE|DICT|INTERRES
   105   54   55 1    
   106   54  110 1    
   107   55   56 1    
   108   55   59 1    
   109   55  111 1    
   110   56   57 am   BACKBONE|DICT|INTERRES
   111   56   58 2    
   112   57  112 1    
   113   57  113 1    
   114   59   60 1    
   115   59  114 1    
   116   59  115 1    
   117   60   61 1    
   118   61  116 1    
   119   61  117 1    
@<TRIPOS>SUBSTRUCTURE
     1 UNK         1 GROUP             0       ****    0 ROOT    
