@<TRIPOS>MOLECULE
3R8
117   119    1
SMALL
USER_CHARGES


@<TRIPOS>ATOM
      1 CA         16.0884  -26.1575  -50.5833 C.3       0 UNK        -0.2013 
      2 C          16.5088  -27.1179  -49.4805 C.2       0 UNK         0.4866 
      3 O          16.3180  -28.3266  -49.6190 O.2       0 UNK        -0.5176 
      4 N          17.0811  -26.5878  -48.3948 N.am      1 UNK        -0.4884 
      5 CA         17.5959  -27.3431  -47.2506 C.3       1 UNK         0.0853 
      6 C6         16.7633  -27.0965  -45.9673 C.3       10 UNK        -0.0849 
      7 S7         15.1291  -27.9009  -46.0053 S.3       10 UNK        -0.2776 
      8 C8         15.4985  -29.5108  -45.2155 C.3       10 UNK         0.0316 
      9 C9         15.8883  -29.4828  -43.7323 C.ar      10 UNK        -0.0863 
     10 C10        16.2626  -30.6897  -43.1308 C.ar      10 UNK        -0.1009 
     11 C11        16.6113  -30.7415  -41.7780 C.ar      10 UNK        -0.0712 
     12 C12        16.6041  -29.5674  -41.0218 C.ar      10 UNK        -0.0894 
     13 C13        16.2432  -28.3504  -41.6048 C.ar      10 UNK        -0.0745 
     14 C14        15.8714  -28.3171  -42.9517 C.ar      10 UNK        -0.0972 
     15 C15        16.2202  -27.0779  -40.7694 C.3       10 UNK         0.0209 
     16 S16        17.8772  -26.5979  -40.1832 S.3       10 UNK        -0.2568 
     17 C17        18.7251  -26.0898  -41.7211 C.3       10 UNK        -0.0983 
     18 CA         19.9489  -26.9818  -42.0698 C.3       3 UNK         0.0876 
     19 N          20.2346  -26.9187  -43.5069 N.am      3 UNK        -0.4424 
     20 C          20.9868  -27.7915  -44.1884 C.2       2 UNK         0.4918 
     21 O          21.5038  -28.7898  -43.6888 O.2       2 UNK        -0.4875 
     22 CA         21.0913  -27.5336  -45.6996 C.3       2 UNK         0.0481 
     23 CB         22.1243  -28.4270  -46.4095 C.3       2 UNK        -0.1831 
     24 N          19.7715  -27.7894  -46.2658 N.am      2 UNK        -0.4498 
     25 C          19.0518  -26.9262  -46.9900 C.2       1 UNK         0.5027 
     26 O          19.4656  -25.8309  -47.3810 O.2       1 UNK        -0.4969 
     27 C          21.1949  -26.6326  -41.2154 C.2       3 UNK         0.5005 
     28 O          22.1813  -26.1090  -41.7408 O.2       3 UNK        -0.5279 
     29 N          21.0861  -26.9013  -39.9054 N.am      4 UNK        -0.4463 
     30 CA         22.0794  -26.7724  -38.8299 C.3       4 UNK         0.0283 
     31 CB         22.8001  -25.4086  -38.8409 C.3       4 UNK        -0.1875 
     32 C          23.0782  -27.9389  -38.8119 C.2       4 UNK         0.4949 
     33 O          23.3633  -28.5413  -39.8477 O.2       4 UNK        -0.5039 
     34 N          23.6068  -28.2336  -37.6163 N.am      5 UNK        -0.4663 
     35 CA         24.4797  -29.3799  -37.3229 C.3       5 UNK         0.0242 
     36 CB         24.7377  -29.4377  -35.8084 C.3       5 UNK        -0.1982 
     37 C          25.8123  -29.4057  -38.0935 C.2       5 UNK         0.5017 
     38 O          26.3924  -30.4803  -38.2476 O.2       5 UNK        -0.5012 
     39 N          26.2621  -28.2392  -38.5765 N.am      6 UNK        -0.4439 
     40 CA         27.4307  -28.0905  -39.4471 C.3       6 UNK         0.0297 
     41 CB         27.7819  -26.5993  -39.5750 C.3       6 UNK        -0.2006 
     42 C          27.2337  -28.7180  -40.8406 C.2       6 UNK         0.4892 
     43 O          28.2127  -29.1741  -41.4326 O.2       6 UNK        -0.5089 
     44 N          25.9870  -28.7298  -41.3319 N.am      7 UNK        -0.4243 
     45 CA         25.5937  -29.3373  -42.6046 C.3       7 UNK         0.0196 
     46 CB         24.7261  -28.3399  -43.3796 C.3       7 UNK        -0.2007 
     47 C          24.8452  -30.6652  -42.4012 C.2       7 UNK         0.5020 
     48 O          24.9160  -31.5300  -43.2747 O.2       7 UNK        -0.5147 
     49 N          24.1619  -30.8124  -41.2560 N.am      8 UNK        -0.4734 
     50 CA         23.4744  -32.0136  -40.7685 C.3       8 UNK         0.0238 
     51 CB         24.4977  -33.1155  -40.4201 C.3       8 UNK        -0.1912 
     52 C          22.3543  -32.5015  -41.7064 C.2       8 UNK         0.5038 
     53 O          22.2446  -33.7029  -41.9594 O.2       8 UNK        -0.5046 
     54 N          21.5470  -31.5520  -42.1980 N.am      9 UNK        -0.4200 
     55 CA         20.4016  -31.7558  -43.1045 C.3       9 UNK         0.0839 
     56 C          20.7963  -32.0989  -44.5727 C.2       9 UNK         0.5513 
     57 N          22.0703  -32.0833  -44.9488 N.am      9 UNK        -0.7519 
     58 O          19.9248  -32.3557  -45.3993 O.2       9 UNK        -0.4960 
     59 C59        19.3189  -32.7246  -42.5437 C.3       10 UNK        -0.0876 
     60 S60        18.7458  -32.2708  -40.8685 S.3       10 UNK        -0.2414 
     61 C61        16.9554  -32.0674  -41.1158 C.3       10 UNK         0.0169 
     62 H62        15.0164  -26.2379  -50.7613 H         1 UNK         0.0903 
     63 H63        16.3126  -25.1215  -50.3301 H         1 UNK         0.0903 
     64 H64        16.6071  -26.4000  -51.5104 H         1 UNK         0.0903 
     65 H65        17.2840  -25.5970  -48.3662 H         1 UNK         0.3096 
     66 H66        17.6036  -28.4121  -47.4761 H         1 UNK         0.1121 
     67 H67        17.2972  -27.4476  -45.0832 H         1 UNK         0.0849 
     68 H68        16.6120  -26.0266  -45.8101 H         1 UNK         0.0849 
     69 H69        14.6159  -30.1430  -45.3227 H         1 UNK         0.0865 
     70 H70        16.2917  -29.9994  -45.7835 H         1 UNK         0.0865 
     71 H71        16.2653  -31.5993  -43.7163 H         1 UNK         0.1346 
     72 H72        16.8751  -29.6012  -39.9752 H         1 UNK         0.1412 
     73 H73        15.5677  -27.3736  -43.3808 H         1 UNK         0.1426 
     74 H74        15.5762  -27.2372  -39.9034 H         1 UNK         0.0716 
     75 H75        15.7820  -26.2475  -41.3253 H         1 UNK         0.0716 
     76 H76        17.9950  -26.1261  -42.5313 H         1 UNK         0.0695 
     77 H77        19.0143  -25.0404  -41.6361 H         1 UNK         0.0695 
     78 H78        19.6890  -28.0211  -41.8527 H         1 UNK         0.0983 
     79 H79        19.8740  -26.1137  -43.9962 H         1 UNK         0.3095 
     80 H80        21.3836  -26.4908  -45.8398 H         1 UNK         0.0454 
     81 H81        21.9507  -29.4865  -46.2189 H         1 UNK         0.0851 
     82 H82        22.1006  -28.2757  -47.4886 H         1 UNK         0.0851 
     83 H83        23.1337  -28.1895  -46.0787 H         1 UNK         0.0851 
     84 H84        19.3401  -28.6544  -45.9689 H         1 UNK         0.2976 
     85 H85        20.2021  -27.2934  -39.6068 H         1 UNK         0.3116 
     86 H86        21.5012  -26.8293  -37.9062 H         1 UNK         0.0646 
     87 H87        23.3726  -25.2626  -37.9244 H         1 UNK         0.0847 
     88 H88        22.0910  -24.5840  -38.9127 H         1 UNK         0.0847 
     89 H89        23.5018  -25.3222  -39.6710 H         1 UNK         0.0847 
     90 H90        23.3304  -27.6742  -36.8212 H         1 UNK         0.3040 
     91 H91        23.9365  -30.2830  -37.6102 H         1 UNK         0.1015 
     92 H92        23.8069  -29.5369  -35.2493 H         1 UNK         0.0786 
     93 H93        25.2517  -28.5441  -35.4521 H         1 UNK         0.0786 
     94 H94        25.3596  -30.2961  -35.5494 H         1 UNK         0.0786 
     95 H95        25.7225  -27.4086  -38.3812 H         1 UNK         0.3172 
     96 H96        28.2715  -28.5996  -38.9710 H         1 UNK         0.0595 
     97 H97        28.0014  -26.1571  -38.6030 H         1 UNK         0.0839 
     98 H98        26.9707  -26.0292  -40.0298 H         1 UNK         0.0839 
     99 H99        28.6662  -26.4601  -40.1986 H         1 UNK         0.0839 
    100 H100       25.2348  -28.3605  -40.7618 H         1 UNK         0.2998 
    101 H101       26.4756  -29.5554  -43.2108 H         1 UNK         0.0822 
    102 H102       25.2915  -27.4501  -43.6559 H         1 UNK         0.0787 
    103 H103       24.3536  -28.7920  -44.2976 H         1 UNK         0.0787 
    104 H104       23.8642  -28.0203  -42.7935 H         1 UNK         0.0787 
    105 H105       24.0546  -29.9900  -40.6652 H         1 UNK         0.3055 
    106 H106       22.9780  -31.7243  -39.8406 H         1 UNK         0.1106 
    107 H107       25.0085  -33.4885  -41.3084 H         1 UNK         0.0828 
    108 H108       25.2547  -32.7475  -39.7273 H         1 UNK         0.0828 
    109 H109       24.0100  -33.9667  -39.9435 H         1 UNK         0.0828 
    110 H110       21.7641  -30.5849  -41.9999 H         1 UNK         0.2931 
    111 H111       19.9228  -30.7789  -43.1717 H         1 UNK         0.0412 
    112 H112       22.8003  -31.8695  -44.2836 H         1 UNK         0.3472 
    113 H113       22.3060  -32.3020  -45.9033 H         1 UNK         0.3472 
    114 H114       19.6958  -33.7476  -42.5111 H         1 UNK         0.0970 
    115 H115       18.4605  -32.7531  -43.2162 H         1 UNK         0.0970 
    116 H116       16.5649  -32.9070  -41.6929 H         1 UNK         0.0612 
    117 H117       16.4645  -32.1178  -40.1428 H         1 UNK         0.0612 
@<TRIPOS>BOND
     1    1    2 1    
     2    1   62 1    
     3    1   63 1    
     4    1   64 1    
     5    2    3 2    
     6    2    4 am   BACKBONE|DICT|INTERRES
     7    4    5 1    
     8    4   65 1    
     9    5    6 1    
    10    5   25 1    
    11    5   66 1    
    12    6    7 1    
    13    6   67 1    
    14    6   68 1    
    15    7    8 1    
    16    8    9 1    
    17    8   69 1    
    18    8   70 1    
    19    9   10 ar   
    20    9   14 ar   
    21   10   11 ar   
    22   10   71 1    
    23   11   12 ar   
    24   11   61 1    
    25   12   13 ar   
    26   12   72 1    
    27   13   14 ar   
    28   13   15 1    
    29   14   73 1    
    30   15   16 1    
    31   15   74 1    
    32   15   75 1    
    33   16   17 1    
    34   17   18 1    
    35   17   76 1    
    36   17   77 1    
    37   18   19 1    
    38   18   27 1    
    39   18   78 1    
    40   19   20 am   BACKBONE|DICT|INTERRES
    41   19   79 1    
    42   20   21 2    
    43   20   22 1    
    44   22   23 1    
    45   22   24 1    
    46   22   80 1    
    47   23   81 1    
    48   23   82 1    
    49   23   83 1    
    50   24   25 am   BACKBONE|DICT|INTERRES
    51   24   84 1    
    52   25   26 2    
    53   27   28 2    
    54   27   29 am   BACKBONE|DICT|INTERRES
    55   29   30 1    
    56   29   85 1    
    57   30   31 1    
    58   30   32 1    
    59   30   86 1    
    60   31   87 1    
    61   31   88 1    
    62   31   89 1    
    63   32   33 2    
    64   32   34 am   BACKBONE|DICT|INTERRES
    65   34   35 1    
    66   34   90 1    
    67   35   36 1    
    68   35   37 1    
    69   35   91 1    
    70   36   92 1    
    71   36   93 1    
    72   36   94 1    
    73   37   38 2    
    74   37   39 am   BACKBONE|DICT|INTERRES
    75   39   40 1    
    76   39   95 1    
    77   40   41 1    
    78   40   42 1    
    79   40   96 1    
    80   41   97 1    
    81   41   98 1    
    82   41   99 1    
    83   42   43 2    
    84   42   44 am   BACKBONE|DICT|INTERRES
    85   44   45 1    
    86   44  100 1    
    87   45   46 1    
    88   45   47 1    
    89   45  101 1    
    90   46  102 1    
    91   46  103 1    
    92   46  104 1    
    93   47   48 2    
    94   47   49 am   BACKBONE|DICT|INTERRES
    95   49   50 1    
    96   49  105 1    
    97   50   51 1    
    98   50   52 1    
    99   50  106 1    
   100   51  107 1    
   101   51  108 1    
   102   51  109 1    
   103   52   53 2    
   104   52   54 am   BACKBONE|DICT|INTERRES
   105   54   55 1    
   106   54  110 1    
   107   55   56 1    
   108   55   59 1    
   109   55  111 1    
   110   56   57 am   BACKBONE|DICT|INTERRES
   111   56   58 2    
   112   57  112 1    
   113   57  113 1    
   114   59   60 1    
   115   59  114 1    
   116   59  115 1    
   117   60   61 1    
   118   61  116 1    
   119   61  117 1    
@<TRIPOS>SUBSTRUCTURE
     1 UNK         1 GROUP             0       ****    0 ROOT    
