@<TRIPOS>MOLECULE
3R8
117   119    1
SMALL
USER_CHARGES


@<TRIPOS>ATOM
      1 CA         21.3590  -30.2384  -43.7878 C.3       0 UNK        -0.2013 
      2 C          20.9819  -29.1068  -42.8479 C.2       0 UNK         0.4866 
      3 O          21.8752  -28.4951  -42.2632 O.2       0 UNK        -0.5176 
      4 N          19.6793  -28.8332  -42.6831 N.am      1 UNK        -0.4884 
      5 CA         19.1365  -27.8523  -41.7302 C.3       1 UNK         0.0853 
      6 C6         17.5884  -27.8669  -41.6609 C.3       10 UNK        -0.0849 
      7 S7         16.9012  -29.4976  -41.2192 S.3       10 UNK        -0.2776 
      8 C8         15.9266  -29.9155  -42.7016 C.3       10 UNK         0.0316 
      9 C9         16.8211  -30.3661  -43.8459 C.ar      10 UNK        -0.0863 
     10 C10        17.2797  -31.6849  -43.8858 C.ar      10 UNK        -0.1009 
     11 C11        18.1425  -32.1133  -44.9023 C.ar      10 UNK        -0.0712 
     12 C12        18.4942  -31.2127  -45.9131 C.ar      10 UNK        -0.0894 
     13 C13        18.0425  -29.8894  -45.8864 C.ar      10 UNK        -0.0745 
     14 C14        17.1999  -29.4727  -44.8519 C.ar      10 UNK        -0.0972 
     15 C15        18.4819  -28.9087  -46.9645 C.3       10 UNK         0.0209 
     16 S16        20.2794  -28.6253  -46.8957 S.3       10 UNK        -0.2568 
     17 C17        20.4712  -27.1187  -47.9176 C.3       10 UNK        -0.0983 
     18 CA         21.0739  -25.9096  -47.1495 C.3       3 UNK         0.0876 
     19 N          20.4372  -25.7097  -45.8447 N.am      3 UNK        -0.4424 
     20 C          20.5307  -24.6014  -45.0957 C.2       2 UNK         0.4918 
     21 O          21.1035  -23.5766  -45.4646 O.2       2 UNK        -0.4875 
     22 CA         19.8918  -24.6266  -43.6976 C.3       2 UNK         0.0481 
     23 CB         18.6522  -23.7164  -43.6427 C.3       2 UNK        -0.1831 
     24 N          19.5286  -25.9770  -43.2527 N.am      2 UNK        -0.4498 
     25 C          19.6341  -26.4173  -41.9920 C.2       1 UNK         0.5027 
     26 O          20.0932  -25.7534  -41.0619 O.2       1 UNK        -0.4969 
     27 C          22.6049  -26.0030  -46.9882 C.2       3 UNK         0.5005 
     28 O          23.3307  -25.1358  -47.4773 O.2       3 UNK        -0.5279 
     29 N          23.0545  -27.0302  -46.2553 N.am      4 UNK        -0.4463 
     30 CA         24.4421  -27.1958  -45.8173 C.3       4 UNK         0.0283 
     31 CB         24.7292  -28.6893  -45.5888 C.3       4 UNK        -0.1875 
     32 C          24.7438  -26.4020  -44.5344 C.2       4 UNK         0.4949 
     33 O          25.9068  -26.0791  -44.2942 O.2       4 UNK        -0.5039 
     34 N          23.7006  -26.1346  -43.7294 N.am      5 UNK        -0.4663 
     35 CA         23.7389  -25.5191  -42.3939 C.3       5 UNK         0.0242 
     36 CB         24.1784  -24.0425  -42.4772 C.3       5 UNK        -0.1982 
     37 C          24.5628  -26.3476  -41.3853 C.2       5 UNK         0.5017 
     38 O          25.2526  -25.7882  -40.5312 O.2       5 UNK        -0.5012 
     39 N          24.4696  -27.6760  -41.5193 N.am      6 UNK        -0.4439 
     40 CA         25.1164  -28.6720  -40.6682 C.3       6 UNK         0.0297 
     41 CB         25.4142  -29.9230  -41.5114 C.3       6 UNK        -0.2006 
     42 C          24.2488  -29.0462  -39.4565 C.2       6 UNK         0.4892 
     43 O          24.7909  -29.5374  -38.4673 O.2       6 UNK        -0.5089 
     44 N          22.9250  -28.8484  -39.5657 N.am      7 UNK        -0.4243 
     45 CA         21.8674  -29.0910  -38.5715 C.3       7 UNK         0.0196 
     46 CB         22.1048  -28.2679  -37.2901 C.3       7 UNK        -0.2007 
     47 C          21.5922  -30.5701  -38.2366 C.2       7 UNK         0.5020 
     48 O          20.4998  -30.8722  -37.7576 O.2       7 UNK        -0.5147 
     49 N          22.5457  -31.4711  -38.5082 N.am      8 UNK        -0.4734 
     50 CA         22.4832  -32.9105  -38.2211 C.3       8 UNK         0.0238 
     51 CB         23.8310  -33.5519  -38.5893 C.3       8 UNK        -0.1912 
     52 C          21.3266  -33.6599  -38.9096 C.2       8 UNK         0.5038 
     53 O          20.8623  -34.6665  -38.3729 O.2       8 UNK        -0.5046 
     54 N          20.8799  -33.1537  -40.0662 N.am      9 UNK        -0.4200 
     55 CA         19.6873  -33.6286  -40.7849 C.3       9 UNK         0.0839 
     56 C          18.3381  -33.1462  -40.1617 C.2       9 UNK         0.5513 
     57 N          18.3296  -32.2608  -39.1719 N.am      9 UNK        -0.7519 
     58 O          17.2716  -33.6028  -40.5632 O.2       9 UNK        -0.4960 
     59 C59        19.8025  -33.3118  -42.3016 C.3       10 UNK        -0.0876 
     60 S60        18.7887  -34.4181  -43.3470 S.3       10 UNK        -0.2414 
     61 C61        18.7329  -33.5249  -44.9423 C.3       10 UNK         0.0169 
     62 H62        20.4868  -30.7874  -44.1296 H         1 UNK         0.0903 
     63 H63        21.8770  -29.8498  -44.6620 H         1 UNK         0.0903 
     64 H64        22.0227  -30.9397  -43.2833 H         1 UNK         0.0903 
     65 H65        18.9876  -29.3834  -43.1767 H         1 UNK         0.3096 
     66 H66        19.5089  -28.1355  -40.7447 H         1 UNK         0.1121 
     67 H67        17.1531  -27.5263  -42.6012 H         1 UNK         0.0849 
     68 H68        17.2410  -27.1606  -40.9038 H         1 UNK         0.0849 
     69 H69        15.2314  -30.7173  -42.4477 H         1 UNK         0.0865 
     70 H70        15.3093  -29.0658  -42.9973 H         1 UNK         0.0865 
     71 H71        16.9810  -32.3653  -43.1002 H         1 UNK         0.1346 
     72 H72        19.1550  -31.5301  -46.7087 H         1 UNK         0.1412 
     73 H73        16.8418  -28.4526  -44.8272 H         1 UNK         0.1426 
     74 H74        17.9582  -27.9581  -46.8516 H         1 UNK         0.0716 
     75 H75        18.2139  -29.2988  -47.9474 H         1 UNK         0.0716 
     76 H76        19.4954  -26.8351  -48.3145 H         1 UNK         0.0695 
     77 H77        21.0752  -27.3642  -48.7933 H         1 UNK         0.0695 
     78 H78        20.8804  -25.0174  -47.7499 H         1 UNK         0.0983 
     79 H79        19.9534  -26.5157  -45.4862 H         1 UNK         0.3095 
     80 H80        20.6457  -24.2160  -43.0226 H         1 UNK         0.0454 
     81 H81        18.2554  -23.6482  -42.6297 H         1 UNK         0.0851 
     82 H82        17.8552  -24.0811  -44.2914 H         1 UNK         0.0851 
     83 H83        18.8949  -22.7017  -43.9613 H         1 UNK         0.0851 
     84 H84        19.1089  -26.5939  -43.9306 H         1 UNK         0.2976 
     85 H85        22.3855  -27.7295  -45.9639 H         1 UNK         0.3116 
     86 H86        25.1113  -26.8363  -46.6021 H         1 UNK         0.0646 
     87 H87        24.5130  -29.2788  -46.4799 H         1 UNK         0.0847 
     88 H88        24.1451  -29.0961  -44.7632 H         1 UNK         0.0847 
     89 H89        25.7808  -28.8472  -45.3451 H         1 UNK         0.0847 
     90 H90        22.7947  -26.4658  -44.0250 H         1 UNK         0.3040 
     91 H91        22.7144  -25.5343  -42.0187 H         1 UNK         0.1015 
     92 H92        24.0778  -23.5501  -41.5093 H         1 UNK         0.0786 
     93 H93        23.5654  -23.4874  -43.1876 H         1 UNK         0.0786 
     94 H94        25.2202  -23.9454  -42.7841 H         1 UNK         0.0786 
     95 H95        23.7882  -28.0246  -42.1858 H         1 UNK         0.3172 
     96 H96        26.0621  -28.2726  -40.2960 H         1 UNK         0.0595 
     97 H97        24.5026  -30.3709  -41.9095 H         1 UNK         0.0839 
     98 H98        25.9197  -30.6847  -40.9159 H         1 UNK         0.0839 
     99 H99        26.0658  -29.6865  -42.3529 H         1 UNK         0.0839 
    100 H100       22.5879  -28.5177  -40.4662 H         1 UNK         0.2998 
    101 H101       20.9516  -28.7159  -39.0277 H         1 UNK         0.0822 
    102 H102       22.2322  -27.2094  -37.5171 H         1 UNK         0.0787 
    103 H103       21.2558  -28.3533  -36.6104 H         1 UNK         0.0787 
    104 H104       22.9876  -28.6041  -36.7456 H         1 UNK         0.0787 
    105 H105       23.4370  -31.1067  -38.8222 H         1 UNK         0.3055 
    106 H106       22.3335  -33.0195  -37.1447 H         1 UNK         0.1106 
    107 H107       23.8317  -34.6191  -38.3622 H         1 UNK         0.0828 
    108 H108       24.6510  -33.1034  -38.0279 H         1 UNK         0.0828 
    109 H109       24.0527  -33.4443  -39.6518 H         1 UNK         0.0828 
    110 H110       21.3144  -32.3124  -40.4129 H         1 UNK         0.2931 
    111 H111       19.6821  -34.7162  -40.6873 H         1 UNK         0.0412 
    112 H112       19.1859  -31.8776  -38.7859 H         1 UNK         0.3472 
    113 H113       17.4432  -31.9672  -38.7946 H         1 UNK         0.3472 
    114 H114       19.5473  -32.2686  -42.4849 H         1 UNK         0.0970 
    115 H115       20.8349  -33.4310  -42.6340 H         1 UNK         0.0970 
    116 H116       19.7498  -33.4839  -45.3358 H         1 UNK         0.0612 
    117 H117       18.1520  -34.1202  -45.6476 H         1 UNK         0.0612 
@<TRIPOS>BOND
     1    1    2 1    
     2    1   62 1    
     3    1   63 1    
     4    1   64 1    
     5    2    3 2    
     6    2    4 am   BACKBONE|DICT|INTERRES
     7    4    5 1    
     8    4   65 1    
     9    5    6 1    
    10    5   25 1    
    11    5   66 1    
    12    6    7 1    
    13    6   67 1    
    14    6   68 1    
    15    7    8 1    
    16    8    9 1    
    17    8   69 1    
    18    8   70 1    
    19    9   10 ar   
    20    9   14 ar   
    21   10   11 ar   
    22   10   71 1    
    23   11   12 ar   
    24   11   61 1    
    25   12   13 ar   
    26   12   72 1    
    27   13   14 ar   
    28   13   15 1    
    29   14   73 1    
    30   15   16 1    
    31   15   74 1    
    32   15   75 1    
    33   16   17 1    
    34   17   18 1    
    35   17   76 1    
    36   17   77 1    
    37   18   19 1    
    38   18   27 1    
    39   18   78 1    
    40   19   20 am   BACKBONE|DICT|INTERRES
    41   19   79 1    
    42   20   21 2    
    43   20   22 1    
    44   22   23 1    
    45   22   24 1    
    46   22   80 1    
    47   23   81 1    
    48   23   82 1    
    49   23   83 1    
    50   24   25 am   BACKBONE|DICT|INTERRES
    51   24   84 1    
    52   25   26 2    
    53   27   28 2    
    54   27   29 am   BACKBONE|DICT|INTERRES
    55   29   30 1    
    56   29   85 1    
    57   30   31 1    
    58   30   32 1    
    59   30   86 1    
    60   31   87 1    
    61   31   88 1    
    62   31   89 1    
    63   32   33 2    
    64   32   34 am   BACKBONE|DICT|INTERRES
    65   34   35 1    
    66   34   90 1    
    67   35   36 1    
    68   35   37 1    
    69   35   91 1    
    70   36   92 1    
    71   36   93 1    
    72   36   94 1    
    73   37   38 2    
    74   37   39 am   BACKBONE|DICT|INTERRES
    75   39   40 1    
    76   39   95 1    
    77   40   41 1    
    78   40   42 1    
    79   40   96 1    
    80   41   97 1    
    81   41   98 1    
    82   41   99 1    
    83   42   43 2    
    84   42   44 am   BACKBONE|DICT|INTERRES
    85   44   45 1    
    86   44  100 1    
    87   45   46 1    
    88   45   47 1    
    89   45  101 1    
    90   46  102 1    
    91   46  103 1    
    92   46  104 1    
    93   47   48 2    
    94   47   49 am   BACKBONE|DICT|INTERRES
    95   49   50 1    
    96   49  105 1    
    97   50   51 1    
    98   50   52 1    
    99   50  106 1    
   100   51  107 1    
   101   51  108 1    
   102   51  109 1    
   103   52   53 2    
   104   52   54 am   BACKBONE|DICT|INTERRES
   105   54   55 1    
   106   54  110 1    
   107   55   56 1    
   108   55   59 1    
   109   55  111 1    
   110   56   57 am   BACKBONE|DICT|INTERRES
   111   56   58 2    
   112   57  112 1    
   113   57  113 1    
   114   59   60 1    
   115   59  114 1    
   116   59  115 1    
   117   60   61 1    
   118   61  116 1    
   119   61  117 1    
@<TRIPOS>SUBSTRUCTURE
     1 UNK         1 GROUP             0       ****    0 ROOT    
