@<TRIPOS>MOLECULE
3R8
117   119    1
SMALL
USER_CHARGES


@<TRIPOS>ATOM
      1 CA         15.9473  -22.7163  -42.0158 C.3       0 UNK        -0.2013 
      2 C          16.2378  -23.3121  -43.3852 C.2       0 UNK         0.4866 
      3 O          16.1175  -22.6166  -44.3947 O.2       0 UNK        -0.5176 
      4 N          16.6080  -24.5978  -43.4271 N.am      1 UNK        -0.4884 
      5 CA         16.9716  -25.3358  -44.6436 C.3       1 UNK         0.0853 
      6 C6         17.0541  -26.8715  -44.4099 C.3       10 UNK        -0.0849 
      7 S7         15.7585  -27.5553  -43.3170 S.3       10 UNK        -0.2776 
      8 C8         15.9001  -29.3480  -43.6210 C.3       10 UNK         0.0316 
      9 C9         17.3369  -29.8507  -43.5482 C.ar      10 UNK        -0.0863 
     10 C10        17.9819  -30.0062  -42.3155 C.ar      10 UNK        -0.1009 
     11 C11        19.2971  -30.4815  -42.2615 C.ar      10 UNK        -0.0712 
     12 C12        19.9660  -30.7890  -43.4486 C.ar      10 UNK        -0.0894 
     13 C13        19.3371  -30.6305  -44.6830 C.ar      10 UNK        -0.0745 
     14 C14        18.0194  -30.1690  -44.7265 C.ar      10 UNK        -0.0972 
     15 C15        20.0690  -30.9786  -45.9686 C.3       10 UNK         0.0209 
     16 S16        20.4470  -29.4972  -46.9532 S.3       10 UNK        -0.2568 
     17 C17        21.9757  -28.8480  -46.1786 C.3       10 UNK        -0.0983 
     18 CA         21.8309  -27.4989  -45.4064 C.3       3 UNK         0.0876 
     19 N          20.8294  -26.6170  -46.0103 N.am      3 UNK        -0.4424 
     20 C          21.0567  -25.4593  -46.6390 C.2       2 UNK         0.4918 
     21 O          22.1725  -24.9609  -46.7875 O.2       2 UNK        -0.4875 
     22 CA         19.8176  -24.7222  -47.1923 C.3       2 UNK         0.0481 
     23 CB         19.6644  -24.9995  -48.6963 C.3       2 UNK        -0.1831 
     24 N          18.5567  -25.0533  -46.5092 N.am      2 UNK        -0.4498 
     25 C          18.3185  -24.8326  -45.2081 C.2       1 UNK         0.5027 
     26 O          19.1536  -24.3361  -44.4473 O.2       1 UNK        -0.4969 
     27 C          21.6119  -27.6594  -43.8836 C.2       3 UNK         0.5005 
     28 O          22.2145  -28.5506  -43.2822 O.2       3 UNK        -0.5279 
     29 N          20.7962  -26.7858  -43.2665 N.am      4 UNK        -0.4463 
     30 CA         20.5901  -26.7392  -41.8140 C.3       4 UNK         0.0283 
     31 CB         19.3375  -25.9092  -41.4844 C.3       4 UNK        -0.1875 
     32 C          21.8138  -26.1805  -41.0666 C.2       4 UNK         0.4949 
     33 O          22.6653  -25.5262  -41.6733 O.2       4 UNK        -0.5039 
     34 N          21.8496  -26.4351  -39.7491 N.am      5 UNK        -0.4663 
     35 CA         22.9218  -26.0777  -38.8068 C.3       5 UNK         0.0242 
     36 CB         23.0411  -24.5458  -38.6507 C.3       5 UNK        -0.1982 
     37 C          24.2592  -26.7604  -39.1569 C.2       5 UNK         0.5017 
     38 O          25.3205  -26.1393  -39.0723 O.2       5 UNK        -0.5012 
     39 N          24.1705  -28.0346  -39.5505 N.am      6 UNK        -0.4439 
     40 CA         25.2731  -28.8976  -39.9512 C.3       6 UNK         0.0297 
     41 CB         25.5827  -28.6756  -41.4442 C.3       6 UNK        -0.2006 
     42 C          24.8706  -30.3513  -39.6787 C.2       6 UNK         0.4892 
     43 O          23.6914  -30.6332  -39.4475 O.2       6 UNK        -0.5089 
     44 N          25.8552  -31.2554  -39.7517 N.am      7 UNK        -0.4243 
     45 CA         25.6973  -32.7022  -39.5554 C.3       7 UNK         0.0196 
     46 CB         27.0885  -33.3274  -39.3548 C.3       7 UNK        -0.2007 
     47 C          24.9348  -33.4257  -40.6851 C.2       7 UNK         0.5020 
     48 O          24.6907  -34.6263  -40.5662 O.2       7 UNK        -0.5147 
     49 N          24.5601  -32.7006  -41.7486 N.am      8 UNK        -0.4734 
     50 CA         23.8652  -33.1857  -42.9469 C.3       8 UNK         0.0238 
     51 CB         23.7618  -32.0277  -43.9547 C.3       8 UNK        -0.1912 
     52 C          22.4873  -33.8405  -42.7110 C.2       8 UNK         0.5038 
     53 O          22.0029  -34.5251  -43.6132 O.2       8 UNK        -0.5046 
     54 N          21.8955  -33.6480  -41.5257 N.am      9 UNK        -0.4200 
     55 CA         20.6972  -34.3583  -41.0528 C.3       9 UNK         0.0839 
     56 C          20.9071  -35.0759  -39.6876 C.2       9 UNK         0.5513 
     57 N          22.1362  -35.2695  -39.2218 N.am      9 UNK        -0.7519 
     58 O          19.9444  -35.4945  -39.0495 O.2       9 UNK        -0.4960 
     59 C59        19.4208  -33.4781  -41.1268 C.3       10 UNK        -0.0876 
     60 S60        19.3666  -32.0685  -39.9596 S.3       10 UNK        -0.2414 
     61 C61        20.0126  -30.6685  -40.9305 C.3       10 UNK         0.0169 
     62 H62        16.6106  -21.8728  -41.8262 H         1 UNK         0.0903 
     63 H63        14.9190  -22.3585  -41.9722 H         1 UNK         0.0903 
     64 H64        16.0876  -23.4437  -41.2164 H         1 UNK         0.0903 
     65 H65        16.6666  -25.1288  -42.5707 H         1 UNK         0.3096 
     66 H66        16.1950  -25.1391  -45.3864 H         1 UNK         0.1121 
     67 H67        18.0152  -27.1547  -43.9777 H         1 UNK         0.0849 
     68 H68        17.0001  -27.3893  -45.3694 H         1 UNK         0.0849 
     69 H69        15.2923  -29.8805  -42.8880 H         1 UNK         0.0865 
     70 H70        15.4637  -29.5752  -44.5950 H         1 UNK         0.0865 
     71 H71        17.4602  -29.7638  -41.3997 H         1 UNK         0.1346 
     72 H72        20.9824  -31.1502  -43.4094 H         1 UNK         0.1412 
     73 H73        17.5298  -30.0523  -45.6839 H         1 UNK         0.1426 
     74 H74        19.4378  -31.6399  -46.5638 H         1 UNK         0.0716 
     75 H75        20.9851  -31.5357  -45.7675 H         1 UNK         0.0716 
     76 H76        22.6749  -28.6896  -47.0008 H         1 UNK         0.0695 
     77 H77        22.4425  -29.6238  -45.5700 H         1 UNK         0.0695 
     78 H78        22.8046  -27.0074  -45.4622 H         1 UNK         0.0983 
     79 H79        19.8828  -26.9646  -45.9824 H         1 UNK         0.3095 
     80 H80        19.9915  -23.6523  -47.0600 H         1 UNK         0.0454 
     81 H81        19.4662  -26.0536  -48.8949 H         1 UNK         0.0851 
     82 H82        20.5738  -24.7330  -49.2369 H         1 UNK         0.0851 
     83 H83        18.8520  -24.4156  -49.1290 H         1 UNK         0.0851 
     84 H84        17.8350  -25.4750  -47.0772 H         1 UNK         0.2976 
     85 H85        20.4149  -26.0140  -43.7998 H         1 UNK         0.3116 
     86 H86        20.4234  -27.7596  -41.4670 H         1 UNK         0.0646 
     87 H87        18.4391  -26.3714  -41.8873 H         1 UNK         0.0847 
     88 H88        19.4094  -24.8937  -41.8747 H         1 UNK         0.0847 
     89 H89        19.1859  -25.8278  -40.4075 H         1 UNK         0.0847 
     90 H90        21.0868  -26.9659  -39.3507 H         1 UNK         0.3040 
     91 H91        22.6272  -26.4800  -37.8360 H         1 UNK         0.1015 
     92 H92        23.4026  -24.0697  -39.5626 H         1 UNK         0.0786 
     93 H93        23.7400  -24.2888  -37.8538 H         1 UNK         0.0786 
     94 H94        22.0813  -24.0969  -38.3956 H         1 UNK         0.0786 
     95 H95        23.2710  -28.4998  -39.5401 H         1 UNK         0.3172 
     96 H96        26.1548  -28.6668  -39.3496 H         1 UNK         0.0595 
     97 H97        24.7226  -28.9136  -42.0723 H         1 UNK         0.0839 
     98 H98        26.4153  -29.2961  -41.7771 H         1 UNK         0.0839 
     99 H99        25.8572  -27.6391  -41.6413 H         1 UNK         0.0839 
    100 H100       26.7903  -30.9337  -39.9596 H         1 UNK         0.2998 
    101 H101       25.1207  -32.8552  -38.6404 H         1 UNK         0.0822 
    102 H102       27.6085  -32.8777  -38.5086 H         1 UNK         0.0787 
    103 H103       27.0137  -34.3969  -39.1519 H         1 UNK         0.0787 
    104 H104       27.7160  -33.2073  -40.2389 H         1 UNK         0.0787 
    105 H105       24.7911  -31.7185  -41.7370 H         1 UNK         0.3055 
    106 H106       24.4934  -33.9624  -43.3883 H         1 UNK         0.1106 
    107 H107       23.2613  -31.1599  -43.5251 H         1 UNK         0.0828 
    108 H108       23.2055  -32.3237  -44.8451 H         1 UNK         0.0828 
    109 H109       24.7487  -31.7069  -44.2887 H         1 UNK         0.0828 
    110 H110       22.3598  -33.0705  -40.8394 H         1 UNK         0.2931 
    111 H111       20.5145  -35.1948  -41.7295 H         1 UNK         0.0412 
    112 H112       22.2529  -35.7454  -38.3411 H         1 UNK         0.3472 
    113 H113       22.9545  -35.0171  -39.7665 H         1 UNK         0.3472 
    114 H114       18.5445  -34.0956  -40.9225 H         1 UNK         0.0970 
    115 H115       19.2762  -33.1323  -42.1493 H         1 UNK         0.0970 
    116 H116       21.0844  -30.8072  -41.0829 H         1 UNK         0.0612 
    117 H117       19.9069  -29.7621  -40.3342 H         1 UNK         0.0612 
@<TRIPOS>BOND
     1    1    2 1    
     2    1   62 1    
     3    1   63 1    
     4    1   64 1    
     5    2    3 2    
     6    2    4 am   BACKBONE|DICT|INTERRES
     7    4    5 1    
     8    4   65 1    
     9    5    6 1    
    10    5   25 1    
    11    5   66 1    
    12    6    7 1    
    13    6   67 1    
    14    6   68 1    
    15    7    8 1    
    16    8    9 1    
    17    8   69 1    
    18    8   70 1    
    19    9   10 ar   
    20    9   14 ar   
    21   10   11 ar   
    22   10   71 1    
    23   11   12 ar   
    24   11   61 1    
    25   12   13 ar   
    26   12   72 1    
    27   13   14 ar   
    28   13   15 1    
    29   14   73 1    
    30   15   16 1    
    31   15   74 1    
    32   15   75 1    
    33   16   17 1    
    34   17   18 1    
    35   17   76 1    
    36   17   77 1    
    37   18   19 1    
    38   18   27 1    
    39   18   78 1    
    40   19   20 am   BACKBONE|DICT|INTERRES
    41   19   79 1    
    42   20   21 2    
    43   20   22 1    
    44   22   23 1    
    45   22   24 1    
    46   22   80 1    
    47   23   81 1    
    48   23   82 1    
    49   23   83 1    
    50   24   25 am   BACKBONE|DICT|INTERRES
    51   24   84 1    
    52   25   26 2    
    53   27   28 2    
    54   27   29 am   BACKBONE|DICT|INTERRES
    55   29   30 1    
    56   29   85 1    
    57   30   31 1    
    58   30   32 1    
    59   30   86 1    
    60   31   87 1    
    61   31   88 1    
    62   31   89 1    
    63   32   33 2    
    64   32   34 am   BACKBONE|DICT|INTERRES
    65   34   35 1    
    66   34   90 1    
    67   35   36 1    
    68   35   37 1    
    69   35   91 1    
    70   36   92 1    
    71   36   93 1    
    72   36   94 1    
    73   37   38 2    
    74   37   39 am   BACKBONE|DICT|INTERRES
    75   39   40 1    
    76   39   95 1    
    77   40   41 1    
    78   40   42 1    
    79   40   96 1    
    80   41   97 1    
    81   41   98 1    
    82   41   99 1    
    83   42   43 2    
    84   42   44 am   BACKBONE|DICT|INTERRES
    85   44   45 1    
    86   44  100 1    
    87   45   46 1    
    88   45   47 1    
    89   45  101 1    
    90   46  102 1    
    91   46  103 1    
    92   46  104 1    
    93   47   48 2    
    94   47   49 am   BACKBONE|DICT|INTERRES
    95   49   50 1    
    96   49  105 1    
    97   50   51 1    
    98   50   52 1    
    99   50  106 1    
   100   51  107 1    
   101   51  108 1    
   102   51  109 1    
   103   52   53 2    
   104   52   54 am   BACKBONE|DICT|INTERRES
   105   54   55 1    
   106   54  110 1    
   107   55   56 1    
   108   55   59 1    
   109   55  111 1    
   110   56   57 am   BACKBONE|DICT|INTERRES
   111   56   58 2    
   112   57  112 1    
   113   57  113 1    
   114   59   60 1    
   115   59  114 1    
   116   59  115 1    
   117   60   61 1    
   118   61  116 1    
   119   61  117 1    
@<TRIPOS>SUBSTRUCTURE
     1 UNK         1 GROUP             0       ****    0 ROOT    
