@<TRIPOS>MOLECULE
3R8
117   119    1
SMALL
USER_CHARGES


@<TRIPOS>ATOM
      1 CA         14.7375  -25.6235  -48.2622 C.3       0 UNK        -0.2013 
      2 C          16.0609  -26.2713  -47.8842 C.2       0 UNK         0.4866 
      3 O          17.0955  -25.9266  -48.4552 O.2       0 UNK        -0.5176 
      4 N          16.0327  -27.2113  -46.9307 N.am      1 UNK        -0.4884 
      5 CA         17.2000  -27.9264  -46.3997 C.3       1 UNK         0.0853 
      6 C6         16.8136  -29.1642  -45.5357 C.3       10 UNK        -0.0849 
      7 S7         15.2416  -29.0368  -44.6037 S.3       10 UNK        -0.2776 
      8 C8         15.7656  -28.5575  -42.9200 C.3       10 UNK         0.0316 
      9 C9         16.6202  -29.5675  -42.1523 C.ar      10 UNK        -0.0863 
     10 C10        16.7130  -30.9211  -42.5045 C.ar      10 UNK        -0.1009 
     11 C11        17.4934  -31.8027  -41.7487 C.ar      10 UNK        -0.0712 
     12 C12        18.1853  -31.3264  -40.6309 C.ar      10 UNK        -0.0894 
     13 C13        18.0976  -29.9816  -40.2638 C.ar      10 UNK        -0.0745 
     14 C14        17.3067  -29.1149  -41.0220 C.ar      10 UNK        -0.0972 
     15 C15        18.8426  -29.4674  -39.0397 C.3       10 UNK         0.0209 
     16 S16        20.5454  -28.9595  -39.4388 S.3       10 UNK        -0.2568 
     17 C17        20.2698  -27.4764  -40.4642 C.3       10 UNK        -0.0983 
     18 CA         20.3902  -27.7904  -41.9814 C.3       3 UNK         0.0876 
     19 N          19.4718  -27.0147  -42.8233 N.am      3 UNK        -0.4424 
     20 C          19.3748  -25.6846  -42.9474 C.2       2 UNK         0.4918 
     21 O          20.0541  -24.8961  -42.2881 O.2       2 UNK        -0.4875 
     22 CA         18.3535  -25.1251  -43.9668 C.3       2 UNK         0.0481 
     23 CB         18.9942  -24.0458  -44.8634 C.3       2 UNK        -0.1831 
     24 N          17.6500  -26.1238  -44.7917 N.am      2 UNK        -0.4498 
     25 C          18.1828  -26.9961  -45.6623 C.2       1 UNK         0.5027 
     26 O          19.3891  -27.0943  -45.8830 O.2       1 UNK        -0.4969 
     27 C          21.8505  -27.7412  -42.4777 C.2       3 UNK         0.5005 
     28 O          22.4105  -28.7969  -42.7780 O.2       3 UNK        -0.5279 
     29 N          22.3974  -26.5225  -42.5942 N.am      4 UNK        -0.4463 
     30 CA         23.7978  -26.1396  -42.8106 C.3       4 UNK         0.0283 
     31 CB         24.5254  -27.0217  -43.8522 C.3       4 UNK        -0.1875 
     32 C          24.5402  -25.9977  -41.4670 C.2       4 UNK         0.4949 
     33 O          23.9011  -25.8039  -40.4309 O.2       4 UNK        -0.5039 
     34 N          25.8798  -26.0389  -41.5052 N.am      5 UNK        -0.4663 
     35 CA         26.7680  -25.8277  -40.3510 C.3       5 UNK         0.0242 
     36 CB         28.1844  -25.5254  -40.8694 C.3       5 UNK        -0.1982 
     37 C          26.8017  -26.9962  -39.3449 C.2       5 UNK         0.5017 
     38 O          27.3409  -26.8367  -38.2489 O.2       5 UNK        -0.5012 
     39 N          26.2382  -28.1404  -39.7341 N.am      6 UNK        -0.4439 
     40 CA         26.0490  -29.3525  -38.9467 C.3       6 UNK         0.0297 
     41 CB         27.2713  -30.2738  -39.1197 C.3       6 UNK        -0.2006 
     42 C          24.7560  -30.0096  -39.4485 C.2       6 UNK         0.4892 
     43 O          24.1349  -29.4844  -40.3751 O.2       6 UNK        -0.5089 
     44 N          24.3785  -31.1570  -38.8696 N.am      7 UNK        -0.4243 
     45 CA         23.2008  -31.9500  -39.2514 C.3       7 UNK         0.0196 
     46 CB         22.8470  -32.9066  -38.0973 C.3       7 UNK        -0.2007 
     47 C          23.3712  -32.6823  -40.6025 C.2       7 UNK         0.5020 
     48 O          23.2195  -33.9028  -40.6718 O.2       7 UNK        -0.5147 
     49 N          23.7027  -31.9226  -41.6514 N.am      8 UNK        -0.4734 
     50 CA         23.9001  -32.3947  -43.0225 C.3       8 UNK         0.0238 
     51 CB         24.9361  -31.4876  -43.7070 C.3       8 UNK        -0.1912 
     52 C          22.5943  -32.4164  -43.8336 C.2       8 UNK         0.5038 
     53 O          22.5554  -33.0676  -44.8786 O.2       8 UNK        -0.5046 
     54 N          21.5680  -31.7028  -43.3510 N.am      9 UNK        -0.4200 
     55 CA         20.2646  -31.4994  -44.0036 C.3       9 UNK         0.0839 
     56 C          20.3594  -30.6318  -45.2927 C.2       9 UNK         0.5513 
     57 N          21.2713  -29.6698  -45.3488 N.am      9 UNK        -0.7519 
     58 O          19.5930  -30.8082  -46.2360 O.2       9 UNK        -0.4960 
     59 C59        19.4466  -32.8098  -44.1991 C.3       10 UNK        -0.0876 
     60 S60        19.2472  -33.7636  -42.6544 S.3       10 UNK        -0.2414 
     61 C61        17.5747  -33.2756  -42.1260 C.3       10 UNK         0.0169 
     62 H62        14.5276  -25.7877  -49.3188 H         1 UNK         0.0903 
     63 H63        13.9058  -26.0270  -47.6848 H         1 UNK         0.0903 
     64 H64        14.7823  -24.5490  -48.0865 H         1 UNK         0.0903 
     65 H65        15.1518  -27.4676  -46.5043 H         1 UNK         0.3096 
     66 H66        17.7548  -28.3030  -47.2630 H         1 UNK         0.1121 
     67 H67        17.6184  -29.4530  -44.8582 H         1 UNK         0.0849 
     68 H68        16.6985  -30.0207  -46.2018 H         1 UNK         0.0849 
     69 H69        16.2874  -27.6029  -42.9721 H         1 UNK         0.0865 
     70 H70        14.8643  -28.3720  -42.3340 H         1 UNK         0.0865 
     71 H71        16.1723  -31.2997  -43.3602 H         1 UNK         0.1346 
     72 H72        18.7924  -32.0053  -40.0475 H         1 UNK         0.1412 
     73 H73        17.2248  -28.0772  -40.7291 H         1 UNK         0.1426 
     74 H74        18.8810  -30.2484  -38.2788 H         1 UNK         0.0716 
     75 H75        18.3072  -28.6314  -38.5868 H         1 UNK         0.0716 
     76 H76        20.9737  -26.7007  -40.1560 H         1 UNK         0.0695 
     77 H77        19.2848  -27.0731  -40.2293 H         1 UNK         0.0695 
     78 H78        20.0617  -28.8193  -42.1319 H         1 UNK         0.0983 
     79 H79        18.9119  -27.5652  -43.4555 H         1 UNK         0.3095 
     80 H80        17.5797  -24.6386  -43.3714 H         1 UNK         0.0454 
     81 H81        19.8211  -24.4458  -45.4510 H         1 UNK         0.0851 
     82 H82        19.3898  -23.2222  -44.2677 H         1 UNK         0.0851 
     83 H83        18.2669  -23.6211  -45.5551 H         1 UNK         0.0851 
     84 H84        16.6428  -26.1231  -44.7058 H         1 UNK         0.2976 
     85 H85        21.7882  -25.7508  -42.3348 H         1 UNK         0.3116 
     86 H86        23.7503  -25.1326  -43.2271 H         1 UNK         0.0646 
     87 H87        24.7958  -27.9947  -43.4407 H         1 UNK         0.0847 
     88 H88        25.4428  -26.5484  -44.2026 H         1 UNK         0.0847 
     89 H89        23.9032  -27.1927  -44.7308 H         1 UNK         0.0847 
     90 H90        26.3306  -26.1962  -42.3954 H         1 UNK         0.3040 
     91 H91        26.4107  -24.9520  -39.8042 H         1 UNK         0.1015 
     92 H92        28.5957  -26.3645  -41.4320 H         1 UNK         0.0786 
     93 H93        28.8684  -25.3206  -40.0444 H         1 UNK         0.0786 
     94 H94        28.1925  -24.6484  -41.5170 H         1 UNK         0.0786 
     95 H95        25.7189  -28.1448  -40.6044 H         1 UNK         0.3172 
     96 H96        25.9174  -29.0947  -37.8939 H         1 UNK         0.0595 
     97 H97        27.1858  -31.1698  -38.5044 H         1 UNK         0.0839 
     98 H98        28.1912  -29.7698  -38.8227 H         1 UNK         0.0839 
     99 H99        27.3880  -30.5965  -40.1553 H         1 UNK         0.0839 
    100 H100       24.9570  -31.5412  -38.1365 H         1 UNK         0.2998 
    101 H101       22.3588  -31.2673  -39.3759 H         1 UNK         0.0822 
    102 H102       21.9438  -33.4750  -38.3238 H         1 UNK         0.0787 
    103 H103       23.6464  -33.6240  -37.9080 H         1 UNK         0.0787 
    104 H104       22.6579  -32.3602  -37.1731 H         1 UNK         0.0787 
    105 H105       23.8086  -30.9220  -41.4847 H         1 UNK         0.3055 
    106 H106       24.2913  -33.4144  -43.0012 H         1 UNK         0.1106 
    107 H107       25.1379  -31.8228  -44.7253 H         1 UNK         0.0828 
    108 H108       24.5878  -30.4556  -43.7661 H         1 UNK         0.0828 
    109 H109       25.8847  -31.4917  -43.1699 H         1 UNK         0.0828 
    110 H110       21.7341  -31.1559  -42.5184 H         1 UNK         0.2931 
    111 H111       19.6965  -30.8814  -43.3093 H         1 UNK         0.0412 
    112 H112       21.3111  -29.0758  -46.1615 H         1 UNK         0.3472 
    113 H113       21.8665  -29.4816  -44.5487 H         1 UNK         0.3472 
    114 H114       19.9268  -33.4525  -44.9382 H         1 UNK         0.0970 
    115 H115       18.4582  -32.5837  -44.6029 H         1 UNK         0.0970 
    116 H116       17.2915  -33.8784  -41.2621 H         1 UNK         0.0612 
    117 H117       16.8625  -33.5198  -42.9157 H         1 UNK         0.0612 
@<TRIPOS>BOND
     1    1    2 1    
     2    1   62 1    
     3    1   63 1    
     4    1   64 1    
     5    2    3 2    
     6    2    4 am   BACKBONE|DICT|INTERRES
     7    4    5 1    
     8    4   65 1    
     9    5    6 1    
    10    5   25 1    
    11    5   66 1    
    12    6    7 1    
    13    6   67 1    
    14    6   68 1    
    15    7    8 1    
    16    8    9 1    
    17    8   69 1    
    18    8   70 1    
    19    9   10 ar   
    20    9   14 ar   
    21   10   11 ar   
    22   10   71 1    
    23   11   12 ar   
    24   11   61 1    
    25   12   13 ar   
    26   12   72 1    
    27   13   14 ar   
    28   13   15 1    
    29   14   73 1    
    30   15   16 1    
    31   15   74 1    
    32   15   75 1    
    33   16   17 1    
    34   17   18 1    
    35   17   76 1    
    36   17   77 1    
    37   18   19 1    
    38   18   27 1    
    39   18   78 1    
    40   19   20 am   BACKBONE|DICT|INTERRES
    41   19   79 1    
    42   20   21 2    
    43   20   22 1    
    44   22   23 1    
    45   22   24 1    
    46   22   80 1    
    47   23   81 1    
    48   23   82 1    
    49   23   83 1    
    50   24   25 am   BACKBONE|DICT|INTERRES
    51   24   84 1    
    52   25   26 2    
    53   27   28 2    
    54   27   29 am   BACKBONE|DICT|INTERRES
    55   29   30 1    
    56   29   85 1    
    57   30   31 1    
    58   30   32 1    
    59   30   86 1    
    60   31   87 1    
    61   31   88 1    
    62   31   89 1    
    63   32   33 2    
    64   32   34 am   BACKBONE|DICT|INTERRES
    65   34   35 1    
    66   34   90 1    
    67   35   36 1    
    68   35   37 1    
    69   35   91 1    
    70   36   92 1    
    71   36   93 1    
    72   36   94 1    
    73   37   38 2    
    74   37   39 am   BACKBONE|DICT|INTERRES
    75   39   40 1    
    76   39   95 1    
    77   40   41 1    
    78   40   42 1    
    79   40   96 1    
    80   41   97 1    
    81   41   98 1    
    82   41   99 1    
    83   42   43 2    
    84   42   44 am   BACKBONE|DICT|INTERRES
    85   44   45 1    
    86   44  100 1    
    87   45   46 1    
    88   45   47 1    
    89   45  101 1    
    90   46  102 1    
    91   46  103 1    
    92   46  104 1    
    93   47   48 2    
    94   47   49 am   BACKBONE|DICT|INTERRES
    95   49   50 1    
    96   49  105 1    
    97   50   51 1    
    98   50   52 1    
    99   50  106 1    
   100   51  107 1    
   101   51  108 1    
   102   51  109 1    
   103   52   53 2    
   104   52   54 am   BACKBONE|DICT|INTERRES
   105   54   55 1    
   106   54  110 1    
   107   55   56 1    
   108   55   59 1    
   109   55  111 1    
   110   56   57 am   BACKBONE|DICT|INTERRES
   111   56   58 2    
   112   57  112 1    
   113   57  113 1    
   114   59   60 1    
   115   59  114 1    
   116   59  115 1    
   117   60   61 1    
   118   61  116 1    
   119   61  117 1    
@<TRIPOS>SUBSTRUCTURE
     1 UNK         1 GROUP             0       ****    0 ROOT    
