@<TRIPOS>MOLECULE
3R8
117   119    1
SMALL
USER_CHARGES


@<TRIPOS>ATOM
      1 CA         16.6829  -25.3609  -39.5376 C.3       0 UNK        -0.2013 
      2 C          16.6728  -25.1242  -41.0406 C.2       0 UNK         0.4866 
      3 O          16.1943  -24.0836  -41.4939 O.2       0 UNK        -0.5176 
      4 N          17.1867  -26.0868  -41.8156 N.am      1 UNK        -0.4884 
      5 CA         17.3071  -26.0179  -43.2767 C.3       1 UNK         0.0853 
      6 C6         17.6415  -27.3986  -43.8941 C.3       10 UNK        -0.0849 
      7 S7         16.4842  -28.7220  -43.4026 S.3       10 UNK        -0.2776 
      8 C8         16.7042  -29.9215  -44.7578 C.3       10 UNK         0.0316 
      9 C9         18.1674  -30.2905  -44.9620 C.ar      10 UNK        -0.0863 
     10 C10        18.8147  -31.1444  -44.0649 C.ar      10 UNK        -0.1009 
     11 C11        20.1638  -31.4751  -44.2407 C.ar      10 UNK        -0.0712 
     12 C12        20.8673  -30.9194  -45.3157 C.ar      10 UNK        -0.0894 
     13 C13        20.2313  -30.0605  -46.2182 C.ar      10 UNK        -0.0745 
     14 C14        18.8775  -29.7637  -46.0434 C.ar      10 UNK        -0.0972 
     15 C15        20.9988  -29.4585  -47.3891 C.3       10 UNK         0.0209 
     16 S16        21.0082  -27.6350  -47.3533 S.3       10 UNK        -0.2568 
     17 C17        21.9890  -27.3209  -45.8529 C.3       10 UNK        -0.0983 
     18 CA         22.2938  -25.8159  -45.6259 C.3       3 UNK         0.0876 
     19 N          21.0929  -25.0489  -45.3006 N.am      3 UNK        -0.4424 
     20 C          20.4298  -24.2307  -46.1231 C.2       2 UNK         0.4918 
     21 O          20.7498  -24.0388  -47.2976 O.2       2 UNK        -0.4875 
     22 CA         19.1959  -23.5123  -45.5323 C.3       2 UNK         0.0481 
     23 CB         18.4498  -22.6616  -46.5775 C.3       2 UNK        -0.1831 
     24 N          18.2464  -24.4481  -44.9186 N.am      2 UNK        -0.4498 
     25 C          18.3775  -24.9895  -43.7003 C.2       1 UNK         0.5027 
     26 O          19.3313  -24.7482  -42.9554 O.2       1 UNK        -0.4969 
     27 C          23.2647  -25.6678  -44.4463 C.2       3 UNK         0.5005 
     28 O          22.8193  -25.5871  -43.2996 O.2       3 UNK        -0.5279 
     29 N          24.5746  -25.7208  -44.7241 N.am      4 UNK        -0.4463 
     30 CA         25.6201  -25.8056  -43.6948 C.3       4 UNK         0.0283 
     31 CB         26.9939  -25.5481  -44.3342 C.3       4 UNK        -0.1875 
     32 C          25.6136  -27.1595  -42.9579 C.2       4 UNK         0.4949 
     33 O          25.9901  -27.2217  -41.7882 O.2       4 UNK        -0.5039 
     34 N          25.1622  -28.2116  -43.6543 N.am      5 UNK        -0.4663 
     35 CA         25.0305  -29.5782  -43.1475 C.3       5 UNK         0.0242 
     36 CB         25.1460  -30.5500  -44.3352 C.3       5 UNK        -0.1982 
     37 C          23.7240  -29.8338  -42.3734 C.2       5 UNK         0.5017 
     38 O          23.5378  -30.9562  -41.9055 O.2       5 UNK        -0.5012 
     39 N          22.8421  -28.8264  -42.2522 N.am      6 UNK        -0.4439 
     40 CA         21.4956  -28.9218  -41.6653 C.3       6 UNK         0.0297 
     41 CB         20.8446  -27.5321  -41.6395 C.3       6 UNK        -0.2006 
     42 C          21.4323  -29.5562  -40.2641 C.2       6 UNK         0.4892 
     43 O          20.4759  -30.2716  -39.9676 O.2       6 UNK        -0.5089 
     44 N          22.4657  -29.3094  -39.4480 N.am      7 UNK        -0.4243 
     45 CA         22.6222  -29.8495  -38.0961 C.3       7 UNK         0.0196 
     46 CB         23.7743  -29.1086  -37.3975 C.3       7 UNK        -0.2007 
     47 C          22.8507  -31.3726  -38.0376 C.2       7 UNK         0.5020 
     48 O          22.6452  -31.9585  -36.9742 O.2       7 UNK        -0.5147 
     49 N          23.2803  -31.9936  -39.1469 N.am      8 UNK        -0.4734 
     50 CA         23.5049  -33.4406  -39.2327 C.3       8 UNK         0.0238 
     51 CB         24.4626  -33.7425  -40.3972 C.3       8 UNK        -0.1912 
     52 C          22.2012  -34.2412  -39.3940 C.2       8 UNK         0.5038 
     53 O          22.1746  -35.4183  -39.0313 O.2       8 UNK        -0.5046 
     54 N          21.1606  -33.6045  -39.9432 N.am      9 UNK        -0.4200 
     55 CA         19.8323  -34.1937  -40.1526 C.3       9 UNK         0.0839 
     56 C          18.9539  -34.0954  -38.8775 C.2       9 UNK         0.5513 
     57 N          17.9936  -34.9966  -38.7222 N.am      9 UNK        -0.7519 
     58 O          19.1070  -33.2020  -38.0472 O.2       9 UNK        -0.4960 
     59 C59        19.1242  -33.5606  -41.3772 C.3       10 UNK        -0.0876 
     60 S60        19.9934  -33.9521  -42.9374 S.3       10 UNK        -0.2414 
     61 C61        20.8862  -32.3978  -43.2623 C.3       10 UNK         0.0169 
     62 H62        17.1251  -26.3230  -39.2790 H         1 UNK         0.0903 
     63 H63        17.2565  -24.5798  -39.0394 H         1 UNK         0.0903 
     64 H64        15.6659  -25.3393  -39.1472 H         1 UNK         0.0903 
     65 H65        17.5531  -26.9264  -41.3920 H         1 UNK         0.3096 
     66 H66        16.3440  -25.6856  -43.6711 H         1 UNK         0.1121 
     67 H67        17.6379  -27.3265  -44.9834 H         1 UNK         0.0849 
     68 H68        18.6472  -27.7185  -43.6163 H         1 UNK         0.0849 
     69 H69        16.1288  -30.8211  -44.5345 H         1 UNK         0.0865 
     70 H70        16.2784  -29.5087  -45.6737 H         1 UNK         0.0865 
     71 H71        18.2619  -31.5460  -43.2285 H         1 UNK         0.1346 
     72 H72        21.9138  -31.1557  -45.4496 H         1 UNK         0.1412 
     73 H73        18.3849  -29.1009  -46.7419 H         1 UNK         0.1426 
     74 H74        20.5362  -29.7888  -48.3201 H         1 UNK         0.0716 
     75 H75        22.0278  -29.8207  -47.4120 H         1 UNK         0.0716 
     76 H76        21.4547  -27.7394  -44.9972 H         1 UNK         0.0695 
     77 H77        22.9141  -27.8927  -45.9470 H         1 UNK         0.0695 
     78 H78        22.7726  -25.4005  -46.5156 H         1 UNK         0.0983 
     79 H79        20.8089  -25.0892  -44.3255 H         1 UNK         0.3095 
     80 H80        19.5641  -22.8311  -44.7622 H         1 UNK         0.0454 
     81 H81        19.1107  -21.9134  -47.0172 H         1 UNK         0.0851 
     82 H82        18.0605  -23.2722  -47.3930 H         1 UNK         0.0851 
     83 H83        17.6132  -22.1253  -46.1296 H         1 UNK         0.0851 
     84 H84        17.4634  -24.7251  -45.4939 H         1 UNK         0.2976 
     85 H85        24.8764  -25.7737  -45.6875 H         1 UNK         0.3116 
     86 H86        25.4370  -25.0243  -42.9536 H         1 UNK         0.0646 
     87 H87        27.7846  -25.5812  -43.5832 H         1 UNK         0.0847 
     88 H88        27.0367  -24.5644  -44.8021 H         1 UNK         0.0847 
     89 H89        27.2357  -26.2933  -45.0930 H         1 UNK         0.0847 
     90 H90        24.8926  -28.0615  -44.6149 H         1 UNK         0.3040 
     91 H91        25.8530  -29.7820  -42.4579 H         1 UNK         0.1015 
     92 H92        26.0946  -30.4262  -44.8581 H         1 UNK         0.0786 
     93 H93        24.3420  -30.4036  -45.0573 H         1 UNK         0.0786 
     94 H94        25.0987  -31.5878  -44.0013 H         1 UNK         0.0786 
     95 H95        23.0989  -27.9260  -42.6335 H         1 UNK         0.3172 
     96 H96        20.9010  -29.5459  -42.3318 H         1 UNK         0.0595 
     97 H97        20.7420  -27.1257  -42.6444 H         1 UNK         0.0839 
     98 H98        21.4261  -26.8211  -41.0514 H         1 UNK         0.0839 
     99 H99        19.8444  -27.5733  -41.2070 H         1 UNK         0.0839 
    100 H100       23.2118  -28.7229  -39.7930 H         1 UNK         0.2998 
    101 H101       21.7001  -29.6436  -37.5481 H         1 UNK         0.0822 
    102 H102       23.5860  -28.0358  -37.3486 H         1 UNK         0.0787 
    103 H103       23.9006  -29.4596  -36.3722 H         1 UNK         0.0787 
    104 H104       24.7233  -29.2615  -37.9133 H         1 UNK         0.0787 
    105 H105       23.4107  -31.4612  -40.0032 H         1 UNK         0.3055 
    106 H106       23.9817  -33.7748  -38.3081 H         1 UNK         0.1106 
    107 H107       24.0169  -33.4974  -41.3619 H         1 UNK         0.0828 
    108 H108       25.3933  -33.1827  -40.3047 H         1 UNK         0.0828 
    109 H109       24.7219  -34.8017  -40.4216 H         1 UNK         0.0828 
    110 H110       21.2463  -32.6167  -40.1366 H         1 UNK         0.2931 
    111 H111       19.9648  -35.2568  -40.3659 H         1 UNK         0.0412 
    112 H112       17.4017  -34.9467  -37.9073 H         1 UNK         0.3472 
    113 H113       17.8541  -35.7330  -39.3973 H         1 UNK         0.3472 
    114 H114       19.0284  -32.4810  -41.2480 H         1 UNK         0.0970 
    115 H115       18.1064  -33.9436  -41.4720 H         1 UNK         0.0970 
    116 H116       21.8737  -32.6575  -43.6466 H         1 UNK         0.0612 
    117 H117       21.0592  -31.8721  -42.3250 H         1 UNK         0.0612 
@<TRIPOS>BOND
     1    1    2 1    
     2    1   62 1    
     3    1   63 1    
     4    1   64 1    
     5    2    3 2    
     6    2    4 am   BACKBONE|DICT|INTERRES
     7    4    5 1    
     8    4   65 1    
     9    5    6 1    
    10    5   25 1    
    11    5   66 1    
    12    6    7 1    
    13    6   67 1    
    14    6   68 1    
    15    7    8 1    
    16    8    9 1    
    17    8   69 1    
    18    8   70 1    
    19    9   10 ar   
    20    9   14 ar   
    21   10   11 ar   
    22   10   71 1    
    23   11   12 ar   
    24   11   61 1    
    25   12   13 ar   
    26   12   72 1    
    27   13   14 ar   
    28   13   15 1    
    29   14   73 1    
    30   15   16 1    
    31   15   74 1    
    32   15   75 1    
    33   16   17 1    
    34   17   18 1    
    35   17   76 1    
    36   17   77 1    
    37   18   19 1    
    38   18   27 1    
    39   18   78 1    
    40   19   20 am   BACKBONE|DICT|INTERRES
    41   19   79 1    
    42   20   21 2    
    43   20   22 1    
    44   22   23 1    
    45   22   24 1    
    46   22   80 1    
    47   23   81 1    
    48   23   82 1    
    49   23   83 1    
    50   24   25 am   BACKBONE|DICT|INTERRES
    51   24   84 1    
    52   25   26 2    
    53   27   28 2    
    54   27   29 am   BACKBONE|DICT|INTERRES
    55   29   30 1    
    56   29   85 1    
    57   30   31 1    
    58   30   32 1    
    59   30   86 1    
    60   31   87 1    
    61   31   88 1    
    62   31   89 1    
    63   32   33 2    
    64   32   34 am   BACKBONE|DICT|INTERRES
    65   34   35 1    
    66   34   90 1    
    67   35   36 1    
    68   35   37 1    
    69   35   91 1    
    70   36   92 1    
    71   36   93 1    
    72   36   94 1    
    73   37   38 2    
    74   37   39 am   BACKBONE|DICT|INTERRES
    75   39   40 1    
    76   39   95 1    
    77   40   41 1    
    78   40   42 1    
    79   40   96 1    
    80   41   97 1    
    81   41   98 1    
    82   41   99 1    
    83   42   43 2    
    84   42   44 am   BACKBONE|DICT|INTERRES
    85   44   45 1    
    86   44  100 1    
    87   45   46 1    
    88   45   47 1    
    89   45  101 1    
    90   46  102 1    
    91   46  103 1    
    92   46  104 1    
    93   47   48 2    
    94   47   49 am   BACKBONE|DICT|INTERRES
    95   49   50 1    
    96   49  105 1    
    97   50   51 1    
    98   50   52 1    
    99   50  106 1    
   100   51  107 1    
   101   51  108 1    
   102   51  109 1    
   103   52   53 2    
   104   52   54 am   BACKBONE|DICT|INTERRES
   105   54   55 1    
   106   54  110 1    
   107   55   56 1    
   108   55   59 1    
   109   55  111 1    
   110   56   57 am   BACKBONE|DICT|INTERRES
   111   56   58 2    
   112   57  112 1    
   113   57  113 1    
   114   59   60 1    
   115   59  114 1    
   116   59  115 1    
   117   60   61 1    
   118   61  116 1    
   119   61  117 1    
@<TRIPOS>SUBSTRUCTURE
     1 UNK         1 GROUP             0       ****    0 ROOT    
