@<TRIPOS>MOLECULE
3R8
117   119    1
SMALL
USER_CHARGES


@<TRIPOS>ATOM
      1 CA         14.3357  -25.9154  -40.9223 C.3       0 UNK        -0.2013 
      2 C          13.5969  -26.7750  -41.9460 C.2       0 UNK         0.4866 
      3 O          12.4414  -27.1258  -41.7141 O.2       0 UNK        -0.5176 
      4 N          14.1979  -27.1275  -43.0913 N.am      1 UNK        -0.4884 
      5 CA         15.5896  -26.8814  -43.4885 C.3       1 UNK         0.0853 
      6 C6         15.7964  -27.1200  -45.0065 C.3       10 UNK        -0.0849 
      7 S7         15.2433  -28.7624  -45.5952 S.3       10 UNK        -0.2776 
      8 C8         16.2420  -28.9775  -47.1018 C.3       10 UNK         0.0316 
      9 C9         17.7201  -29.1565  -46.7871 C.ar      10 UNK        -0.0863 
     10 C10        18.1859  -30.3636  -46.2601 C.ar      10 UNK        -0.1009 
     11 C11        19.5440  -30.5409  -45.9698 C.ar      10 UNK        -0.0712 
     12 C12        20.4394  -29.4975  -46.2302 C.ar      10 UNK        -0.0894 
     13 C13        19.9858  -28.2899  -46.7719 C.ar      10 UNK        -0.0745 
     14 C14        18.6257  -28.1249  -47.0440 C.ar      10 UNK        -0.0972 
     15 C15        20.9570  -27.1680  -47.1047 C.3       10 UNK         0.0209 
     16 S16        21.0234  -25.9214  -45.7827 S.3       10 UNK        -0.2568 
     17 C17        22.2602  -26.6587  -44.6688 C.3       10 UNK        -0.0983 
     18 CA         21.9234  -26.4304  -43.1773 C.3       3 UNK         0.0876 
     19 N          20.6663  -27.0764  -42.7857 N.am      3 UNK        -0.4424 
     20 C          20.0584  -26.8883  -41.6082 C.2       2 UNK         0.4918 
     21 O          20.4745  -26.1203  -40.7394 O.2       2 UNK        -0.4875 
     22 CA         18.7361  -27.6364  -41.3978 C.3       2 UNK         0.0481 
     23 CB         18.2353  -27.5498  -39.9385 C.3       2 UNK        -0.1831 
     24 N          17.7308  -27.0918  -42.3087 N.am      2 UNK        -0.4498 
     25 C          16.5791  -27.6968  -42.6255 C.2       1 UNK         0.5027 
     26 O          16.2727  -28.8286  -42.2423 O.2       1 UNK        -0.4969 
     27 C          23.1033  -26.9118  -42.3116 C.2       3 UNK         0.5005 
     28 O          23.2494  -28.1184  -42.0999 O.2       3 UNK        -0.5279 
     29 N          23.9691  -25.9692  -41.9080 N.am      4 UNK        -0.4463 
     30 CA         25.2021  -26.2173  -41.1489 C.3       4 UNK         0.0283 
     31 CB         25.8426  -24.8764  -40.7578 C.3       4 UNK        -0.1875 
     32 C          26.2204  -27.1018  -41.8903 C.2       4 UNK         0.4949 
     33 O          26.9876  -27.8142  -41.2437 O.2       4 UNK        -0.5039 
     34 N          26.1698  -27.0912  -43.2305 N.am      5 UNK        -0.4663 
     35 CA         26.9287  -27.9809  -44.1162 C.3       5 UNK         0.0242 
     36 CB         26.7106  -27.5380  -45.5721 C.3       5 UNK        -0.1982 
     37 C          26.5755  -29.4730  -43.9519 C.2       5 UNK         0.5017 
     38 O          27.3965  -30.3223  -44.2983 O.2       5 UNK        -0.5012 
     39 N          25.3822  -29.7612  -43.4146 N.am      6 UNK        -0.4439 
     40 CA         24.9031  -31.0959  -43.0593 C.3       6 UNK         0.0297 
     41 CB         23.5895  -31.3596  -43.8181 C.3       6 UNK        -0.2006 
     42 C          24.7113  -31.2159  -41.5355 C.2       6 UNK         0.4892 
     43 O          23.8978  -32.0322  -41.0976 O.2       6 UNK        -0.5089 
     44 N          25.4190  -30.3803  -40.7559 N.am      7 UNK        -0.4243 
     45 CA         25.3170  -30.1622  -39.3060 C.3       7 UNK         0.0196 
     46 CB         25.6511  -31.4355  -38.5020 C.3       7 UNK        -0.2007 
     47 C          23.9661  -29.5516  -38.8955 C.2       7 UNK         0.5020 
     48 O          23.9293  -28.4210  -38.4111 O.2       7 UNK        -0.5147 
     49 N          22.8873  -30.3056  -39.1172 N.am      8 UNK        -0.4734 
     50 CA         21.4967  -29.8843  -38.9591 C.3       8 UNK         0.0238 
     51 CB         21.0847  -29.9737  -37.4758 C.3       8 UNK        -0.1912 
     52 C          20.5456  -30.6838  -39.8708 C.2       8 UNK         0.5038 
     53 O          19.3343  -30.6129  -39.6639 O.2       8 UNK        -0.5046 
     54 N          21.0817  -31.4374  -40.8450 N.am      9 UNK        -0.4200 
     55 CA         20.3420  -32.3821  -41.6960 C.3       9 UNK         0.0839 
     56 C          19.7044  -33.5511  -40.8757 C.2       9 UNK         0.5513 
     57 N          18.6574  -34.1946  -41.3722 N.am      9 UNK        -0.7519 
     58 O          20.1874  -33.9192  -39.8061 O.2       9 UNK        -0.4960 
     59 C59        19.3821  -31.6503  -42.6845 C.3       10 UNK        -0.0876 
     60 S60        19.0052  -32.6397  -44.1735 S.3       10 UNK        -0.2414 
     61 C61        20.0673  -31.8739  -45.4421 C.3       10 UNK         0.0169 
     62 H62        15.0963  -26.4985  -40.4042 H         1 UNK         0.0903 
     63 H63        14.8062  -25.0501  -41.3870 H         1 UNK         0.0903 
     64 H64        13.6403  -25.5408  -40.1714 H         1 UNK         0.0903 
     65 H65        13.6920  -27.7240  -43.7311 H         1 UNK         0.3096 
     66 H66        15.7951  -25.8242  -43.3109 H         1 UNK         0.1121 
     67 H67        15.2421  -26.3670  -45.5690 H         1 UNK         0.0849 
     68 H68        16.8435  -26.9626  -45.2673 H         1 UNK         0.0849 
     69 H69        15.8813  -29.8542  -47.6417 H         1 UNK         0.0865 
     70 H70        16.0832  -28.1264  -47.7660 H         1 UNK         0.0865 
     71 H71        17.4851  -31.1670  -46.0788 H         1 UNK         0.1346 
     72 H72        21.4939  -29.6345  -46.0342 H         1 UNK         0.1412 
     73 H73        18.2751  -27.1915  -47.4637 H         1 UNK         0.1426 
     74 H74        21.9558  -27.5618  -47.3000 H         1 UNK         0.0716 
     75 H75        20.6430  -26.6785  -48.0279 H         1 UNK         0.0716 
     76 H76        22.3590  -27.7258  -44.8740 H         1 UNK         0.0695 
     77 H77        23.2232  -26.2110  -44.9228 H         1 UNK         0.0695 
     78 H78        21.7977  -25.3572  -43.0159 H         1 UNK         0.0983 
     79 H79        20.2585  -27.7053  -43.4616 H         1 UNK         0.3095 
     80 H80        18.9135  -28.6842  -41.6467 H         1 UNK         0.0454 
     81 H81        17.9469  -26.5332  -39.6697 H         1 UNK         0.0851 
     82 H82        17.3757  -28.1989  -39.7723 H         1 UNK         0.0851 
     83 H83        19.0083  -27.8648  -39.2371 H         1 UNK         0.0851 
     84 H84        17.9334  -26.1722  -42.6789 H         1 UNK         0.2976 
     85 H85        23.7740  -25.0039  -42.1346 H         1 UNK         0.3116 
     86 H86        24.9237  -26.7414  -40.2334 H         1 UNK         0.0646 
     87 H87        26.7478  -25.0344  -40.1695 H         1 UNK         0.0847 
     88 H88        25.1667  -24.2749  -40.1498 H         1 UNK         0.0847 
     89 H89        26.1226  -24.2894  -41.6335 H         1 UNK         0.0847 
     90 H90        25.5212  -26.4575  -43.6735 H         1 UNK         0.3040 
     91 H91        27.9881  -27.8708  -43.8737 H         1 UNK         0.1015 
     92 H92        27.0323  -26.5079  -45.7272 H         1 UNK         0.0786 
     93 H93        25.6622  -27.6119  -45.8647 H         1 UNK         0.0786 
     94 H94        27.2849  -28.1607  -46.2598 H         1 UNK         0.0786 
     95 H95        24.7780  -28.9984  -43.1215 H         1 UNK         0.3172 
     96 H96        25.6284  -31.8582  -43.3497 H         1 UNK         0.0595 
     97 H97        23.2300  -32.3742  -43.6422 H         1 UNK         0.0839 
     98 H98        23.7250  -31.2499  -44.8941 H         1 UNK         0.0839 
     99 H99        22.8017  -30.6716  -43.5072 H         1 UNK         0.0839 
    100 H100       26.0371  -29.7268  -41.2233 H         1 UNK         0.2998 
    101 H101       26.0799  -29.4195  -39.0661 H         1 UNK         0.0822 
    102 H102       26.6477  -31.8035  -38.7458 H         1 UNK         0.0787 
    103 H103       25.6350  -31.2309  -37.4307 H         1 UNK         0.0787 
    104 H104       24.9443  -32.2447  -38.6858 H         1 UNK         0.0787 
    105 H105       23.0495  -31.2157  -39.5365 H         1 UNK         0.3055 
    106 H106       21.4175  -28.8429  -39.2803 H         1 UNK         0.1106 
    107 H107       20.0629  -29.6222  -37.3271 H         1 UNK         0.0828 
    108 H108       21.1349  -30.9996  -37.1094 H         1 UNK         0.0828 
    109 H109       21.7270  -29.3599  -36.8444 H         1 UNK         0.0828 
    110 H110       22.0892  -31.4772  -40.9532 H         1 UNK         0.2931 
    111 H111       21.1213  -32.8574  -42.2924 H         1 UNK         0.0412 
    112 H112       18.2533  -34.9615  -40.8580 H         1 UNK         0.3472 
    113 H113       18.2820  -33.9278  -42.2710 H         1 UNK         0.3472 
    114 H114       19.8247  -30.7071  -43.0081 H         1 UNK         0.0970 
    115 H115       18.4479  -31.3787  -42.1890 H         1 UNK         0.0970 
    116 H116       21.0731  -31.7654  -45.0373 H         1 UNK         0.0612 
    117 H117       20.1475  -32.5636  -46.2830 H         1 UNK         0.0612 
@<TRIPOS>BOND
     1    1    2 1    
     2    1   62 1    
     3    1   63 1    
     4    1   64 1    
     5    2    3 2    
     6    2    4 am   BACKBONE|DICT|INTERRES
     7    4    5 1    
     8    4   65 1    
     9    5    6 1    
    10    5   25 1    
    11    5   66 1    
    12    6    7 1    
    13    6   67 1    
    14    6   68 1    
    15    7    8 1    
    16    8    9 1    
    17    8   69 1    
    18    8   70 1    
    19    9   10 ar   
    20    9   14 ar   
    21   10   11 ar   
    22   10   71 1    
    23   11   12 ar   
    24   11   61 1    
    25   12   13 ar   
    26   12   72 1    
    27   13   14 ar   
    28   13   15 1    
    29   14   73 1    
    30   15   16 1    
    31   15   74 1    
    32   15   75 1    
    33   16   17 1    
    34   17   18 1    
    35   17   76 1    
    36   17   77 1    
    37   18   19 1    
    38   18   27 1    
    39   18   78 1    
    40   19   20 am   BACKBONE|DICT|INTERRES
    41   19   79 1    
    42   20   21 2    
    43   20   22 1    
    44   22   23 1    
    45   22   24 1    
    46   22   80 1    
    47   23   81 1    
    48   23   82 1    
    49   23   83 1    
    50   24   25 am   BACKBONE|DICT|INTERRES
    51   24   84 1    
    52   25   26 2    
    53   27   28 2    
    54   27   29 am   BACKBONE|DICT|INTERRES
    55   29   30 1    
    56   29   85 1    
    57   30   31 1    
    58   30   32 1    
    59   30   86 1    
    60   31   87 1    
    61   31   88 1    
    62   31   89 1    
    63   32   33 2    
    64   32   34 am   BACKBONE|DICT|INTERRES
    65   34   35 1    
    66   34   90 1    
    67   35   36 1    
    68   35   37 1    
    69   35   91 1    
    70   36   92 1    
    71   36   93 1    
    72   36   94 1    
    73   37   38 2    
    74   37   39 am   BACKBONE|DICT|INTERRES
    75   39   40 1    
    76   39   95 1    
    77   40   41 1    
    78   40   42 1    
    79   40   96 1    
    80   41   97 1    
    81   41   98 1    
    82   41   99 1    
    83   42   43 2    
    84   42   44 am   BACKBONE|DICT|INTERRES
    85   44   45 1    
    86   44  100 1    
    87   45   46 1    
    88   45   47 1    
    89   45  101 1    
    90   46  102 1    
    91   46  103 1    
    92   46  104 1    
    93   47   48 2    
    94   47   49 am   BACKBONE|DICT|INTERRES
    95   49   50 1    
    96   49  105 1    
    97   50   51 1    
    98   50   52 1    
    99   50  106 1    
   100   51  107 1    
   101   51  108 1    
   102   51  109 1    
   103   52   53 2    
   104   52   54 am   BACKBONE|DICT|INTERRES
   105   54   55 1    
   106   54  110 1    
   107   55   56 1    
   108   55   59 1    
   109   55  111 1    
   110   56   57 am   BACKBONE|DICT|INTERRES
   111   56   58 2    
   112   57  112 1    
   113   57  113 1    
   114   59   60 1    
   115   59  114 1    
   116   59  115 1    
   117   60   61 1    
   118   61  116 1    
   119   61  117 1    
@<TRIPOS>SUBSTRUCTURE
     1 UNK         1 GROUP             0       ****    0 ROOT    
