@<TRIPOS>MOLECULE
3R8
117   119    1
SMALL
USER_CHARGES


@<TRIPOS>ATOM
      1 CA         21.1822  -27.4076  -50.1595 C.3       0 UNK        -0.2013 
      2 C          21.4684  -28.0152  -48.7946 C.2       0 UNK         0.4866 
      3 O          22.6269  -28.0792  -48.3839 O.2       0 UNK        -0.5176 
      4 N          20.4214  -28.4649  -48.0910 N.am      1 UNK        -0.4884 
      5 CA         20.5019  -29.0514  -46.7472 C.3       1 UNK         0.0853 
      6 C6         19.2125  -29.8249  -46.3721 C.3       10 UNK        -0.0849 
      7 S7         17.6835  -28.8399  -46.5485 S.3       10 UNK        -0.2776 
      8 C8         16.4290  -30.0546  -46.0422 C.3       10 UNK         0.0316 
      9 C9         16.4321  -30.2860  -44.5380 C.ar      10 UNK        -0.0863 
     10 C10        16.8919  -31.4939  -44.0050 C.ar      10 UNK        -0.1009 
     11 C11        16.8408  -31.7278  -42.6266 C.ar      10 UNK        -0.0712 
     12 C12        16.3340  -30.7359  -41.7795 C.ar      10 UNK        -0.0894 
     13 C13        15.8775  -29.5207  -42.3016 C.ar      10 UNK        -0.0745 
     14 C14        15.9304  -29.3029  -43.6810 C.ar      10 UNK        -0.0972 
     15 C15        15.2750  -28.4635  -41.3860 C.3       10 UNK         0.0209 
     16 S16        16.5276  -27.5869  -40.3987 S.3       10 UNK        -0.2568 
     17 C17        17.4680  -26.6611  -41.6631 C.3       10 UNK        -0.0983 
     18 CA         18.9373  -27.1594  -41.7832 C.3       3 UNK         0.0876 
     19 N          19.5377  -26.8797  -43.0915 N.am      3 UNK        -0.4424 
     20 C          19.7869  -25.6714  -43.6131 C.2       2 UNK         0.4918 
     21 O          19.4305  -24.6157  -43.0880 O.2       2 UNK        -0.4875 
     22 CA         20.5518  -25.6016  -44.9517 C.3       2 UNK         0.0481 
     23 CB         22.0361  -25.2599  -44.7139 C.3       2 UNK        -0.1831 
     24 N          20.4037  -26.7731  -45.8294 N.am      2 UNK        -0.4498 
     25 C          20.8705  -28.0202  -45.6615 C.2       1 UNK         0.5027 
     26 O          21.5393  -28.3766  -44.6929 O.2       1 UNK        -0.4969 
     27 C          19.8874  -26.6970  -40.6490 C.2       3 UNK         0.5005 
     28 O          21.1067  -26.8464  -40.7915 O.2       3 UNK        -0.5279 
     29 N          19.3291  -26.1719  -39.5480 N.am      4 UNK        -0.4463 
     30 CA         20.0120  -25.7260  -38.3301 C.3       4 UNK         0.0283 
     31 CB         20.8667  -24.4671  -38.6069 C.3       4 UNK        -0.1875 
     32 C          20.7866  -26.8874  -37.6807 C.2       4 UNK         0.4949 
     33 O          20.1600  -27.7591  -37.0772 O.2       4 UNK        -0.5039 
     34 N          22.1147  -26.8887  -37.8291 N.am      5 UNK        -0.4663 
     35 CA         23.0089  -27.9606  -37.3966 C.3       5 UNK         0.0242 
     36 CB         23.4790  -27.6970  -35.9518 C.3       5 UNK        -0.1982 
     37 C          24.1703  -28.1252  -38.3916 C.2       5 UNK         0.5017 
     38 O          25.2898  -28.4284  -37.9738 O.2       5 UNK        -0.5012 
     39 N          23.9020  -27.8970  -39.6868 N.am      6 UNK        -0.4439 
     40 CA         24.8763  -28.0684  -40.7687 C.3       6 UNK         0.0297 
     41 CB         24.3752  -27.3364  -42.0266 C.3       6 UNK        -0.2006 
     42 C          25.1656  -29.5539  -41.0615 C.2       6 UNK         0.4892 
     43 O          24.4084  -30.4355  -40.6481 O.2       6 UNK        -0.5089 
     44 N          26.2595  -29.8041  -41.7944 N.am      7 UNK        -0.4243 
     45 CA         26.7294  -31.1443  -42.1701 C.3       7 UNK         0.0196 
     46 CB         28.1168  -31.0280  -42.8222 C.3       7 UNK        -0.2007 
     47 C          25.7681  -31.9179  -43.0923 C.2       7 UNK         0.5020 
     48 O          25.7797  -33.1484  -43.0791 O.2       7 UNK        -0.5147 
     49 N          24.9428  -31.1920  -43.8568 N.am      8 UNK        -0.4734 
     50 CA         23.9225  -31.7330  -44.7593 C.3       8 UNK         0.0238 
     51 CB         23.9320  -30.9056  -46.0585 C.3       8 UNK        -0.1912 
     52 C          22.5278  -31.7744  -44.1002 C.2       8 UNK         0.5038 
     53 O          21.5282  -31.6406  -44.8048 O.2       8 UNK        -0.5046 
     54 N          22.4907  -31.9502  -42.7716 N.am      9 UNK        -0.4200 
     55 CA         21.3314  -31.8763  -41.8629 C.3       9 UNK         0.0839 
     56 C          21.0868  -30.4491  -41.3012 C.2       9 UNK         0.5513 
     57 N          21.4376  -29.3926  -42.0171 N.am      9 UNK        -0.7519 
     58 O          20.6175  -30.2939  -40.1775 O.2       9 UNK        -0.4960 
     59 C59        20.0373  -32.5430  -42.4118 C.3       10 UNK        -0.0876 
     60 S60        18.8328  -32.9770  -41.1118 S.3       10 UNK        -0.2414 
     61 C61        17.2826  -33.0733  -42.0621 C.3       10 UNK         0.0169 
     62 H62        20.1188  -27.4207  -50.3977 H         1 UNK         0.0903 
     63 H63        21.5235  -26.3731  -50.1883 H         1 UNK         0.0903 
     64 H64        21.7100  -27.9622  -50.9349 H         1 UNK         0.0903 
     65 H65        19.4883  -28.3945  -48.4742 H         1 UNK         0.3096 
     66 H66        21.3172  -29.7764  -46.7619 H         1 UNK         0.1121 
     67 H67        19.1251  -30.7067  -47.0085 H         1 UNK         0.0849 
     68 H68        19.2765  -30.2066  -45.3507 H         1 UNK         0.0849 
     69 H69        15.4460  -29.6904  -46.3444 H         1 UNK         0.0865 
     70 H70        16.5840  -30.9890  -46.5842 H         1 UNK         0.0865 
     71 H71        17.2719  -32.2614  -44.6656 H         1 UNK         0.1346 
     72 H72        16.2844  -30.9149  -40.7140 H         1 UNK         0.1412 
     73 H73        15.5670  -28.3720  -44.0949 H         1 UNK         0.1426 
     74 H74        14.5686  -28.9423  -40.7063 H         1 UNK         0.0716 
     75 H75        14.6965  -27.7362  -41.9580 H         1 UNK         0.0716 
     76 H76        17.4228  -25.5930  -41.4427 H         1 UNK         0.0695 
     77 H77        16.9619  -26.7770  -42.6222 H         1 UNK         0.0695 
     78 H78        18.9122  -28.2485  -41.7185 H         1 UNK         0.0983 
     79 H79        19.9602  -27.6725  -43.5589 H         1 UNK         0.3095 
     80 H80        20.1141  -24.7720  -45.5089 H         1 UNK         0.0454 
     81 H81        22.5384  -26.0185  -44.1136 H         1 UNK         0.0851 
     82 H82        22.1355  -24.3136  -44.1808 H         1 UNK         0.0851 
     83 H83        22.5779  -25.1618  -45.6543 H         1 UNK         0.0851 
     84 H84        19.8340  -26.6199  -46.6499 H         1 UNK         0.2976 
     85 H85        18.3175  -26.1640  -39.5098 H         1 UNK         0.3116 
     86 H86        19.2322  -25.4425  -37.6216 H         1 UNK         0.0646 
     87 H87        21.6300  -24.6343  -39.3673 H         1 UNK         0.0847 
     88 H88        21.3693  -24.1268  -37.7005 H         1 UNK         0.0847 
     89 H89        20.2418  -23.6434  -38.9521 H         1 UNK         0.0847 
     90 H90        22.5392  -26.1439  -38.3651 H         1 UNK         0.3040 
     91 H91        22.4680  -28.9099  -37.4157 H         1 UNK         0.1015 
     92 H92        24.0562  -26.7745  -35.8805 H         1 UNK         0.0786 
     93 H93        24.1100  -28.5091  -35.5884 H         1 UNK         0.0786 
     94 H94        22.6339  -27.6177  -35.2678 H         1 UNK         0.0786 
     95 H95        22.9470  -27.6925  -39.9615 H         1 UNK         0.3172 
     96 H96        25.8120  -27.5999  -40.4562 H         1 UNK         0.0595 
     97 H97        25.1274  -27.3448  -42.8160 H         1 UNK         0.0839 
     98 H98        24.1474  -26.2919  -41.8133 H         1 UNK         0.0839 
     99 H99        23.4755  -27.7917  -42.4367 H         1 UNK         0.0839 
    100 H100       26.8286  -29.0261  -42.0965 H         1 UNK         0.2998 
    101 H101       26.8314  -31.7266  -41.2517 H         1 UNK         0.0822 
    102 H102       28.5072  -32.0116  -43.0877 H         1 UNK         0.0787 
    103 H103       28.0852  -30.4329  -43.7359 H         1 UNK         0.0787 
    104 H104       28.8375  -30.5686  -42.1452 H         1 UNK         0.0787 
    105 H105       24.9861  -30.1861  -43.7778 H         1 UNK         0.3055 
    106 H106       24.1707  -32.7638  -45.0220 H         1 UNK         0.1106 
    107 H107       23.2413  -31.3186  -46.7946 H         1 UNK         0.0828 
    108 H108       23.6430  -29.8693  -45.8796 H         1 UNK         0.0828 
    109 H109       24.9203  -30.9016  -46.5182 H         1 UNK         0.0828 
    110 H110       23.3807  -31.9880  -42.2936 H         1 UNK         0.2931 
    111 H111       21.6512  -32.4708  -41.0058 H         1 UNK         0.0412 
    112 H112       21.7621  -29.4787  -42.9714 H         1 UNK         0.3472 
    113 H113       21.3399  -28.4714  -41.6035 H         1 UNK         0.3472 
    114 H114       19.5638  -31.8876  -43.1434 H         1 UNK         0.0970 
    115 H115       20.2862  -33.4621  -42.9440 H         1 UNK         0.0970 
    116 H116       17.4016  -33.8087  -42.8593 H         1 UNK         0.0612 
    117 H117       16.4982  -33.4583  -41.4091 H         1 UNK         0.0612 
@<TRIPOS>BOND
     1    1    2 1    
     2    1   62 1    
     3    1   63 1    
     4    1   64 1    
     5    2    3 2    
     6    2    4 am   BACKBONE|DICT|INTERRES
     7    4    5 1    
     8    4   65 1    
     9    5    6 1    
    10    5   25 1    
    11    5   66 1    
    12    6    7 1    
    13    6   67 1    
    14    6   68 1    
    15    7    8 1    
    16    8    9 1    
    17    8   69 1    
    18    8   70 1    
    19    9   10 ar   
    20    9   14 ar   
    21   10   11 ar   
    22   10   71 1    
    23   11   12 ar   
    24   11   61 1    
    25   12   13 ar   
    26   12   72 1    
    27   13   14 ar   
    28   13   15 1    
    29   14   73 1    
    30   15   16 1    
    31   15   74 1    
    32   15   75 1    
    33   16   17 1    
    34   17   18 1    
    35   17   76 1    
    36   17   77 1    
    37   18   19 1    
    38   18   27 1    
    39   18   78 1    
    40   19   20 am   BACKBONE|DICT|INTERRES
    41   19   79 1    
    42   20   21 2    
    43   20   22 1    
    44   22   23 1    
    45   22   24 1    
    46   22   80 1    
    47   23   81 1    
    48   23   82 1    
    49   23   83 1    
    50   24   25 am   BACKBONE|DICT|INTERRES
    51   24   84 1    
    52   25   26 2    
    53   27   28 2    
    54   27   29 am   BACKBONE|DICT|INTERRES
    55   29   30 1    
    56   29   85 1    
    57   30   31 1    
    58   30   32 1    
    59   30   86 1    
    60   31   87 1    
    61   31   88 1    
    62   31   89 1    
    63   32   33 2    
    64   32   34 am   BACKBONE|DICT|INTERRES
    65   34   35 1    
    66   34   90 1    
    67   35   36 1    
    68   35   37 1    
    69   35   91 1    
    70   36   92 1    
    71   36   93 1    
    72   36   94 1    
    73   37   38 2    
    74   37   39 am   BACKBONE|DICT|INTERRES
    75   39   40 1    
    76   39   95 1    
    77   40   41 1    
    78   40   42 1    
    79   40   96 1    
    80   41   97 1    
    81   41   98 1    
    82   41   99 1    
    83   42   43 2    
    84   42   44 am   BACKBONE|DICT|INTERRES
    85   44   45 1    
    86   44  100 1    
    87   45   46 1    
    88   45   47 1    
    89   45  101 1    
    90   46  102 1    
    91   46  103 1    
    92   46  104 1    
    93   47   48 2    
    94   47   49 am   BACKBONE|DICT|INTERRES
    95   49   50 1    
    96   49  105 1    
    97   50   51 1    
    98   50   52 1    
    99   50  106 1    
   100   51  107 1    
   101   51  108 1    
   102   51  109 1    
   103   52   53 2    
   104   52   54 am   BACKBONE|DICT|INTERRES
   105   54   55 1    
   106   54  110 1    
   107   55   56 1    
   108   55   59 1    
   109   55  111 1    
   110   56   57 am   BACKBONE|DICT|INTERRES
   111   56   58 2    
   112   57  112 1    
   113   57  113 1    
   114   59   60 1    
   115   59  114 1    
   116   59  115 1    
   117   60   61 1    
   118   61  116 1    
   119   61  117 1    
@<TRIPOS>SUBSTRUCTURE
     1 UNK         1 GROUP             0       ****    0 ROOT    
