@<TRIPOS>MOLECULE
3R8
117   119    1
SMALL
USER_CHARGES


@<TRIPOS>ATOM
      1 CA         19.5444  -22.5038  -46.4002 C.3       0 UNK        -0.2013 
      2 C          18.2452  -23.2824  -46.5949 C.2       0 UNK         0.4866 
      3 O          17.2665  -22.7077  -47.0671 O.2       0 UNK        -0.5176 
      4 N          18.1751  -24.5802  -46.2619 N.am      1 UNK        -0.4884 
      5 CA         19.2272  -25.4095  -45.6570 C.3       1 UNK         0.0853 
      6 C6         18.8084  -26.8981  -45.5800 C.3       10 UNK        -0.0849 
      7 S7         18.5344  -27.6847  -47.1964 S.3       10 UNK        -0.2776 
      8 C8         17.4509  -29.0751  -46.7142 C.3       10 UNK         0.0316 
      9 C9         17.9981  -29.8731  -45.5329 C.ar      10 UNK        -0.0863 
     10 C10        19.2106  -30.5612  -45.6499 C.ar      10 UNK        -0.1009 
     11 C11        19.7191  -31.2884  -44.5705 C.ar      10 UNK        -0.0712 
     12 C12        18.9966  -31.3407  -43.3768 C.ar      10 UNK        -0.0894 
     13 C13        17.7823  -30.6627  -43.2415 C.ar      10 UNK        -0.0745 
     14 C14        17.2907  -29.9250  -44.3244 C.ar      10 UNK        -0.0972 
     15 C15        16.9835  -30.7709  -41.9448 C.3       10 UNK         0.0209 
     16 S16        17.9728  -30.4130  -40.4503 S.3       10 UNK        -0.2568 
     17 C17        18.0432  -28.5922  -40.4665 C.3       10 UNK        -0.0983 
     18 CA         19.2716  -28.0470  -41.2369 C.3       3 UNK         0.0876 
     19 N          19.0543  -26.7031  -41.7781 N.am      3 UNK        -0.4424 
     20 C          18.8067  -25.5509  -41.1392 C.2       2 UNK         0.4918 
     21 O          18.7371  -25.4555  -39.9135 O.2       2 UNK        -0.4875 
     22 CA         18.5887  -24.2888  -42.0071 C.3       2 UNK         0.0481 
     23 CB         19.5764  -23.1670  -41.6297 C.3       2 UNK        -0.1831 
     24 N          18.5844  -24.5354  -43.4603 N.am      2 UNK        -0.4498 
     25 C          19.5973  -24.9655  -44.2303 C.2       1 UNK         0.5027 
     26 O          20.7506  -25.1158  -43.8324 O.2       1 UNK        -0.4969 
     27 C          20.5955  -28.1766  -40.4566 C.2       3 UNK         0.5005 
     28 O          21.4319  -29.0045  -40.8201 O.2       3 UNK        -0.5279 
     29 N          20.7943  -27.3268  -39.4406 N.am      4 UNK        -0.4463 
     30 CA         22.0114  -27.2510  -38.6293 C.3       4 UNK         0.0283 
     31 CB         21.7787  -26.3140  -37.4341 C.3       4 UNK        -0.1875 
     32 C          23.2368  -26.8038  -39.4419 C.2       4 UNK         0.4949 
     33 O          24.3066  -27.3933  -39.2966 O.2       4 UNK        -0.5039 
     34 N          23.0501  -25.8103  -40.3242 N.am      5 UNK        -0.4663 
     35 CA         24.0856  -25.3188  -41.2432 C.3       5 UNK         0.0242 
     36 CB         23.6439  -23.9777  -41.8489 C.3       5 UNK        -0.1982 
     37 C          24.4341  -26.3271  -42.3540 C.2       5 UNK         0.5017 
     38 O          25.5508  -26.2950  -42.8705 O.2       5 UNK        -0.5012 
     39 N          23.4874  -27.2206  -42.6710 N.am      6 UNK        -0.4439 
     40 CA         23.6573  -28.3549  -43.5809 C.3       6 UNK         0.0297 
     41 CB         22.3143  -28.6329  -44.2757 C.3       6 UNK        -0.2006 
     42 C          24.1975  -29.6147  -42.8701 C.2       6 UNK         0.4892 
     43 O          24.3376  -30.6500  -43.5220 O.2       6 UNK        -0.5089 
     44 N          24.4906  -29.5090  -41.5629 N.am      7 UNK        -0.4243 
     45 CA         25.0360  -30.5390  -40.6726 C.3       7 UNK         0.0196 
     46 CB         26.4642  -30.9364  -41.1040 C.3       7 UNK        -0.2007 
     47 C          24.1065  -31.7525  -40.4824 C.2       7 UNK         0.5020 
     48 O          24.5957  -32.8694  -40.3070 O.2       7 UNK        -0.5147 
     49 N          22.7851  -31.5237  -40.5246 N.am      8 UNK        -0.4734 
     50 CA         21.6731  -32.4683  -40.3199 C.3       8 UNK         0.0238 
     51 CB         21.6929  -33.0405  -38.8893 C.3       8 UNK        -0.1912 
     52 C          21.5316  -33.5984  -41.3616 C.2       8 UNK         0.5038 
     53 O          20.4110  -34.0670  -41.5567 O.2       8 UNK        -0.5046 
     54 N          22.6385  -34.0016  -42.0001 N.am      9 UNK        -0.4200 
     55 CA         22.7822  -34.9799  -43.0951 C.3       9 UNK         0.0839 
     56 C          22.1494  -36.3903  -42.8820 C.2       9 UNK         0.5513 
     57 N          21.8809  -36.8121  -41.6525 N.am      9 UNK        -0.7519 
     58 O          21.9466  -37.1383  -43.8355 O.2       9 UNK        -0.4960 
     59 C59        22.5458  -34.3637  -44.5071 C.3       10 UNK        -0.0876 
     60 S60        20.8434  -33.8002  -44.8514 S.3       10 UNK        -0.2414 
     61 C61        21.0560  -32.0035  -44.6742 C.3       10 UNK         0.0169 
     62 H62        19.6603  -22.2052  -45.3587 H         1 UNK         0.0903 
     63 H63        20.4163  -23.0828  -46.7007 H         1 UNK         0.0903 
     64 H64        19.5347  -21.5974  -47.0053 H         1 UNK         0.0903 
     65 H65        17.3113  -25.0685  -46.4527 H         1 UNK         0.3096 
     66 H66        20.1268  -25.3396  -46.2717 H         1 UNK         0.1121 
     67 H67        17.8972  -27.0041  -44.9869 H         1 UNK         0.0849 
     68 H68        19.5716  -27.4916  -45.0726 H         1 UNK         0.0849 
     69 H69        16.4577  -28.6836  -46.4883 H         1 UNK         0.0865 
     70 H70        17.3269  -29.7410  -47.5692 H         1 UNK         0.0865 
     71 H71        19.7630  -30.5177  -46.5787 H         1 UNK         0.1346 
     72 H72        19.3788  -31.9176  -42.5480 H         1 UNK         0.1412 
     73 H73        16.3484  -29.4024  -44.2309 H         1 UNK         0.1426 
     74 H74        16.1079  -30.1205  -41.9656 H         1 UNK         0.0716 
     75 H75        16.6025  -31.7899  -41.8661 H         1 UNK         0.0716 
     76 H76        18.0285  -28.2278  -39.4378 H         1 UNK         0.0695 
     77 H77        17.1214  -28.2239  -40.9195 H         1 UNK         0.0695 
     78 H78        19.3979  -28.6644  -42.1272 H         1 UNK         0.0983 
     79 H79        19.1370  -26.6384  -42.7800 H         1 UNK         0.3095 
     80 H80        17.5856  -23.9336  -41.7671 H         1 UNK         0.0454 
     81 H81        19.4004  -22.2682  -42.2204 H         1 UNK         0.0851 
     82 H82        20.6127  -23.4666  -41.7766 H         1 UNK         0.0851 
     83 H83        19.4686  -22.8889  -40.5806 H         1 UNK         0.0851 
     84 H84        17.6779  -24.4573  -43.9026 H         1 UNK         0.2976 
     85 H85        20.0628  -26.6440  -39.2575 H         1 UNK         0.3116 
     86 H86        22.2170  -28.2521  -38.2438 H         1 UNK         0.0646 
     87 H87        20.9671  -26.6735  -36.8013 H         1 UNK         0.0847 
     88 H88        22.6705  -26.2502  -36.8089 H         1 UNK         0.0847 
     89 H89        21.5307  -25.3009  -37.7533 H         1 UNK         0.0847 
     90 H90        22.1403  -25.3765  -40.3805 H         1 UNK         0.3040 
     91 H91        24.9958  -25.1468  -40.6637 H         1 UNK         0.1015 
     92 H92        22.7745  -24.0935  -42.4949 H         1 UNK         0.0786 
     93 H93        24.4405  -23.5475  -42.4575 H         1 UNK         0.0786 
     94 H94        23.3991  -23.2493  -41.0757 H         1 UNK         0.0786 
     95 H95        22.6086  -27.1715  -42.1764 H         1 UNK         0.3172 
     96 H96        24.3821  -28.0866  -44.3522 H         1 UNK         0.0595 
     97 H97        21.5573  -28.9862  -43.5752 H         1 UNK         0.0839 
     98 H98        22.4278  -29.3944  -45.0471 H         1 UNK         0.0839 
     99 H99        21.9333  -27.7376  -44.7663 H         1 UNK         0.0839 
    100 H100       24.3109  -28.6198  -41.1130 H         1 UNK         0.2998 
    101 H101       25.1117  -30.0716  -39.6898 H         1 UNK         0.0822 
    102 H102       26.9310  -31.5865  -40.3630 H         1 UNK         0.0787 
    103 H103       26.4659  -31.4730  -42.0533 H         1 UNK         0.0787 
    104 H104       27.1038  -30.0604  -41.2120 H         1 UNK         0.0787 
    105 H105       22.4831  -30.5668  -40.7055 H         1 UNK         0.3055 
    106 H106       20.7692  -31.8637  -40.4141 H         1 UNK         0.1106 
    107 H107       20.8115  -33.6561  -38.7046 H         1 UNK         0.0828 
    108 H108       22.5677  -33.6663  -38.7114 H         1 UNK         0.0828 
    109 H109       21.6916  -32.2443  -38.1450 H         1 UNK         0.0828 
    110 H110       23.5077  -33.5984  -41.6636 H         1 UNK         0.2931 
    111 H111       23.8489  -35.2055  -43.0702 H         1 UNK         0.0412 
    112 H112       21.4871  -37.7303  -41.5186 H         1 UNK         0.3472 
    113 H113       22.0351  -36.2063  -40.8627 H         1 UNK         0.3472 
    114 H114       22.8204  -35.0834  -45.2802 H         1 UNK         0.0970 
    115 H115       23.2321  -33.5273  -44.6508 H         1 UNK         0.0970 
    116 H116       21.6308  -31.6307  -45.5229 H         1 UNK         0.0612 
    117 H117       21.6457  -31.7868  -43.7821 H         1 UNK         0.0612 
@<TRIPOS>BOND
     1    1    2 1    
     2    1   62 1    
     3    1   63 1    
     4    1   64 1    
     5    2    3 2    
     6    2    4 am   BACKBONE|DICT|INTERRES
     7    4    5 1    
     8    4   65 1    
     9    5    6 1    
    10    5   25 1    
    11    5   66 1    
    12    6    7 1    
    13    6   67 1    
    14    6   68 1    
    15    7    8 1    
    16    8    9 1    
    17    8   69 1    
    18    8   70 1    
    19    9   10 ar   
    20    9   14 ar   
    21   10   11 ar   
    22   10   71 1    
    23   11   12 ar   
    24   11   61 1    
    25   12   13 ar   
    26   12   72 1    
    27   13   14 ar   
    28   13   15 1    
    29   14   73 1    
    30   15   16 1    
    31   15   74 1    
    32   15   75 1    
    33   16   17 1    
    34   17   18 1    
    35   17   76 1    
    36   17   77 1    
    37   18   19 1    
    38   18   27 1    
    39   18   78 1    
    40   19   20 am   BACKBONE|DICT|INTERRES
    41   19   79 1    
    42   20   21 2    
    43   20   22 1    
    44   22   23 1    
    45   22   24 1    
    46   22   80 1    
    47   23   81 1    
    48   23   82 1    
    49   23   83 1    
    50   24   25 am   BACKBONE|DICT|INTERRES
    51   24   84 1    
    52   25   26 2    
    53   27   28 2    
    54   27   29 am   BACKBONE|DICT|INTERRES
    55   29   30 1    
    56   29   85 1    
    57   30   31 1    
    58   30   32 1    
    59   30   86 1    
    60   31   87 1    
    61   31   88 1    
    62   31   89 1    
    63   32   33 2    
    64   32   34 am   BACKBONE|DICT|INTERRES
    65   34   35 1    
    66   34   90 1    
    67   35   36 1    
    68   35   37 1    
    69   35   91 1    
    70   36   92 1    
    71   36   93 1    
    72   36   94 1    
    73   37   38 2    
    74   37   39 am   BACKBONE|DICT|INTERRES
    75   39   40 1    
    76   39   95 1    
    77   40   41 1    
    78   40   42 1    
    79   40   96 1    
    80   41   97 1    
    81   41   98 1    
    82   41   99 1    
    83   42   43 2    
    84   42   44 am   BACKBONE|DICT|INTERRES
    85   44   45 1    
    86   44  100 1    
    87   45   46 1    
    88   45   47 1    
    89   45  101 1    
    90   46  102 1    
    91   46  103 1    
    92   46  104 1    
    93   47   48 2    
    94   47   49 am   BACKBONE|DICT|INTERRES
    95   49   50 1    
    96   49  105 1    
    97   50   51 1    
    98   50   52 1    
    99   50  106 1    
   100   51  107 1    
   101   51  108 1    
   102   51  109 1    
   103   52   53 2    
   104   52   54 am   BACKBONE|DICT|INTERRES
   105   54   55 1    
   106   54  110 1    
   107   55   56 1    
   108   55   59 1    
   109   55  111 1    
   110   56   57 am   BACKBONE|DICT|INTERRES
   111   56   58 2    
   112   57  112 1    
   113   57  113 1    
   114   59   60 1    
   115   59  114 1    
   116   59  115 1    
   117   60   61 1    
   118   61  116 1    
   119   61  117 1    
@<TRIPOS>SUBSTRUCTURE
     1 UNK         1 GROUP             0       ****    0 ROOT    
