@<TRIPOS>MOLECULE
3R8
117   119    1
SMALL
USER_CHARGES


@<TRIPOS>ATOM
      1 CA         14.5611  -31.1438  -47.7581 C.3       0 UNK        -0.2013 
      2 C          14.7904  -30.0970  -46.6783 C.2       0 UNK         0.4866 
      3 O          14.2703  -30.2361  -45.5714 O.2       0 UNK        -0.5176 
      4 N          15.5639  -29.0530  -46.9913 N.am      1 UNK        -0.4884 
      5 CA         15.9647  -27.9842  -46.0774 C.3       1 UNK         0.0853 
      6 C6         14.8051  -27.0047  -45.7344 C.3       10 UNK        -0.0849 
      7 S7         15.0355  -26.0751  -44.1752 S.3       10 UNK        -0.2776 
      8 C8         14.5717  -27.2908  -42.8951 C.3       10 UNK         0.0316 
      9 C9         15.8055  -27.9201  -42.2621 C.ar      10 UNK        -0.0863 
     10 C10        16.2358  -29.1905  -42.6566 C.ar      10 UNK        -0.1009 
     11 C11        17.4105  -29.7345  -42.1330 C.ar      10 UNK        -0.0712 
     12 C12        18.1180  -29.0308  -41.1570 C.ar      10 UNK        -0.0894 
     13 C13        17.6837  -27.7759  -40.7259 C.ar      10 UNK        -0.0745 
     14 C14        16.5289  -27.2213  -41.2882 C.ar      10 UNK        -0.0972 
     15 C15        18.4652  -27.0269  -39.6530 C.3       10 UNK         0.0209 
     16 S16        20.2089  -26.7486  -40.1137 S.3       10 UNK        -0.2568 
     17 C17        20.0353  -25.6531  -41.5593 C.3       10 UNK        -0.0983 
     18 CA         20.4685  -26.3365  -42.8842 C.3       3 UNK         0.0876 
     19 N          19.7219  -25.7725  -44.0131 N.am      3 UNK        -0.4424 
     20 C          19.8515  -26.0835  -45.3098 C.2       2 UNK         0.4918 
     21 O          20.6572  -26.8980  -45.7625 O.2       2 UNK        -0.4875 
     22 CA         18.8322  -25.3990  -46.2358 C.3       2 UNK         0.0481 
     23 CB         19.3308  -25.2341  -47.6879 C.3       2 UNK        -0.1831 
     24 N          17.5530  -26.1125  -46.1489 N.am      2 UNK        -0.4498 
     25 C          17.2569  -27.3361  -46.6113 C.2       1 UNK         0.5027 
     26 O          17.9592  -27.9689  -47.4044 O.2       1 UNK        -0.4969 
     27 C          21.9981  -26.2481  -43.0851 C.2       3 UNK         0.5005 
     28 O          22.5076  -25.1723  -43.4143 O.2       3 UNK        -0.5279 
     29 N          22.6947  -27.3716  -42.8830 N.am      4 UNK        -0.4463 
     30 CA         24.1505  -27.4805  -42.9537 C.3       4 UNK         0.0283 
     31 CB         24.5207  -28.9449  -43.2457 C.3       4 UNK        -0.1875 
     32 C          24.8087  -27.0036  -41.6486 C.2       4 UNK         0.4949 
     33 O          24.1487  -26.9134  -40.6110 O.2       4 UNK        -0.5039 
     34 N          26.1198  -26.7372  -41.7187 N.am      5 UNK        -0.4663 
     35 CA         26.9451  -26.2978  -40.5858 C.3       5 UNK         0.0242 
     36 CB         28.3091  -25.8228  -41.1132 C.3       5 UNK        -0.1982 
     37 C          27.1351  -27.3668  -39.4917 C.2       5 UNK         0.5017 
     38 O          27.4321  -27.0114  -38.3503 O.2       5 UNK        -0.5012 
     39 N          26.9606  -28.6428  -39.8507 N.am      6 UNK        -0.4439 
     40 CA         26.9965  -29.7998  -38.9651 C.3       6 UNK         0.0297 
     41 CB         28.4502  -30.2651  -38.7637 C.3       6 UNK        -0.2006 
     42 C          26.1427  -30.9069  -39.5927 C.2       6 UNK         0.4892 
     43 O          25.9500  -30.9059  -40.8109 O.2       6 UNK        -0.5089 
     44 N          25.6632  -31.8298  -38.7468 N.am      7 UNK        -0.4243 
     45 CA         24.8686  -33.0208  -39.0866 C.3       7 UNK         0.0196 
     46 CB         25.6917  -34.0000  -39.9522 C.3       7 UNK        -0.2007 
     47 C          23.4837  -32.7216  -39.6993 C.2       7 UNK         0.5020 
     48 O          22.9268  -33.5881  -40.3768 O.2       7 UNK        -0.5147 
     49 N          22.9416  -31.5219  -39.4378 N.am      8 UNK        -0.4734 
     50 CA         21.6443  -30.9865  -39.8792 C.3       8 UNK         0.0238 
     51 CB         20.4725  -31.7965  -39.2833 C.3       8 UNK        -0.1912 
     52 C          21.5314  -30.8299  -41.4068 C.2       8 UNK         0.5038 
     53 O          21.5253  -29.7004  -41.8928 O.2       8 UNK        -0.5046 
     54 N          21.4503  -31.9554  -42.1207 N.am      9 UNK        -0.4200 
     55 CA         21.4508  -32.0648  -43.5869 C.3       9 UNK         0.0839 
     56 C          22.4370  -33.1547  -44.1005 C.2       9 UNK         0.5513 
     57 N          23.1741  -33.8622  -43.2507 N.am      9 UNK        -0.7519 
     58 O          22.5539  -33.3536  -45.3070 O.2       9 UNK        -0.4960 
     59 C59        20.0178  -32.2653  -44.1597 C.3       10 UNK        -0.0876 
     60 S60        19.0195  -30.7416  -44.0968 S.3       10 UNK        -0.2414 
     61 C61        17.9513  -31.0520  -42.6591 C.3       10 UNK         0.0169 
     62 H62        13.4961  -31.2380  -47.9689 H         1 UNK         0.0903 
     63 H63        15.0696  -30.8893  -48.6879 H         1 UNK         0.0903 
     64 H64        14.9296  -32.1133  -47.4241 H         1 UNK         0.0903 
     65 H65        16.0320  -29.0151  -47.8890 H         1 UNK         0.3096 
     66 H66        16.2830  -28.4751  -45.1616 H         1 UNK         0.1121 
     67 H67        13.8612  -27.5448  -45.6504 H         1 UNK         0.0849 
     68 H68        14.6524  -26.2954  -46.5499 H         1 UNK         0.0849 
     69 H69        13.9889  -26.7848  -42.1239 H         1 UNK         0.0865 
     70 H70        13.9166  -28.0566  -43.3141 H         1 UNK         0.0865 
     71 H71        15.6811  -29.7427  -43.4025 H         1 UNK         0.1346 
     72 H72        19.0296  -29.4418  -40.7510 H         1 UNK         0.1412 
     73 H73        16.1943  -26.2411  -40.9761 H         1 UNK         0.1426 
     74 H74        18.4360  -27.6065  -38.7295 H         1 UNK         0.0716 
     75 H75        17.9991  -26.0665  -39.4272 H         1 UNK         0.0716 
     76 H76        18.9915  -25.3405  -41.6169 H         1 UNK         0.0695 
     77 H77        20.5972  -24.7347  -41.3771 H         1 UNK         0.0695 
     78 H78        20.1849  -27.3914  -42.8466 H         1 UNK         0.0983 
     79 H79        19.0262  -25.0858  -43.7648 H         1 UNK         0.3095 
     80 H80        18.6502  -24.3958  -45.8466 H         1 UNK         0.0454 
     81 H81        19.6279  -26.1804  -48.1396 H         1 UNK         0.0851 
     82 H82        20.2037  -24.5814  -47.7195 H         1 UNK         0.0851 
     83 H83        18.5662  -24.7852  -48.3215 H         1 UNK         0.0851 
     84 H84        16.8790  -25.7079  -45.5090 H         1 UNK         0.2976 
     85 H85        22.2036  -28.1996  -42.5424 H         1 UNK         0.3116 
     86 H86        24.5125  -26.8583  -43.7750 H         1 UNK         0.0646 
     87 H87        24.2145  -29.6069  -42.4351 H         1 UNK         0.0847 
     88 H88        25.5970  -29.0664  -43.3723 H         1 UNK         0.0847 
     89 H89        24.0463  -29.2998  -44.1608 H         1 UNK         0.0847 
     90 H90        26.5902  -26.8380  -42.6075 H         1 UNK         0.3040 
     91 H91        26.4440  -25.4477  -40.1170 H         1 UNK         0.1015 
     92 H92        28.8531  -26.6277  -41.6093 H         1 UNK         0.0786 
     93 H93        28.9376  -25.4594  -40.2987 H         1 UNK         0.0786 
     94 H94        28.1978  -25.0029  -41.8230 H         1 UNK         0.0786 
     95 H95        26.6706  -28.8570  -40.7972 H         1 UNK         0.3172 
     96 H96        26.5593  -29.5288  -38.0016 H         1 UNK         0.0595 
     97 H97        28.4978  -31.1366  -38.1096 H         1 UNK         0.0839 
     98 H98        29.0579  -29.4848  -38.3053 H         1 UNK         0.0839 
     99 H99        28.9181  -30.5407  -39.7097 H         1 UNK         0.0839 
    100 H100       25.8777  -31.7238  -37.7641 H         1 UNK         0.2998 
    101 H101       24.6635  -33.5217  -38.1393 H         1 UNK         0.0822 
    102 H102       25.1742  -34.9531  -40.0682 H         1 UNK         0.0787 
    103 H103       25.8690  -33.6047  -40.9531 H         1 UNK         0.0787 
    104 H104       26.6598  -34.2137  -39.4993 H         1 UNK         0.0787 
    105 H105       23.5038  -30.8816  -38.8948 H         1 UNK         0.3055 
    106 H106       21.5798  -29.9775  -39.4664 H         1 UNK         0.1106 
    107 H107       19.5110  -31.3670  -39.5631 H         1 UNK         0.0828 
    108 H108       20.4696  -32.8346  -39.6159 H         1 UNK         0.0828 
    109 H109       20.5143  -31.8004  -38.1942 H         1 UNK         0.0828 
    110 H110       21.5540  -32.8272  -41.6142 H         1 UNK         0.2931 
    111 H111       21.8505  -31.1361  -43.9992 H         1 UNK         0.0412 
    112 H112       23.1192  -33.7239  -42.2466 H         1 UNK         0.3472 
    113 H113       23.8066  -34.5539  -43.6204 H         1 UNK         0.3472 
    114 H114       20.0564  -32.5568  -45.2109 H         1 UNK         0.0970 
    115 H115       19.5035  -33.0789  -43.6455 H         1 UNK         0.0970 
    116 H116       17.1356  -31.7171  -42.9463 H         1 UNK         0.0612 
    117 H117       18.5151  -31.5640  -41.8786 H         1 UNK         0.0612 
@<TRIPOS>BOND
     1    1    2 1    
     2    1   62 1    
     3    1   63 1    
     4    1   64 1    
     5    2    3 2    
     6    2    4 am   BACKBONE|DICT|INTERRES
     7    4    5 1    
     8    4   65 1    
     9    5    6 1    
    10    5   25 1    
    11    5   66 1    
    12    6    7 1    
    13    6   67 1    
    14    6   68 1    
    15    7    8 1    
    16    8    9 1    
    17    8   69 1    
    18    8   70 1    
    19    9   10 ar   
    20    9   14 ar   
    21   10   11 ar   
    22   10   71 1    
    23   11   12 ar   
    24   11   61 1    
    25   12   13 ar   
    26   12   72 1    
    27   13   14 ar   
    28   13   15 1    
    29   14   73 1    
    30   15   16 1    
    31   15   74 1    
    32   15   75 1    
    33   16   17 1    
    34   17   18 1    
    35   17   76 1    
    36   17   77 1    
    37   18   19 1    
    38   18   27 1    
    39   18   78 1    
    40   19   20 am   BACKBONE|DICT|INTERRES
    41   19   79 1    
    42   20   21 2    
    43   20   22 1    
    44   22   23 1    
    45   22   24 1    
    46   22   80 1    
    47   23   81 1    
    48   23   82 1    
    49   23   83 1    
    50   24   25 am   BACKBONE|DICT|INTERRES
    51   24   84 1    
    52   25   26 2    
    53   27   28 2    
    54   27   29 am   BACKBONE|DICT|INTERRES
    55   29   30 1    
    56   29   85 1    
    57   30   31 1    
    58   30   32 1    
    59   30   86 1    
    60   31   87 1    
    61   31   88 1    
    62   31   89 1    
    63   32   33 2    
    64   32   34 am   BACKBONE|DICT|INTERRES
    65   34   35 1    
    66   34   90 1    
    67   35   36 1    
    68   35   37 1    
    69   35   91 1    
    70   36   92 1    
    71   36   93 1    
    72   36   94 1    
    73   37   38 2    
    74   37   39 am   BACKBONE|DICT|INTERRES
    75   39   40 1    
    76   39   95 1    
    77   40   41 1    
    78   40   42 1    
    79   40   96 1    
    80   41   97 1    
    81   41   98 1    
    82   41   99 1    
    83   42   43 2    
    84   42   44 am   BACKBONE|DICT|INTERRES
    85   44   45 1    
    86   44  100 1    
    87   45   46 1    
    88   45   47 1    
    89   45  101 1    
    90   46  102 1    
    91   46  103 1    
    92   46  104 1    
    93   47   48 2    
    94   47   49 am   BACKBONE|DICT|INTERRES
    95   49   50 1    
    96   49  105 1    
    97   50   51 1    
    98   50   52 1    
    99   50  106 1    
   100   51  107 1    
   101   51  108 1    
   102   51  109 1    
   103   52   53 2    
   104   52   54 am   BACKBONE|DICT|INTERRES
   105   54   55 1    
   106   54  110 1    
   107   55   56 1    
   108   55   59 1    
   109   55  111 1    
   110   56   57 am   BACKBONE|DICT|INTERRES
   111   56   58 2    
   112   57  112 1    
   113   57  113 1    
   114   59   60 1    
   115   59  114 1    
   116   59  115 1    
   117   60   61 1    
   118   61  116 1    
   119   61  117 1    
@<TRIPOS>SUBSTRUCTURE
     1 UNK         1 GROUP             0       ****    0 ROOT    
