@<TRIPOS>MOLECULE
3R8
117   119    1
SMALL
USER_CHARGES


@<TRIPOS>ATOM
      1 CA         15.8138  -23.2237  -43.0852 C.3       0 UNK        -0.2013 
      2 C          16.6353  -24.3571  -43.6792 C.2       0 UNK         0.4866 
      3 O          17.1915  -25.1653  -42.9344 O.2       0 UNK        -0.5176 
      4 N          16.7455  -24.4080  -45.0170 N.am      1 UNK        -0.4884 
      5 CA         17.4178  -25.4578  -45.8088 C.3       1 UNK         0.0853 
      6 C6         16.7672  -26.8489  -45.5625 C.3       10 UNK        -0.0849 
      7 S7         16.8245  -27.9652  -47.0035 S.3       10 UNK        -0.2776 
      8 C8         15.8871  -29.3939  -46.3706 C.3       10 UNK         0.0316 
      9 C9         16.6285  -30.1247  -45.2580 C.ar      10 UNK        -0.0863 
     10 C10        17.5317  -31.1478  -45.5654 C.ar      10 UNK        -0.1009 
     11 C11        18.1914  -31.8400  -44.5452 C.ar      10 UNK        -0.0712 
     12 C12        17.9509  -31.4961  -43.2120 C.ar      10 UNK        -0.0894 
     13 C13        17.0590  -30.4691  -42.8916 C.ar      10 UNK        -0.0745 
     14 C14        16.3927  -29.7951  -43.9188 C.ar      10 UNK        -0.0972 
     15 C15        16.7848  -30.1171  -41.4357 C.3       10 UNK         0.0209 
     16 S16        18.2602  -29.4857  -40.5738 S.3       10 UNK        -0.2568 
     17 C17        18.4999  -27.8417  -41.3331 C.3       10 UNK        -0.0983 
     18 CA         19.9325  -27.6006  -41.8776 C.3       3 UNK         0.0876 
     19 N          19.9834  -26.3701  -42.6801 N.am      3 UNK        -0.4424 
     20 C          21.0608  -25.8780  -43.3172 C.2       2 UNK         0.4918 
     21 O          22.1887  -26.3603  -43.2201 O.2       2 UNK        -0.4875 
     22 CA         20.8446  -24.6309  -44.2037 C.3       2 UNK         0.0481 
     23 CB         21.9395  -24.4587  -45.2778 C.3       2 UNK        -0.1831 
     24 N          19.5045  -24.5966  -44.7988 N.am      2 UNK        -0.4498 
     25 C          18.9572  -25.5078  -45.6198 C.2       1 UNK         0.5027 
     26 O          19.6115  -26.3844  -46.1850 O.2       1 UNK        -0.4969 
     27 C          20.9910  -27.6333  -40.7522 C.2       3 UNK         0.5005 
     28 O          21.6619  -28.6524  -40.5768 O.2       3 UNK        -0.5279 
     29 N          21.1470  -26.5085  -40.0382 N.am      4 UNK        -0.4463 
     30 CA         22.1200  -26.3450  -38.9551 C.3       4 UNK         0.0283 
     31 CB         21.8216  -25.0499  -38.1832 C.3       4 UNK        -0.1875 
     32 C          23.5777  -26.3591  -39.4449 C.2       4 UNK         0.4949 
     33 O          24.4271  -26.9611  -38.7893 O.2       4 UNK        -0.5039 
     34 N          23.8385  -25.7185  -40.5934 N.am      5 UNK        -0.4663 
     35 CA         25.1584  -25.6708  -41.2316 C.3       5 UNK         0.0242 
     36 CB         25.1845  -24.5478  -42.2800 C.3       5 UNK        -0.1982 
     37 C          25.5466  -27.0171  -41.8633 C.2       5 UNK         0.5017 
     38 O          26.7094  -27.4134  -41.7838 O.2       5 UNK        -0.5012 
     39 N          24.5566  -27.7072  -42.4450 N.am      6 UNK        -0.4439 
     40 CA         24.6715  -29.0598  -42.9926 C.3       6 UNK         0.0297 
     41 CB         23.4545  -29.3335  -43.8938 C.3       6 UNK        -0.2006 
     42 C          24.7873  -30.1548  -41.9156 C.2       6 UNK         0.4892 
     43 O          25.0948  -31.2927  -42.2689 O.2       6 UNK        -0.5089 
     44 N          24.5021  -29.8143  -40.6479 N.am      7 UNK        -0.4243 
     45 CA         24.4290  -30.6977  -39.4774 C.3       7 UNK         0.0196 
     46 CB         25.8264  -31.2386  -39.1086 C.3       7 UNK        -0.2007 
     47 C          23.3792  -31.8073  -39.6721 C.2       7 UNK         0.5020 
     48 O          23.6806  -32.9901  -39.5003 O.2       7 UNK        -0.5147 
     49 N          22.1768  -31.3951  -40.1021 N.am      8 UNK        -0.4734 
     50 CA         21.0382  -32.2352  -40.5005 C.3       8 UNK         0.0238 
     51 CB         20.4416  -32.9695  -39.2820 C.3       8 UNK        -0.1912 
     52 C          21.3527  -33.1821  -41.6775 C.2       8 UNK         0.5038 
     53 O          20.7275  -34.2365  -41.8003 O.2       8 UNK        -0.5046 
     54 N          22.3166  -32.7786  -42.5153 N.am      9 UNK        -0.4200 
     55 CA         22.8655  -33.5180  -43.6621 C.3       9 UNK         0.0839 
     56 C          23.7208  -34.7594  -43.2654 C.2       9 UNK         0.5513 
     57 N          24.1485  -34.9023  -42.0153 N.am      9 UNK        -0.7519 
     58 O          24.0259  -35.5983  -44.1096 O.2       9 UNK        -0.4960 
     59 C59        21.8205  -33.8313  -44.7739 C.3       10 UNK        -0.0876 
     60 S60        20.8150  -32.3783  -45.2493 S.3       10 UNK        -0.2414 
     61 C61        19.1398  -32.9816  -44.8725 C.3       10 UNK         0.0169 
     62 H62        16.4325  -22.6188  -42.4231 H         1 UNK         0.0903 
     63 H63        15.4000  -22.5718  -43.8541 H         1 UNK         0.0903 
     64 H64        14.9869  -23.6285  -42.5026 H         1 UNK         0.0903 
     65 H65        16.2927  -23.6899  -45.5677 H         1 UNK         0.3096 
     66 H66        17.2565  -25.1822  -46.8524 H         1 UNK         0.1121 
     67 H67        15.7136  -26.7289  -45.3047 H         1 UNK         0.0849 
     68 H68        17.2291  -27.3364  -44.7028 H         1 UNK         0.0849 
     69 H69        14.9071  -29.0633  -46.0227 H         1 UNK         0.0865 
     70 H70        15.6950  -30.0808  -47.1963 H         1 UNK         0.0865 
     71 H71        17.7163  -31.4113  -46.5981 H         1 UNK         0.1346 
     72 H72        18.4519  -32.0342  -42.4197 H         1 UNK         0.1412 
     73 H73        15.6883  -29.0109  -43.6766 H         1 UNK         0.1426 
     74 H74        15.9813  -29.3835  -41.3516 H         1 UNK         0.0716 
     75 H75        16.4357  -31.0118  -40.9184 H         1 UNK         0.0716 
     76 H76        18.2312  -27.0795  -40.5995 H         1 UNK         0.0695 
     77 H77        17.7813  -27.7327  -42.1465 H         1 UNK         0.0695 
     78 H78        20.1720  -28.4189  -42.5603 H         1 UNK         0.0983 
     79 H79        19.0933  -25.8982  -42.8094 H         1 UNK         0.3095 
     80 H80        20.9011  -23.7708  -43.5355 H         1 UNK         0.0454 
     81 H81        21.7411  -23.5962  -45.9136 H         1 UNK         0.0851 
     82 H82        22.0233  -25.3368  -45.9187 H         1 UNK         0.0851 
     83 H83        22.9157  -24.3021  -44.8199 H         1 UNK         0.0851 
     84 H84        18.8697  -23.9178  -44.4016 H         1 UNK         0.2976 
     85 H85        20.5573  -25.7175  -40.2536 H         1 UNK         0.3116 
     86 H86        21.9961  -27.1844  -38.2670 H         1 UNK         0.0646 
     87 H87        20.8197  -25.0651  -37.7538 H         1 UNK         0.0847 
     88 H88        22.5228  -24.9188  -37.3577 H         1 UNK         0.0847 
     89 H89        21.9016  -24.1684  -38.8204 H         1 UNK         0.0847 
     90 H90        23.0732  -25.2893  -41.0930 H         1 UNK         0.3040 
     91 H91        25.9018  -25.4392  -40.4651 H         1 UNK         0.1015 
     92 H92        24.4641  -24.7248  -43.0782 H         1 UNK         0.0786 
     93 H93        26.1696  -24.4703  -42.7423 H         1 UNK         0.0786 
     94 H94        24.9604  -23.5797  -41.8318 H         1 UNK         0.0786 
     95 H95        23.6452  -27.2604  -42.5307 H         1 UNK         0.3172 
     96 H96        25.5728  -29.1051  -43.6071 H         1 UNK         0.0595 
     97 H97        22.5223  -29.3211  -43.3274 H         1 UNK         0.0839 
     98 H98        23.5307  -30.3091  -44.3754 H         1 UNK         0.0839 
     99 H99        23.3715  -28.5897  -44.6866 H         1 UNK         0.0839 
    100 H100       24.2153  -28.8584  -40.4835 H         1 UNK         0.2998 
    101 H101       24.0798  -30.0822  -38.6466 H         1 UNK         0.0822 
    102 H102       25.7891  -31.8137  -38.1827 H         1 UNK         0.0787 
    103 H103       26.2258  -31.8952  -39.8824 H         1 UNK         0.0787 
    104 H104       26.5374  -30.4262  -38.9582 H         1 UNK         0.0787 
    105 H105       22.0393  -30.3914  -40.2354 H         1 UNK         0.3055 
    106 H106       20.2805  -31.5479  -40.8752 H         1 UNK         0.1106 
    107 H107       19.5153  -33.4802  -39.5476 H         1 UNK         0.0828 
    108 H108       21.1258  -33.7211  -38.8875 H         1 UNK         0.0828 
    109 H109       20.2050  -32.2730  -38.4778 H         1 UNK         0.0828 
    110 H110       22.8123  -31.9297  -42.2851 H         1 UNK         0.2931 
    111 H111       23.5862  -32.8302  -44.1049 H         1 UNK         0.0412 
    112 H112       24.7092  -35.7042  -41.7748 H         1 UNK         0.3472 
    113 H113       23.9266  -34.2117  -41.3086 H         1 UNK         0.3472 
    114 H114       21.1750  -34.6538  -44.4627 H         1 UNK         0.0970 
    115 H115       22.3290  -34.1843  -45.6727 H         1 UNK         0.0970 
    116 H116       19.1702  -33.6742  -44.0305 H         1 UNK         0.0612 
    117 H117       18.7649  -33.5519  -45.7236 H         1 UNK         0.0612 
@<TRIPOS>BOND
     1    1    2 1    
     2    1   62 1    
     3    1   63 1    
     4    1   64 1    
     5    2    3 2    
     6    2    4 am   BACKBONE|DICT|INTERRES
     7    4    5 1    
     8    4   65 1    
     9    5    6 1    
    10    5   25 1    
    11    5   66 1    
    12    6    7 1    
    13    6   67 1    
    14    6   68 1    
    15    7    8 1    
    16    8    9 1    
    17    8   69 1    
    18    8   70 1    
    19    9   10 ar   
    20    9   14 ar   
    21   10   11 ar   
    22   10   71 1    
    23   11   12 ar   
    24   11   61 1    
    25   12   13 ar   
    26   12   72 1    
    27   13   14 ar   
    28   13   15 1    
    29   14   73 1    
    30   15   16 1    
    31   15   74 1    
    32   15   75 1    
    33   16   17 1    
    34   17   18 1    
    35   17   76 1    
    36   17   77 1    
    37   18   19 1    
    38   18   27 1    
    39   18   78 1    
    40   19   20 am   BACKBONE|DICT|INTERRES
    41   19   79 1    
    42   20   21 2    
    43   20   22 1    
    44   22   23 1    
    45   22   24 1    
    46   22   80 1    
    47   23   81 1    
    48   23   82 1    
    49   23   83 1    
    50   24   25 am   BACKBONE|DICT|INTERRES
    51   24   84 1    
    52   25   26 2    
    53   27   28 2    
    54   27   29 am   BACKBONE|DICT|INTERRES
    55   29   30 1    
    56   29   85 1    
    57   30   31 1    
    58   30   32 1    
    59   30   86 1    
    60   31   87 1    
    61   31   88 1    
    62   31   89 1    
    63   32   33 2    
    64   32   34 am   BACKBONE|DICT|INTERRES
    65   34   35 1    
    66   34   90 1    
    67   35   36 1    
    68   35   37 1    
    69   35   91 1    
    70   36   92 1    
    71   36   93 1    
    72   36   94 1    
    73   37   38 2    
    74   37   39 am   BACKBONE|DICT|INTERRES
    75   39   40 1    
    76   39   95 1    
    77   40   41 1    
    78   40   42 1    
    79   40   96 1    
    80   41   97 1    
    81   41   98 1    
    82   41   99 1    
    83   42   43 2    
    84   42   44 am   BACKBONE|DICT|INTERRES
    85   44   45 1    
    86   44  100 1    
    87   45   46 1    
    88   45   47 1    
    89   45  101 1    
    90   46  102 1    
    91   46  103 1    
    92   46  104 1    
    93   47   48 2    
    94   47   49 am   BACKBONE|DICT|INTERRES
    95   49   50 1    
    96   49  105 1    
    97   50   51 1    
    98   50   52 1    
    99   50  106 1    
   100   51  107 1    
   101   51  108 1    
   102   51  109 1    
   103   52   53 2    
   104   52   54 am   BACKBONE|DICT|INTERRES
   105   54   55 1    
   106   54  110 1    
   107   55   56 1    
   108   55   59 1    
   109   55  111 1    
   110   56   57 am   BACKBONE|DICT|INTERRES
   111   56   58 2    
   112   57  112 1    
   113   57  113 1    
   114   59   60 1    
   115   59  114 1    
   116   59  115 1    
   117   60   61 1    
   118   61  116 1    
   119   61  117 1    
@<TRIPOS>SUBSTRUCTURE
     1 UNK         1 GROUP             0       ****    0 ROOT    
