@<TRIPOS>MOLECULE
3R8
117   119    1
SMALL
USER_CHARGES


@<TRIPOS>ATOM
      1 CA         18.1662  -26.5432  -42.0088 C.3       0 UNK        -0.2013 
      2 C          17.0499  -25.5032  -42.0052 C.2       0 UNK         0.4866 
      3 O          16.5933  -25.1305  -40.9260 O.2       0 UNK        -0.5176 
      4 N          16.5553  -25.0048  -43.1491 N.am      1 UNK        -0.4884 
      5 CA         16.9496  -25.2268  -44.5527 C.3       1 UNK         0.0853 
      6 C6         17.0393  -26.7131  -45.0035 C.3       10 UNK        -0.0849 
      7 S7         15.6023  -27.7303  -44.5205 S.3       10 UNK        -0.2776 
      8 C8         16.0377  -29.3461  -45.2472 C.3       10 UNK         0.0316 
      9 C9         17.4158  -29.8254  -44.8095 C.ar      10 UNK        -0.0863 
     10 C10        17.6255  -30.2823  -43.5051 C.ar      10 UNK        -0.1009 
     11 C11        18.8948  -30.7023  -43.0955 C.ar      10 UNK        -0.0712 
     12 C12        19.9614  -30.6518  -43.9993 C.ar      10 UNK        -0.0894 
     13 C13        19.7632  -30.2026  -45.3092 C.ar      10 UNK        -0.0745 
     14 C14        18.4858  -29.7996  -45.7094 C.ar      10 UNK        -0.0972 
     15 C15        20.9217  -30.1728  -46.2999 C.3       10 UNK         0.0209 
     16 S16        21.2748  -28.4953  -46.9223 S.3       10 UNK        -0.2568 
     17 C17        21.8851  -27.6891  -45.4085 C.3       10 UNK        -0.0983 
     18 CA         22.1813  -26.1775  -45.5926 C.3       3 UNK         0.0876 
     19 N          21.0078  -25.4541  -46.0910 N.am      3 UNK        -0.4424 
     20 C          20.9834  -24.1742  -46.4852 C.2       2 UNK         0.4918 
     21 O          21.9838  -23.4605  -46.5565 O.2       2 UNK        -0.4875 
     22 CA         19.6046  -23.5763  -46.8319 C.3       2 UNK         0.0481 
     23 CB         19.4233  -23.5103  -48.3568 C.3       2 UNK        -0.1831 
     24 N          18.4555  -24.2792  -46.2400 N.am      2 UNK        -0.4498 
     25 C          18.2348  -24.4566  -44.9276 C.2       1 UNK         0.5027 
     26 O          19.0200  -24.0798  -44.0531 O.2       1 UNK        -0.4969 
     27 C          22.7150  -25.6192  -44.2553 C.2       3 UNK         0.5005 
     28 O          23.8800  -25.8606  -43.9387 O.2       3 UNK        -0.5279 
     29 N          21.8455  -24.9575  -43.4674 N.am      4 UNK        -0.4463 
     30 CA         22.0355  -24.6136  -42.0493 C.3       4 UNK         0.0283 
     31 CB         23.1561  -23.5688  -41.8650 C.3       4 UNK        -0.1875 
     32 C          22.2329  -25.8759  -41.1832 C.2       4 UNK         0.4949 
     33 O          23.0590  -25.8897  -40.2695 O.2       4 UNK        -0.5039 
     34 N          21.4938  -26.9365  -41.5423 N.am      5 UNK        -0.4663 
     35 CA         21.4998  -28.3140  -41.0334 C.3       5 UNK         0.0242 
     36 CB         21.1388  -28.3769  -39.5377 C.3       5 UNK        -0.1982 
     37 C          22.7894  -29.0981  -41.3286 C.2       5 UNK         0.5017 
     38 O          22.7022  -30.2701  -41.6947 O.2       5 UNK        -0.5012 
     39 N          23.9537  -28.4584  -41.1466 N.am      6 UNK        -0.4439 
     40 CA         25.3124  -28.9636  -41.4015 C.3       6 UNK         0.0297 
     41 CB         25.5344  -29.1281  -42.9202 C.3       6 UNK        -0.2006 
     42 C          25.6731  -30.2494  -40.6243 C.2       6 UNK         0.4892 
     43 O          26.5741  -30.9783  -41.0413 O.2       6 UNK        -0.5089 
     44 N          24.9377  -30.5177  -39.5331 N.am      7 UNK        -0.4243 
     45 CA         24.9225  -31.7464  -38.7276 C.3       7 UNK         0.0196 
     46 CB         26.2805  -31.9689  -38.0288 C.3       7 UNK        -0.2007 
     47 C          24.4479  -33.0032  -39.4921 C.2       7 UNK         0.5020 
     48 O          24.5770  -34.1078  -38.9630 O.2       7 UNK        -0.5147 
     49 N          23.8822  -32.8382  -40.6982 N.am      8 UNK        -0.4734 
     50 CA         23.4309  -33.9361  -41.5607 C.3       8 UNK         0.0238 
     51 CB         23.2195  -33.4078  -42.9883 C.3       8 UNK        -0.1912 
     52 C          22.1554  -34.6193  -41.0435 C.2       8 UNK         0.5038 
     53 O          21.9806  -35.8186  -41.2631 O.2       8 UNK        -0.5046 
     54 N          21.3082  -33.8463  -40.3547 N.am      9 UNK        -0.4200 
     55 CA         20.0884  -34.3154  -39.6806 C.3       9 UNK         0.0839 
     56 C          20.3353  -34.8108  -38.2244 C.2       9 UNK         0.5513 
     57 N          21.5657  -34.8460  -37.7238 N.am      9 UNK        -0.7519 
     58 O          19.3903  -35.1843  -37.5344 O.2       9 UNK        -0.4960 
     59 C59        18.9570  -33.2548  -39.7496 C.3       10 UNK        -0.0876 
     60 S60        18.4581  -32.8894  -41.4678 S.3       10 UNK        -0.2414 
     61 C61        19.1102  -31.2062  -41.6760 C.3       10 UNK         0.0169 
     62 H62        18.6380  -26.5887  -41.0276 H         1 UNK         0.0903 
     63 H63        18.9401  -26.3073  -42.7335 H         1 UNK         0.0903 
     64 H64        17.7630  -27.5313  -42.2281 H         1 UNK         0.0903 
     65 H65        15.8216  -24.3169  -43.0515 H         1 UNK         0.3096 
     66 H66        16.1476  -24.7663  -45.1326 H         1 UNK         0.1121 
     67 H67        17.9462  -27.1810  -44.6221 H         1 UNK         0.0849 
     68 H68        17.1215  -26.7704  -46.0905 H         1 UNK         0.0849 
     69 H69        15.2878  -30.0818  -44.9531 H         1 UNK         0.0865 
     70 H70        15.9813  -29.2738  -46.3345 H         1 UNK         0.0865 
     71 H71        16.7998  -30.3093  -42.8069 H         1 UNK         0.1346 
     72 H72        20.9456  -30.9676  -43.6833 H         1 UNK         0.1412 
     73 H73        18.3320  -29.4510  -46.7217 H         1 UNK         0.1426 
     74 H74        21.8285  -30.5850  -45.8540 H         1 UNK         0.0716 
     75 H75        20.6770  -30.8162  -47.1460 H         1 UNK         0.0716 
     76 H76        22.7843  -28.2204  -45.0882 H         1 UNK         0.0695 
     77 H77        21.1443  -27.8390  -44.6206 H         1 UNK         0.0695 
     78 H78        22.9785  -26.0653  -46.3307 H         1 UNK         0.0983 
     79 H79        20.1481  -25.9799  -46.1247 H         1 UNK         0.3095 
     80 H80        19.5933  -22.5555  -46.4446 H         1 UNK         0.0454 
     81 H81        18.5026  -22.9931  -48.6271 H         1 UNK         0.0851 
     82 H82        19.3959  -24.5047  -48.8042 H         1 UNK         0.0851 
     83 H83        20.2448  -22.9661  -48.8253 H         1 UNK         0.0851 
     84 H84        17.7672  -24.6221  -46.8955 H         1 UNK         0.2976 
     85 H85        20.9226  -24.7490  -43.8381 H         1 UNK         0.3116 
     86 H86        21.1013  -24.1576  -41.7176 H         1 UNK         0.0646 
     87 H87        22.9918  -22.6957  -42.4962 H         1 UNK         0.0847 
     88 H88        23.1955  -23.2196  -40.8326 H         1 UNK         0.0847 
     89 H89        24.1386  -23.9764  -42.1045 H         1 UNK         0.0847 
     90 H90        20.8948  -26.7949  -42.3410 H         1 UNK         0.3040 
     91 H91        20.7055  -28.8206  -41.5817 H         1 UNK         0.1015 
     92 H92        21.8888  -27.8908  -38.9132 H         1 UNK         0.0786 
     93 H93        21.0568  -29.4112  -39.2006 H         1 UNK         0.0786 
     94 H94        20.1799  -27.8974  -39.3420 H         1 UNK         0.0786 
     95 H95        23.8885  -27.4997  -40.8092 H         1 UNK         0.3172 
     96 H96        25.9956  -28.1913  -41.0457 H         1 UNK         0.0595 
     97 H97        25.2935  -28.2109  -43.4575 H         1 UNK         0.0839 
     98 H98        24.9203  -29.9291  -43.3335 H         1 UNK         0.0839 
     99 H99        26.5747  -29.3670  -43.1438 H         1 UNK         0.0839 
    100 H100       24.2322  -29.8366  -39.2902 H         1 UNK         0.2998 
    101 H101       24.1781  -31.5802  -37.9475 H         1 UNK         0.0822 
    102 H102       26.5967  -31.0800  -37.4828 H         1 UNK         0.0787 
    103 H103       26.2211  -32.7851  -37.3077 H         1 UNK         0.0787 
    104 H104       27.0667  -32.2240  -38.7398 H         1 UNK         0.0787 
    105 H105       23.7525  -31.8969  -41.0566 H         1 UNK         0.3055 
    106 H106       24.2189  -34.6922  -41.5887 H         1 UNK         0.1106 
    107 H107       24.1282  -32.9531  -43.3832 H         1 UNK         0.0828 
    108 H108       22.9386  -34.2153  -43.6658 H         1 UNK         0.0828 
    109 H109       22.4270  -32.6608  -43.0267 H         1 UNK         0.0828 
    110 H110       21.5535  -32.8775  -40.2194 H         1 UNK         0.2931 
    111 H111       19.7241  -35.1948  -40.2154 H         1 UNK         0.0412 
    112 H112       22.3647  -34.5856  -38.2836 H         1 UNK         0.3472 
    113 H113       21.7011  -35.1760  -36.7809 H         1 UNK         0.3472 
    114 H114       18.0660  -33.6120  -39.2297 H         1 UNK         0.0970 
    115 H115       19.2542  -32.3379  -39.2376 H         1 UNK         0.0970 
    116 H116       18.6220  -30.5342  -40.9685 H         1 UNK         0.0612 
    117 H117       20.1717  -31.2079  -41.4275 H         1 UNK         0.0612 
@<TRIPOS>BOND
     1    1    2 1    
     2    1   62 1    
     3    1   63 1    
     4    1   64 1    
     5    2    3 2    
     6    2    4 am   BACKBONE|DICT|INTERRES
     7    4    5 1    
     8    4   65 1    
     9    5    6 1    
    10    5   25 1    
    11    5   66 1    
    12    6    7 1    
    13    6   67 1    
    14    6   68 1    
    15    7    8 1    
    16    8    9 1    
    17    8   69 1    
    18    8   70 1    
    19    9   10 ar   
    20    9   14 ar   
    21   10   11 ar   
    22   10   71 1    
    23   11   12 ar   
    24   11   61 1    
    25   12   13 ar   
    26   12   72 1    
    27   13   14 ar   
    28   13   15 1    
    29   14   73 1    
    30   15   16 1    
    31   15   74 1    
    32   15   75 1    
    33   16   17 1    
    34   17   18 1    
    35   17   76 1    
    36   17   77 1    
    37   18   19 1    
    38   18   27 1    
    39   18   78 1    
    40   19   20 am   BACKBONE|DICT|INTERRES
    41   19   79 1    
    42   20   21 2    
    43   20   22 1    
    44   22   23 1    
    45   22   24 1    
    46   22   80 1    
    47   23   81 1    
    48   23   82 1    
    49   23   83 1    
    50   24   25 am   BACKBONE|DICT|INTERRES
    51   24   84 1    
    52   25   26 2    
    53   27   28 2    
    54   27   29 am   BACKBONE|DICT|INTERRES
    55   29   30 1    
    56   29   85 1    
    57   30   31 1    
    58   30   32 1    
    59   30   86 1    
    60   31   87 1    
    61   31   88 1    
    62   31   89 1    
    63   32   33 2    
    64   32   34 am   BACKBONE|DICT|INTERRES
    65   34   35 1    
    66   34   90 1    
    67   35   36 1    
    68   35   37 1    
    69   35   91 1    
    70   36   92 1    
    71   36   93 1    
    72   36   94 1    
    73   37   38 2    
    74   37   39 am   BACKBONE|DICT|INTERRES
    75   39   40 1    
    76   39   95 1    
    77   40   41 1    
    78   40   42 1    
    79   40   96 1    
    80   41   97 1    
    81   41   98 1    
    82   41   99 1    
    83   42   43 2    
    84   42   44 am   BACKBONE|DICT|INTERRES
    85   44   45 1    
    86   44  100 1    
    87   45   46 1    
    88   45   47 1    
    89   45  101 1    
    90   46  102 1    
    91   46  103 1    
    92   46  104 1    
    93   47   48 2    
    94   47   49 am   BACKBONE|DICT|INTERRES
    95   49   50 1    
    96   49  105 1    
    97   50   51 1    
    98   50   52 1    
    99   50  106 1    
   100   51  107 1    
   101   51  108 1    
   102   51  109 1    
   103   52   53 2    
   104   52   54 am   BACKBONE|DICT|INTERRES
   105   54   55 1    
   106   54  110 1    
   107   55   56 1    
   108   55   59 1    
   109   55  111 1    
   110   56   57 am   BACKBONE|DICT|INTERRES
   111   56   58 2    
   112   57  112 1    
   113   57  113 1    
   114   59   60 1    
   115   59  114 1    
   116   59  115 1    
   117   60   61 1    
   118   61  116 1    
   119   61  117 1    
@<TRIPOS>SUBSTRUCTURE
     1 UNK         1 GROUP             0       ****    0 ROOT    
