@<TRIPOS>MOLECULE
3R8
117   119    1
SMALL
USER_CHARGES


@<TRIPOS>ATOM
      1 CA         18.9471  -25.9973  -38.1262 C.3       0 UNK        -0.2013 
      2 C          18.5605  -25.6658  -39.5596 C.2       0 UNK         0.4866 
      3 O          18.2732  -24.5091  -39.8684 O.2       0 UNK        -0.5176 
      4 N          18.5544  -26.6755  -40.4340 N.am      1 UNK        -0.4884 
      5 CA         18.3269  -26.5490  -41.8720 C.3       1 UNK         0.0853 
      6 C6         17.5564  -27.7780  -42.4077 C.3       10 UNK        -0.0849 
      7 S7         16.8450  -27.4874  -44.0622 S.3       10 UNK        -0.2776 
      8 C8         16.0030  -29.0810  -44.3750 C.3       10 UNK         0.0316 
      9 C9         16.9185  -30.3069  -44.3878 C.ar      10 UNK        -0.0863 
     10 C10        16.3933  -31.5556  -44.0387 C.ar      10 UNK        -0.1009 
     11 C11        17.1923  -32.7047  -44.0359 C.ar      10 UNK        -0.0712 
     12 C12        18.5504  -32.5838  -44.3655 C.ar      10 UNK        -0.0894 
     13 C13        19.0889  -31.3458  -44.7216 C.ar      10 UNK        -0.0745 
     14 C14        18.2652  -30.2199  -44.7553 C.ar      10 UNK        -0.0972 
     15 C15        20.5613  -31.2054  -45.0669 C.3       10 UNK         0.0209 
     16 S16        21.4294  -30.2754  -43.7687 S.3       10 UNK        -0.2568 
     17 C17        22.8948  -29.6890  -44.6767 C.3       10 UNK        -0.0983 
     18 CA         22.6191  -28.4163  -45.5190 C.3       3 UNK         0.0876 
     19 N          22.0236  -27.3300  -44.7305 N.am      3 UNK        -0.4424 
     20 C          21.4516  -26.2343  -45.2430 C.2       2 UNK         0.4918 
     21 O          21.2538  -26.0662  -46.4476 O.2       2 UNK        -0.4875 
     22 CA         21.0338  -25.1457  -44.2364 C.3       2 UNK         0.0481 
     23 CB         20.8712  -23.7671  -44.9015 C.3       2 UNK        -0.1831 
     24 N          19.7933  -25.4858  -43.5376 N.am      2 UNK        -0.4498 
     25 C          19.6990  -26.3862  -42.5522 C.2       1 UNK         0.5027 
     26 O          20.6517  -27.0654  -42.1644 O.2       1 UNK        -0.4969 
     27 C          23.9120  -27.9420  -46.2135 C.2       3 UNK         0.5005 
     28 O          24.1414  -28.2599  -47.3814 O.2       3 UNK        -0.5279 
     29 N          24.7050  -27.1599  -45.4747 N.am      4 UNK        -0.4463 
     30 CA         25.9012  -26.4379  -45.9014 C.3       4 UNK         0.0283 
     31 CB         27.0777  -27.3896  -46.1984 C.3       4 UNK        -0.1875 
     32 C          26.2106  -25.4572  -44.7694 C.2       4 UNK         0.4949 
     33 O          26.1152  -24.2445  -44.9548 O.2       4 UNK        -0.5039 
     34 N          26.4402  -26.0286  -43.5816 N.am      5 UNK        -0.4663 
     35 CA         26.1647  -25.3958  -42.2938 C.3       5 UNK         0.0242 
     36 CB         27.1745  -25.9277  -41.2614 C.3       5 UNK        -0.1982 
     37 C          24.7199  -25.7384  -41.8794 C.2       5 UNK         0.5017 
     38 O          24.0617  -26.5388  -42.5543 O.2       5 UNK        -0.5012 
     39 N          24.2567  -25.1432  -40.7735 N.am      6 UNK        -0.4439 
     40 CA         22.9772  -25.4700  -40.1420 C.3       6 UNK         0.0297 
     41 CB         22.6226  -24.3860  -39.1110 C.3       6 UNK        -0.2006 
     42 C          23.0478  -26.8630  -39.4908 C.2       6 UNK         0.4892 
     43 O          23.8332  -27.0513  -38.5588 O.2       6 UNK        -0.5089 
     44 N          22.2550  -27.8073  -40.0038 N.am      7 UNK        -0.4243 
     45 CA         22.2211  -29.2080  -39.5898 C.3       7 UNK         0.0196 
     46 CB         23.3857  -29.9771  -40.2539 C.3       7 UNK        -0.2007 
     47 C          20.8319  -29.7977  -39.8903 C.2       7 UNK         0.5020 
     48 O          19.8392  -29.0694  -39.8474 O.2       7 UNK        -0.5147 
     49 N          20.7720  -31.1039  -40.1626 N.am      8 UNK        -0.4734 
     50 CA         19.5816  -31.8711  -40.5234 C.3       8 UNK         0.0238 
     51 CB         18.6108  -31.9704  -39.3252 C.3       8 UNK        -0.1912 
     52 C          20.0338  -33.2660  -40.9820 C.2       8 UNK         0.5038 
     53 O          21.2273  -33.5772  -40.9108 O.2       8 UNK        -0.5046 
     54 N          19.0701  -34.0853  -41.4189 N.am      9 UNK        -0.4200 
     55 CA         19.2437  -35.5107  -41.7359 C.3       9 UNK         0.0839 
     56 C          19.7118  -36.3345  -40.5035 C.2       9 UNK         0.5513 
     57 N          20.5973  -37.3008  -40.7028 N.am      9 UNK        -0.7519 
     58 O          19.2426  -36.1361  -39.3844 O.2       9 UNK        -0.4960 
     59 C59        17.9381  -36.1175  -42.3137 C.3       10 UNK        -0.0876 
     60 S60        17.5448  -35.5300  -43.9955 S.3       10 UNK        -0.2414 
     61 C61        16.5332  -34.0405  -43.6770 C.3       10 UNK         0.0169 
     62 H62        18.0526  -26.1565  -37.5248 H         1 UNK         0.0903 
     63 H63        19.5603  -26.8973  -38.0752 H         1 UNK         0.0903 
     64 H64        19.5123  -25.1785  -37.6828 H         1 UNK         0.0903 
     65 H65        18.9098  -27.5886  -40.1439 H         1 UNK         0.3096 
     66 H66        17.7282  -25.6546  -42.0595 H         1 UNK         0.1121 
     67 H67        18.1960  -28.6633  -42.4182 H         1 UNK         0.0849 
     68 H68        16.7290  -28.0159  -41.7370 H         1 UNK         0.0849 
     69 H69        15.2228  -29.2069  -43.6225 H         1 UNK         0.0865 
     70 H70        15.4945  -29.0210  -45.3380 H         1 UNK         0.0865 
     71 H71        15.3475  -31.6371  -43.7736 H         1 UNK         0.1346 
     72 H72        19.2012  -33.4458  -44.3504 H         1 UNK         0.1412 
     73 H73        18.6941  -29.2693  -45.0409 H         1 UNK         0.1426 
     74 H74        20.6519  -30.6906  -46.0239 H         1 UNK         0.0716 
     75 H75        21.0352  -32.1805  -45.1897 H         1 UNK         0.0716 
     76 H76        23.2646  -30.4987  -45.3088 H         1 UNK         0.0695 
     77 H77        23.6763  -29.4963  -43.9388 H         1 UNK         0.0695 
     78 H78        21.9099  -28.6754  -46.3075 H         1 UNK         0.0983 
     79 H79        22.0840  -27.4110  -43.7205 H         1 UNK         0.3095 
     80 H80        21.8346  -25.0553  -43.4991 H         1 UNK         0.0454 
     81 H81        21.7823  -23.4794  -45.4279 H         1 UNK         0.0851 
     82 H82        20.6681  -22.9916  -44.1628 H         1 UNK         0.0851 
     83 H83        20.0585  -23.7594  -45.6289 H         1 UNK         0.0851 
     84 H84        18.9595  -25.0017  -43.8387 H         1 UNK         0.2976 
     85 H85        24.3970  -26.9467  -44.5280 H         1 UNK         0.3116 
     86 H86        25.6658  -25.8649  -46.8006 H         1 UNK         0.0646 
     87 H87        27.9874  -26.8272  -46.4123 H         1 UNK         0.0847 
     88 H88        27.2922  -28.0551  -45.3620 H         1 UNK         0.0847 
     89 H89        26.8738  -28.0110  -47.0702 H         1 UNK         0.0847 
     90 H90        26.4757  -27.0380  -43.5574 H         1 UNK         0.3040 
     91 H91        26.2615  -24.3105  -42.3732 H         1 UNK         0.1015 
     92 H92        27.0479  -25.4406  -40.2939 H         1 UNK         0.0786 
     93 H93        28.2002  -25.7421  -41.5810 H         1 UNK         0.0786 
     94 H94        27.0633  -27.0013  -41.1023 H         1 UNK         0.0786 
     95 H95        24.8681  -24.5260  -40.2589 H         1 UNK         0.3172 
     96 H96        22.2029  -25.4626  -40.9096 H         1 UNK         0.0595 
     97 H97        22.5348  -23.4056  -39.5796 H         1 UNK         0.0839 
     98 H98        23.3705  -24.3158  -38.3200 H         1 UNK         0.0839 
     99 H99        21.6663  -24.6023  -38.6353 H         1 UNK         0.0839 
    100 H100       21.6219  -27.5674  -40.7690 H         1 UNK         0.2998 
    101 H101       22.3451  -29.2540  -38.5061 H         1 UNK         0.0822 
    102 H102       24.3443  -29.5019  -40.0452 H         1 UNK         0.0787 
    103 H103       23.4576  -31.0001  -39.8839 H         1 UNK         0.0787 
    104 H104       23.2701  -30.0190  -41.3374 H         1 UNK         0.0787 
    105 H105       21.6261  -31.6471  -40.2158 H         1 UNK         0.3055 
    106 H106       19.0906  -31.3755  -41.3647 H         1 UNK         0.1106 
    107 H107       18.2659  -30.9896  -38.9991 H         1 UNK         0.0828 
    108 H108       17.7187  -32.5436  -39.5785 H         1 UNK         0.0828 
    109 H109       19.0802  -32.4593  -38.4707 H         1 UNK         0.0828 
    110 H110       18.1216  -33.7456  -41.4394 H         1 UNK         0.2931 
    111 H111       20.0221  -35.5763  -42.4992 H         1 UNK         0.0412 
    112 H112       20.9007  -37.8581  -39.9190 H         1 UNK         0.3472 
    113 H113       20.9788  -37.4772  -41.6197 H         1 UNK         0.3472 
    114 H114       17.0928  -35.9460  -41.6446 H         1 UNK         0.0970 
    115 H115       18.0309  -37.2030  -42.3900 H         1 UNK         0.0970 
    116 H116       15.6186  -34.1415  -44.2632 H         1 UNK         0.0612 
    117 H117       16.2200  -34.0131  -42.6331 H         1 UNK         0.0612 
@<TRIPOS>BOND
     1    1    2 1    
     2    1   62 1    
     3    1   63 1    
     4    1   64 1    
     5    2    3 2    
     6    2    4 am   BACKBONE|DICT|INTERRES
     7    4    5 1    
     8    4   65 1    
     9    5    6 1    
    10    5   25 1    
    11    5   66 1    
    12    6    7 1    
    13    6   67 1    
    14    6   68 1    
    15    7    8 1    
    16    8    9 1    
    17    8   69 1    
    18    8   70 1    
    19    9   10 ar   
    20    9   14 ar   
    21   10   11 ar   
    22   10   71 1    
    23   11   12 ar   
    24   11   61 1    
    25   12   13 ar   
    26   12   72 1    
    27   13   14 ar   
    28   13   15 1    
    29   14   73 1    
    30   15   16 1    
    31   15   74 1    
    32   15   75 1    
    33   16   17 1    
    34   17   18 1    
    35   17   76 1    
    36   17   77 1    
    37   18   19 1    
    38   18   27 1    
    39   18   78 1    
    40   19   20 am   BACKBONE|DICT|INTERRES
    41   19   79 1    
    42   20   21 2    
    43   20   22 1    
    44   22   23 1    
    45   22   24 1    
    46   22   80 1    
    47   23   81 1    
    48   23   82 1    
    49   23   83 1    
    50   24   25 am   BACKBONE|DICT|INTERRES
    51   24   84 1    
    52   25   26 2    
    53   27   28 2    
    54   27   29 am   BACKBONE|DICT|INTERRES
    55   29   30 1    
    56   29   85 1    
    57   30   31 1    
    58   30   32 1    
    59   30   86 1    
    60   31   87 1    
    61   31   88 1    
    62   31   89 1    
    63   32   33 2    
    64   32   34 am   BACKBONE|DICT|INTERRES
    65   34   35 1    
    66   34   90 1    
    67   35   36 1    
    68   35   37 1    
    69   35   91 1    
    70   36   92 1    
    71   36   93 1    
    72   36   94 1    
    73   37   38 2    
    74   37   39 am   BACKBONE|DICT|INTERRES
    75   39   40 1    
    76   39   95 1    
    77   40   41 1    
    78   40   42 1    
    79   40   96 1    
    80   41   97 1    
    81   41   98 1    
    82   41   99 1    
    83   42   43 2    
    84   42   44 am   BACKBONE|DICT|INTERRES
    85   44   45 1    
    86   44  100 1    
    87   45   46 1    
    88   45   47 1    
    89   45  101 1    
    90   46  102 1    
    91   46  103 1    
    92   46  104 1    
    93   47   48 2    
    94   47   49 am   BACKBONE|DICT|INTERRES
    95   49   50 1    
    96   49  105 1    
    97   50   51 1    
    98   50   52 1    
    99   50  106 1    
   100   51  107 1    
   101   51  108 1    
   102   51  109 1    
   103   52   53 2    
   104   52   54 am   BACKBONE|DICT|INTERRES
   105   54   55 1    
   106   54  110 1    
   107   55   56 1    
   108   55   59 1    
   109   55  111 1    
   110   56   57 am   BACKBONE|DICT|INTERRES
   111   56   58 2    
   112   57  112 1    
   113   57  113 1    
   114   59   60 1    
   115   59  114 1    
   116   59  115 1    
   117   60   61 1    
   118   61  116 1    
   119   61  117 1    
@<TRIPOS>SUBSTRUCTURE
     1 UNK         1 GROUP             0       ****    0 ROOT    
