@<TRIPOS>MOLECULE
3R8
117   119    1
SMALL
USER_CHARGES


@<TRIPOS>ATOM
      1 CA         18.7663  -24.5445  -39.1216 C.3       0 UNK        -0.2013 
      2 C          18.3329  -24.2921  -40.5581 C.2       0 UNK         0.4866 
      3 O          17.9071  -23.1833  -40.8847 O.2       0 UNK        -0.5176 
      4 N          18.4301  -25.3139  -41.4151 N.am      1 UNK        -0.4884 
      5 CA         18.1334  -25.2462  -42.8489 C.3       1 UNK         0.0853 
      6 C6         18.0205  -26.6600  -43.4746 C.3       10 UNK        -0.0849 
      7 S7         16.7159  -27.6825  -42.7140 S.3       10 UNK        -0.2776 
      8 C8         16.3285  -28.8389  -44.0673 C.3       10 UNK         0.0316 
      9 C9         17.5100  -29.7345  -44.4190 C.ar      10 UNK        -0.0863 
     10 C10        17.7652  -30.8914  -43.6754 C.ar      10 UNK        -0.1009 
     11 C11        18.8240  -31.7373  -44.0212 C.ar      10 UNK        -0.0712 
     12 C12        19.6429  -31.4088  -45.1054 C.ar      10 UNK        -0.0894 
     13 C13        19.4019  -30.2527  -45.8523 C.ar      10 UNK        -0.0745 
     14 C14        18.3293  -29.4239  -45.5092 C.ar      10 UNK        -0.0972 
     15 C15        20.2882  -29.9153  -47.0430 C.3       10 UNK         0.0209 
     16 S16        21.8386  -29.1175  -46.5226 S.3       10 UNK        -0.2568 
     17 C17        21.2299  -27.5181  -45.8898 C.3       10 UNK        -0.0983 
     18 CA         22.1051  -26.2953  -46.2741 C.3       3 UNK         0.0876 
     19 N          21.4469  -25.0608  -45.8664 N.am      3 UNK        -0.4424 
     20 C          20.4601  -24.4432  -46.5177 C.2       2 UNK         0.4918 
     21 O          20.0504  -24.7842  -47.6285 O.2       2 UNK        -0.4875 
     22 CA         19.7604  -23.3085  -45.7465 C.3       2 UNK         0.0481 
     23 CB         18.9801  -22.3604  -46.6749 C.3       2 UNK        -0.1831 
     24 N          18.8394  -23.8874  -44.7644 N.am      2 UNK        -0.4498 
     25 C          19.2121  -24.4391  -43.6005 C.2       1 UNK         0.5027 
     26 O          20.3657  -24.3889  -43.1640 O.2       1 UNK        -0.4969 
     27 C          23.4831  -26.3267  -45.5907 C.2       3 UNK         0.5005 
     28 O          23.6682  -25.6761  -44.5583 O.2       3 UNK        -0.5279 
     29 N          24.4146  -27.1073  -46.1551 N.am      4 UNK        -0.4463 
     30 CA         25.7282  -27.3867  -45.5681 C.3       4 UNK         0.0283 
     31 CB         26.6261  -28.0640  -46.6159 C.3       4 UNK        -0.1875 
     32 C          25.6392  -28.2484  -44.2950 C.2       4 UNK         0.4949 
     33 O          26.4513  -28.0647  -43.3883 O.2       4 UNK        -0.5039 
     34 N          24.6559  -29.1606  -44.2445 N.am      5 UNK        -0.4663 
     35 CA         24.3458  -29.9694  -43.0621 C.3       5 UNK         0.0242 
     36 CB         23.4859  -31.1779  -43.4692 C.3       5 UNK        -0.1982 
     37 C          23.6413  -29.1366  -41.9794 C.2       5 UNK         0.5017 
     38 O          24.0237  -29.2072  -40.8125 O.2       5 UNK        -0.5012 
     39 N          22.6414  -28.3523  -42.4061 N.am      6 UNK        -0.4439 
     40 CA         21.8020  -27.4139  -41.6494 C.3       6 UNK         0.0297 
     41 CB         22.6372  -26.2880  -41.0121 C.3       6 UNK        -0.2006 
     42 C          20.8605  -28.0574  -40.6153 C.2       6 UNK         0.4892 
     43 O          19.6821  -27.7051  -40.5926 O.2       6 UNK        -0.5089 
     44 N          21.3705  -28.9625  -39.7762 N.am      7 UNK        -0.4243 
     45 CA         20.6330  -29.6549  -38.7223 C.3       7 UNK         0.0196 
     46 CB         20.3819  -28.7030  -37.5350 C.3       7 UNK        -0.2007 
     47 C          21.4268  -30.8866  -38.2734 C.2       7 UNK         0.5020 
     48 O          22.6301  -30.9637  -38.5283 O.2       7 UNK        -0.5147 
     49 N          20.7382  -31.8116  -37.5874 N.am      8 UNK        -0.4734 
     50 CA         21.2640  -33.0704  -37.0347 C.3       8 UNK         0.0238 
     51 CB         22.2372  -32.7906  -35.8685 C.3       8 UNK        -0.1912 
     52 C          21.8681  -33.9873  -38.1178 C.2       8 UNK         0.5038 
     53 O          22.9740  -34.5055  -37.9496 O.2       8 UNK        -0.5046 
     54 N          21.1244  -34.1468  -39.2202 N.am      9 UNK        -0.4200 
     55 CA         21.5151  -34.9192  -40.4105 C.3       9 UNK         0.0839 
     56 C          21.6763  -36.4522  -40.1869 C.2       9 UNK         0.5513 
     57 N          21.1444  -37.0301  -39.1163 N.am      9 UNK        -0.7519 
     58 O          22.2944  -37.1282  -41.0052 O.2       9 UNK        -0.4960 
     59 C59        20.5563  -34.6540  -41.5997 C.3       10 UNK        -0.0876 
     60 S60        20.3978  -32.8915  -42.0461 S.3       10 UNK        -0.2414 
     61 C61        19.0557  -33.0345  -43.2633 C.3       10 UNK         0.0169 
     62 H62        17.9485  -24.3214  -38.4371 H         1 UNK         0.0903 
     63 H63        19.0665  -25.5801  -38.9634 H         1 UNK         0.0903 
     64 H64        19.6104  -23.9042  -38.8669 H         1 UNK         0.0903 
     65 H65        18.8017  -26.2073  -41.0925 H         1 UNK         0.3096 
     66 H66        17.1778  -24.7308  -42.9692 H         1 UNK         0.1121 
     67 H67        18.9642  -27.2015  -43.3865 H         1 UNK         0.0849 
     68 H68        17.8123  -26.5821  -44.5433 H         1 UNK         0.0849 
     69 H69        15.9964  -28.2777  -44.9422 H         1 UNK         0.0865 
     70 H70        15.4801  -29.4565  -43.7687 H         1 UNK         0.0865 
     71 H71        17.1280  -31.1411  -42.8379 H         1 UNK         0.1346 
     72 H72        20.4640  -32.0597  -45.3738 H         1 UNK         0.1412 
     73 H73        18.1288  -28.5376  -46.0951 H         1 UNK         0.1426 
     74 H74        19.7626  -29.2707  -47.7493 H         1 UNK         0.0716 
     75 H75        20.5292  -30.8289  -47.5885 H         1 UNK         0.0716 
     76 H76        21.1105  -27.5910  -44.8083 H         1 UNK         0.0695 
     77 H77        20.2249  -27.3636  -46.2831 H         1 UNK         0.0695 
     78 H78        22.2563  -26.2721  -47.3558 H         1 UNK         0.0983 
     79 H79        21.7295  -24.7253  -44.9506 H         1 UNK         0.3095 
     80 H80        20.5223  -22.7209  -45.2297 H         1 UNK         0.0454 
     81 H81        18.1789  -22.8756  -47.2063 H         1 UNK         0.0851 
     82 H82        19.6392  -21.9226  -47.4257 H         1 UNK         0.0851 
     83 H83        18.5353  -21.5368  -46.1163 H         1 UNK         0.0851 
     84 H84        17.8808  -23.9908  -45.0661 H         1 UNK         0.2976 
     85 H85        24.1757  -27.6142  -46.9965 H         1 UNK         0.3116 
     86 H86        26.1857  -26.4340  -45.2922 H         1 UNK         0.0646 
     87 H87        26.2156  -29.0188  -46.9468 H         1 UNK         0.0847 
     88 H88        27.6187  -28.2610  -46.2082 H         1 UNK         0.0847 
     89 H89        26.7591  -27.4319  -47.4940 H         1 UNK         0.0847 
     90 H90        24.0455  -29.2575  -45.0441 H         1 UNK         0.3040 
     91 H91        25.2816  -30.3438  -42.6402 H         1 UNK         0.1015 
     92 H92        23.9973  -31.8000  -44.2038 H         1 UNK         0.0786 
     93 H93        22.5275  -30.8769  -43.8945 H         1 UNK         0.0786 
     94 H94        23.2727  -31.8087  -42.6050 H         1 UNK         0.0786 
     95 H95        22.4240  -28.4115  -43.3893 H         1 UNK         0.3172 
     96 H96        21.1621  -26.9435  -42.3964 H         1 UNK         0.0595 
     97 H97        23.3101  -26.6618  -40.2400 H         1 UNK         0.0839 
     98 H98        21.9896  -25.5426  -40.5483 H         1 UNK         0.0839 
     99 H99        23.2372  -25.7711  -41.7612 H         1 UNK         0.0839 
    100 H100       22.3492  -29.2315  -39.8710 H         1 UNK         0.2998 
    101 H101       19.6786  -29.9944  -39.1310 H         1 UNK         0.0822 
    102 H102       19.7707  -27.8492  -37.8275 H         1 UNK         0.0787 
    103 H103       19.8547  -29.2092  -36.7256 H         1 UNK         0.0787 
    104 H104       21.3175  -28.3196  -37.1260 H         1 UNK         0.0787 
    105 H105       19.7529  -31.6467  -37.4293 H         1 UNK         0.3055 
    106 H106       20.4111  -33.6130  -36.6230 H         1 UNK         0.1106 
    107 H107       22.5435  -33.7186  -35.3841 H         1 UNK         0.0828 
    108 H108       21.7731  -32.1663  -35.1052 H         1 UNK         0.0828 
    109 H109       23.1437  -32.2878  -36.2071 H         1 UNK         0.0828 
    110 H110       20.2402  -33.6646  -39.2799 H         1 UNK         0.2931 
    111 H111       22.5019  -34.5540  -40.7022 H         1 UNK         0.0412 
    112 H112       20.6351  -36.4848  -38.4396 H         1 UNK         0.3472 
    113 H113       21.2578  -38.0229  -38.9827 H         1 UNK         0.3472 
    114 H114       20.9007  -35.1882  -42.4878 H         1 UNK         0.0970 
    115 H115       19.5629  -35.0475  -41.3747 H         1 UNK         0.0970 
    116 H116       18.1426  -33.3461  -42.7536 H         1 UNK         0.0612 
    117 H117       19.2958  -33.8266  -43.9744 H         1 UNK         0.0612 
@<TRIPOS>BOND
     1    1    2 1    
     2    1   62 1    
     3    1   63 1    
     4    1   64 1    
     5    2    3 2    
     6    2    4 am   BACKBONE|DICT|INTERRES
     7    4    5 1    
     8    4   65 1    
     9    5    6 1    
    10    5   25 1    
    11    5   66 1    
    12    6    7 1    
    13    6   67 1    
    14    6   68 1    
    15    7    8 1    
    16    8    9 1    
    17    8   69 1    
    18    8   70 1    
    19    9   10 ar   
    20    9   14 ar   
    21   10   11 ar   
    22   10   71 1    
    23   11   12 ar   
    24   11   61 1    
    25   12   13 ar   
    26   12   72 1    
    27   13   14 ar   
    28   13   15 1    
    29   14   73 1    
    30   15   16 1    
    31   15   74 1    
    32   15   75 1    
    33   16   17 1    
    34   17   18 1    
    35   17   76 1    
    36   17   77 1    
    37   18   19 1    
    38   18   27 1    
    39   18   78 1    
    40   19   20 am   BACKBONE|DICT|INTERRES
    41   19   79 1    
    42   20   21 2    
    43   20   22 1    
    44   22   23 1    
    45   22   24 1    
    46   22   80 1    
    47   23   81 1    
    48   23   82 1    
    49   23   83 1    
    50   24   25 am   BACKBONE|DICT|INTERRES
    51   24   84 1    
    52   25   26 2    
    53   27   28 2    
    54   27   29 am   BACKBONE|DICT|INTERRES
    55   29   30 1    
    56   29   85 1    
    57   30   31 1    
    58   30   32 1    
    59   30   86 1    
    60   31   87 1    
    61   31   88 1    
    62   31   89 1    
    63   32   33 2    
    64   32   34 am   BACKBONE|DICT|INTERRES
    65   34   35 1    
    66   34   90 1    
    67   35   36 1    
    68   35   37 1    
    69   35   91 1    
    70   36   92 1    
    71   36   93 1    
    72   36   94 1    
    73   37   38 2    
    74   37   39 am   BACKBONE|DICT|INTERRES
    75   39   40 1    
    76   39   95 1    
    77   40   41 1    
    78   40   42 1    
    79   40   96 1    
    80   41   97 1    
    81   41   98 1    
    82   41   99 1    
    83   42   43 2    
    84   42   44 am   BACKBONE|DICT|INTERRES
    85   44   45 1    
    86   44  100 1    
    87   45   46 1    
    88   45   47 1    
    89   45  101 1    
    90   46  102 1    
    91   46  103 1    
    92   46  104 1    
    93   47   48 2    
    94   47   49 am   BACKBONE|DICT|INTERRES
    95   49   50 1    
    96   49  105 1    
    97   50   51 1    
    98   50   52 1    
    99   50  106 1    
   100   51  107 1    
   101   51  108 1    
   102   51  109 1    
   103   52   53 2    
   104   52   54 am   BACKBONE|DICT|INTERRES
   105   54   55 1    
   106   54  110 1    
   107   55   56 1    
   108   55   59 1    
   109   55  111 1    
   110   56   57 am   BACKBONE|DICT|INTERRES
   111   56   58 2    
   112   57  112 1    
   113   57  113 1    
   114   59   60 1    
   115   59  114 1    
   116   59  115 1    
   117   60   61 1    
   118   61  116 1    
   119   61  117 1    
@<TRIPOS>SUBSTRUCTURE
     1 UNK         1 GROUP             0       ****    0 ROOT    
