@<TRIPOS>MOLECULE
3R8
117   119    1
SMALL
USER_CHARGES


@<TRIPOS>ATOM
      1 CA         21.9715  -23.1970  -48.0145 C.3       0 UNK        -0.2013 
      2 C          21.2331  -23.5362  -46.7284 C.2       0 UNK         0.4866 
      3 O          21.0057  -22.6528  -45.9018 O.2       0 UNK        -0.5176 
      4 N          20.8652  -24.8105  -46.5505 N.am      1 UNK        -0.4884 
      5 CA         20.0841  -25.3164  -45.4176 C.3       1 UNK         0.0853 
      6 C6         20.1801  -26.8639  -45.3070 C.3       10 UNK        -0.0849 
      7 S7         19.9146  -27.7712  -46.8707 S.3       10 UNK        -0.2776 
      8 C8         18.2331  -28.4365  -46.6382 C.3       10 UNK         0.0316 
      9 C9         18.1902  -29.6440  -45.7078 C.ar      10 UNK        -0.0863 
     10 C10        18.9593  -30.7778  -45.9918 C.ar      10 UNK        -0.1009 
     11 C11        18.8735  -31.9186  -45.1891 C.ar      10 UNK        -0.0712 
     12 C12        18.0078  -31.9210  -44.0921 C.ar      10 UNK        -0.0894 
     13 C13        17.2254  -30.7993  -43.8005 C.ar      10 UNK        -0.0745 
     14 C14        17.3275  -29.6594  -44.6058 C.ar      10 UNK        -0.0972 
     15 C15        16.2263  -30.8542  -42.6533 C.3       10 UNK         0.0209 
     16 S16        16.9563  -30.3178  -41.0755 S.3       10 UNK        -0.2568 
     17 C17        16.7717  -28.5043  -41.1614 C.3       10 UNK        -0.0983 
     18 CA         18.1096  -27.7694  -41.4191 C.3       3 UNK         0.0876 
     19 N          17.8740  -26.4390  -42.0026 N.am      3 UNK        -0.4424 
     20 C          18.8200  -25.5594  -42.3566 C.2       2 UNK         0.4918 
     21 O          20.0256  -25.7565  -42.2134 O.2       2 UNK        -0.4875 
     22 CA         18.3303  -24.2519  -42.9936 C.3       2 UNK         0.0481 
     23 CB         19.3027  -23.0717  -42.7834 C.3       2 UNK        -0.1831 
     24 N          17.9444  -24.4004  -44.4040 N.am      2 UNK        -0.4498 
     25 C          18.6161  -24.8214  -45.4919 C.2       1 UNK         0.5027 
     26 O          18.0558  -24.8344  -46.5890 O.2       1 UNK        -0.4969 
     27 C          19.0033  -27.7467  -40.1551 C.2       3 UNK         0.5005 
     28 O          19.8083  -28.6568  -39.9624 O.2       3 UNK        -0.5279 
     29 N          18.9112  -26.6716  -39.3573 N.am      4 UNK        -0.4463 
     30 CA         19.7703  -26.4106  -38.1962 C.3       4 UNK         0.0283 
     31 CB         19.2649  -25.1543  -37.4688 C.3       4 UNK        -0.1875 
     32 C          21.2695  -26.2652  -38.5329 C.2       4 UNK         0.4949 
     33 O          22.1022  -26.5083  -37.6595 O.2       4 UNK        -0.5039 
     34 N          21.5886  -25.8833  -39.7774 N.am      5 UNK        -0.4663 
     35 CA         22.9515  -25.7656  -40.2980 C.3       5 UNK         0.0242 
     36 CB         23.0436  -24.4863  -41.1486 C.3       5 UNK        -0.1982 
     37 C          23.3729  -26.9929  -41.1269 C.2       5 UNK         0.5017 
     38 O          24.5358  -27.0640  -41.5289 O.2       5 UNK        -0.5012 
     39 N          22.4553  -27.9395  -41.3788 N.am      6 UNK        -0.4439 
     40 CA         22.6919  -29.1483  -42.1714 C.3       6 UNK         0.0297 
     41 CB         21.3621  -29.6320  -42.7796 C.3       6 UNK        -0.2006 
     42 C          23.3852  -30.2307  -41.3252 C.2       6 UNK         0.4892 
     43 O          22.7999  -31.2798  -41.0528 O.2       6 UNK        -0.5089 
     44 N          24.6321  -29.9548  -40.9207 N.am      7 UNK        -0.4243 
     45 CA         25.4632  -30.8117  -40.0660 C.3       7 UNK         0.0196 
     46 CB         26.7749  -30.0790  -39.7426 C.3       7 UNK        -0.2007 
     47 C          25.7541  -32.2064  -40.6513 C.2       7 UNK         0.5020 
     48 O          25.9495  -33.1515  -39.8873 O.2       7 UNK        -0.5147 
     49 N          25.7607  -32.3169  -41.9868 N.am      8 UNK        -0.4734 
     50 CA         25.8825  -33.5848  -42.7113 C.3       8 UNK         0.0238 
     51 CB         26.2970  -33.2964  -44.1635 C.3       8 UNK        -0.1912 
     52 C          24.5923  -34.4262  -42.6809 C.2       8 UNK         0.5038 
     53 O          24.6754  -35.6478  -42.8158 O.2       8 UNK        -0.5046 
     54 N          23.4371  -33.7683  -42.5219 N.am      9 UNK        -0.4200 
     55 CA         22.1126  -34.3987  -42.4389 C.3       9 UNK         0.0839 
     56 C          21.7432  -34.7646  -40.9785 C.2       9 UNK         0.5513 
     57 N          22.0428  -33.9118  -40.0064 N.am      9 UNK        -0.7519 
     58 O          21.1856  -35.8297  -40.7275 O.2       9 UNK        -0.4960 
     59 C59        21.0092  -33.5122  -43.0715 C.3       10 UNK        -0.0876 
     60 S60        21.3481  -33.1203  -44.8228 S.3       10 UNK        -0.2414 
     61 C61        19.6786  -33.1616  -45.5420 C.3       10 UNK         0.0169 
     62 H62        22.1137  -24.0733  -48.6466 H         1 UNK         0.0903 
     63 H63        21.4113  -22.4557  -48.5838 H         1 UNK         0.0903 
     64 H64        22.9524  -22.7813  -47.7856 H         1 UNK         0.0903 
     65 H65        21.0415  -25.4915  -47.2765 H         1 UNK         0.3096 
     66 H66        20.5564  -24.9037  -44.5312 H         1 UNK         0.1121 
     67 H67        21.1801  -27.1240  -44.9567 H         1 UNK         0.0849 
     68 H68        19.5014  -27.2508  -44.5466 H         1 UNK         0.0849 
     69 H69        17.5744  -27.6419  -46.2848 H         1 UNK         0.0865 
     70 H70        17.8442  -28.7391  -47.6113 H         1 UNK         0.0865 
     71 H71        19.6157  -30.7774  -46.8514 H         1 UNK         0.1346 
     72 H72        17.9227  -32.8065  -43.4776 H         1 UNK         0.1412 
     73 H73        16.7101  -28.7978  -44.3918 H         1 UNK         0.1426 
     74 H74        15.8687  -31.8780  -42.5327 H         1 UNK         0.0716 
     75 H75        15.3408  -30.2605  -42.8847 H         1 UNK         0.0716 
     76 H76        16.3047  -28.1558  -40.2381 H         1 UNK         0.0695 
     77 H77        16.0570  -28.2708  -41.9515 H         1 UNK         0.0695 
     78 H78        18.6600  -28.3293  -42.1781 H         1 UNK         0.0983 
     79 H79        16.9079  -26.1910  -42.1619 H         1 UNK         0.3095 
     80 H80        17.4117  -23.9833  -42.4694 H         1 UNK         0.0454 
     81 H81        19.4883  -22.9135  -41.7202 H         1 UNK         0.0851 
     82 H82        18.8850  -22.1446  -43.1756 H         1 UNK         0.0851 
     83 H83        20.2746  -23.2139  -43.2507 H         1 UNK         0.0851 
     84 H84        16.9876  -24.1268  -44.5786 H         1 UNK         0.2976 
     85 H85        18.2291  -25.9634  -39.5869 H         1 UNK         0.3116 
     86 H86        19.6725  -27.2610  -37.5180 H         1 UNK         0.0646 
     87 H87        19.8648  -24.9501  -36.5806 H         1 UNK         0.0847 
     88 H88        19.3168  -24.2701  -38.1055 H         1 UNK         0.0847 
     89 H89        18.2330  -25.2726  -37.1380 H         1 UNK         0.0847 
     90 H90        20.8487  -25.7359  -40.4578 H         1 UNK         0.3040 
     91 H91        23.6619  -25.6759  -39.4732 H         1 UNK         0.1015 
     92 H92        24.0621  -24.3259  -41.5046 H         1 UNK         0.0786 
     93 H93        22.7610  -23.6053  -40.5721 H         1 UNK         0.0786 
     94 H94        22.3975  -24.5344  -42.0257 H         1 UNK         0.0786 
     95 H95        21.5461  -27.8652  -40.9375 H         1 UNK         0.3172 
     96 H96        23.3560  -28.8998  -43.0020 H         1 UNK         0.0595 
     97 H97        20.8459  -28.8313  -43.3044 H         1 UNK         0.0839 
     98 H98        20.6812  -30.0267  -42.0249 H         1 UNK         0.0839 
     99 H99        21.5366  -30.4261  -43.5049 H         1 UNK         0.0839 
    100 H100       25.0085  -29.0456  -41.1687 H         1 UNK         0.2998 
    101 H101       24.9168  -30.9642  -39.1328 H         1 UNK         0.0822 
    102 H102       27.4049  -30.6776  -39.0829 H         1 UNK         0.0787 
    103 H103       27.3524  -29.8693  -40.6439 H         1 UNK         0.0787 
    104 H104       26.5864  -29.1319  -39.2363 H         1 UNK         0.0787 
    105 H105       25.6116  -31.4832  -42.5367 H         1 UNK         0.3055 
    106 H106       26.6698  -34.1791  -42.2414 H         1 UNK         0.1106 
    107 H107       27.2444  -32.7589  -44.2076 H         1 UNK         0.0828 
    108 H108       26.4270  -34.2240  -44.7229 H         1 UNK         0.0828 
    109 H109       25.5471  -32.7031  -44.6885 H         1 UNK         0.0828 
    110 H110       23.4578  -32.7749  -42.3316 H         1 UNK         0.2931 
    111 H111       22.1353  -35.3315  -43.0065 H         1 UNK         0.0412 
    112 H112       22.4344  -33.0029  -40.2347 H         1 UNK         0.3472 
    113 H113       21.8122  -34.1399  -39.0527 H         1 UNK         0.3472 
    114 H114       20.0466  -34.0211  -43.0015 H         1 UNK         0.0970 
    115 H115       20.8958  -32.5773  -42.5207 H         1 UNK         0.0970 
    116 H116       19.7718  -33.2389  -46.6263 H         1 UNK         0.0612 
    117 H117       19.1571  -34.0646  -45.2212 H         1 UNK         0.0612 
@<TRIPOS>BOND
     1    1    2 1    
     2    1   62 1    
     3    1   63 1    
     4    1   64 1    
     5    2    3 2    
     6    2    4 am   BACKBONE|DICT|INTERRES
     7    4    5 1    
     8    4   65 1    
     9    5    6 1    
    10    5   25 1    
    11    5   66 1    
    12    6    7 1    
    13    6   67 1    
    14    6   68 1    
    15    7    8 1    
    16    8    9 1    
    17    8   69 1    
    18    8   70 1    
    19    9   10 ar   
    20    9   14 ar   
    21   10   11 ar   
    22   10   71 1    
    23   11   12 ar   
    24   11   61 1    
    25   12   13 ar   
    26   12   72 1    
    27   13   14 ar   
    28   13   15 1    
    29   14   73 1    
    30   15   16 1    
    31   15   74 1    
    32   15   75 1    
    33   16   17 1    
    34   17   18 1    
    35   17   76 1    
    36   17   77 1    
    37   18   19 1    
    38   18   27 1    
    39   18   78 1    
    40   19   20 am   BACKBONE|DICT|INTERRES
    41   19   79 1    
    42   20   21 2    
    43   20   22 1    
    44   22   23 1    
    45   22   24 1    
    46   22   80 1    
    47   23   81 1    
    48   23   82 1    
    49   23   83 1    
    50   24   25 am   BACKBONE|DICT|INTERRES
    51   24   84 1    
    52   25   26 2    
    53   27   28 2    
    54   27   29 am   BACKBONE|DICT|INTERRES
    55   29   30 1    
    56   29   85 1    
    57   30   31 1    
    58   30   32 1    
    59   30   86 1    
    60   31   87 1    
    61   31   88 1    
    62   31   89 1    
    63   32   33 2    
    64   32   34 am   BACKBONE|DICT|INTERRES
    65   34   35 1    
    66   34   90 1    
    67   35   36 1    
    68   35   37 1    
    69   35   91 1    
    70   36   92 1    
    71   36   93 1    
    72   36   94 1    
    73   37   38 2    
    74   37   39 am   BACKBONE|DICT|INTERRES
    75   39   40 1    
    76   39   95 1    
    77   40   41 1    
    78   40   42 1    
    79   40   96 1    
    80   41   97 1    
    81   41   98 1    
    82   41   99 1    
    83   42   43 2    
    84   42   44 am   BACKBONE|DICT|INTERRES
    85   44   45 1    
    86   44  100 1    
    87   45   46 1    
    88   45   47 1    
    89   45  101 1    
    90   46  102 1    
    91   46  103 1    
    92   46  104 1    
    93   47   48 2    
    94   47   49 am   BACKBONE|DICT|INTERRES
    95   49   50 1    
    96   49  105 1    
    97   50   51 1    
    98   50   52 1    
    99   50  106 1    
   100   51  107 1    
   101   51  108 1    
   102   51  109 1    
   103   52   53 2    
   104   52   54 am   BACKBONE|DICT|INTERRES
   105   54   55 1    
   106   54  110 1    
   107   55   56 1    
   108   55   59 1    
   109   55  111 1    
   110   56   57 am   BACKBONE|DICT|INTERRES
   111   56   58 2    
   112   57  112 1    
   113   57  113 1    
   114   59   60 1    
   115   59  114 1    
   116   59  115 1    
   117   60   61 1    
   118   61  116 1    
   119   61  117 1    
@<TRIPOS>SUBSTRUCTURE
     1 UNK         1 GROUP             0       ****    0 ROOT    
