@<TRIPOS>MOLECULE
3R8
117   119    1
SMALL
USER_CHARGES


@<TRIPOS>ATOM
      1 CA         14.8380  -23.1187  -42.9610 C.3       0 UNK        -0.2013 
      2 C          16.2347  -23.7105  -42.8416 C.2       0 UNK         0.4866 
      3 O          17.1497  -23.0186  -42.3963 O.2       0 UNK        -0.5176 
      4 N          16.3934  -24.9836  -43.2327 N.am      1 UNK        -0.4884 
      5 CA         17.6427  -25.7545  -43.2394 C.3       1 UNK         0.0853 
      6 C6         18.2139  -25.9985  -41.8136 C.3       10 UNK        -0.0849 
      7 S7         19.4203  -27.3688  -41.7380 S.3       10 UNK        -0.2776 
      8 C8         18.3460  -28.8390  -41.8883 C.3       10 UNK         0.0316 
      9 C9         18.8725  -29.7987  -42.9485 C.ar      10 UNK        -0.0863 
     10 C10        19.1393  -31.1352  -42.6346 C.ar      10 UNK        -0.1009 
     11 C11        19.6617  -32.0081  -43.6002 C.ar      10 UNK        -0.0712 
     12 C12        19.9224  -31.5210  -44.8858 C.ar      10 UNK        -0.0894 
     13 C13        19.6580  -30.1886  -45.2118 C.ar      10 UNK        -0.0745 
     14 C14        19.1094  -29.3433  -44.2475 C.ar      10 UNK        -0.0972 
     15 C15        19.9864  -29.6472  -46.5949 C.3       10 UNK         0.0209 
     16 S16        21.7794  -29.4281  -46.8540 S.3       10 UNK        -0.2568 
     17 C17        22.3102  -28.3374  -45.4845 C.3       10 UNK        -0.0983 
     18 CA         22.3019  -26.8372  -45.8753 C.3       3 UNK         0.0876 
     19 N          20.9333  -26.3448  -46.0633 N.am      3 UNK        -0.4424 
     20 C          20.5757  -25.2801  -46.7918 C.2       2 UNK         0.4918 
     21 O          21.3593  -24.6398  -47.4923 O.2       2 UNK        -0.4875 
     22 CA         19.1052  -24.8222  -46.6970 C.3       2 UNK         0.0481 
     23 CB         18.3533  -25.1941  -47.9853 C.3       2 UNK        -0.1831 
     24 N          18.3487  -25.3298  -45.5409 N.am      2 UNK        -0.4498 
     25 C          18.6561  -25.1616  -44.2441 C.2       1 UNK         0.5027 
     26 O          19.6721  -24.5837  -43.8518 O.2       1 UNK        -0.4969 
     27 C          23.1141  -25.9772  -44.8712 C.2       3 UNK         0.5005 
     28 O          24.2704  -26.3079  -44.6087 O.2       3 UNK        -0.5279 
     29 N          22.5219  -24.8952  -44.3367 N.am      4 UNK        -0.4463 
     30 CA         23.1076  -23.8996  -43.4319 C.3       4 UNK         0.0283 
     31 CB         24.3092  -23.1786  -44.0809 C.3       4 UNK        -0.1875 
     32 C          23.4226  -24.4941  -42.0510 C.2       4 UNK         0.4949 
     33 O          24.5512  -24.3911  -41.5692 O.2       4 UNK        -0.5039 
     34 N          22.3995  -25.1227  -41.4544 N.am      5 UNK        -0.4663 
     35 CA         22.3835  -25.7564  -40.1270 C.3       5 UNK         0.0242 
     36 CB         22.7089  -24.7376  -39.0137 C.3       5 UNK        -0.1982 
     37 C          23.2352  -27.0357  -40.0072 C.2       5 UNK         0.5017 
     38 O          23.3364  -27.5835  -38.9078 O.2       5 UNK        -0.5012 
     39 N          23.7937  -27.5320  -41.1206 N.am      6 UNK        -0.4439 
     40 CA         24.5553  -28.7819  -41.2090 C.3       6 UNK         0.0297 
     41 CB         25.4839  -28.7194  -42.4349 C.3       6 UNK        -0.2006 
     42 C          23.6237  -30.0100  -41.2346 C.2       6 UNK         0.4892 
     43 O          23.6591  -30.8025  -42.1782 O.2       6 UNK        -0.5089 
     44 N          22.7902  -30.1391  -40.1958 N.am      7 UNK        -0.4243 
     45 CA         21.7567  -31.1611  -40.0414 C.3       7 UNK         0.0196 
     46 CB         20.6768  -30.6344  -39.0791 C.3       7 UNK        -0.2007 
     47 C          22.3303  -32.5223  -39.6104 C.2       7 UNK         0.5020 
     48 O          21.9444  -33.0612  -38.5719 O.2       7 UNK        -0.5147 
     49 N          23.2296  -33.0745  -40.4350 N.am      8 UNK        -0.4734 
     50 CA         23.8692  -34.3846  -40.2497 C.3       8 UNK         0.0238 
     51 CB         24.9554  -34.5661  -41.3220 C.3       8 UNK        -0.1912 
     52 C          22.8851  -35.5708  -40.2707 C.2       8 UNK         0.5038 
     53 O          23.2056  -36.6337  -39.7379 O.2       8 UNK        -0.5046 
     54 N          21.7079  -35.3566  -40.8692 N.am      9 UNK        -0.4200 
     55 CA         20.5515  -36.2588  -40.8478 C.3       9 UNK         0.0839 
     56 C          19.8081  -36.3344  -39.4800 C.2       9 UNK         0.5513 
     57 N          20.0961  -35.4764  -38.5068 N.am      9 UNK        -0.7519 
     58 O          18.9596  -37.2032  -39.2956 O.2       9 UNK        -0.4960 
     59 C59        19.5886  -35.9578  -42.0279 C.3       10 UNK        -0.0876 
     60 S60        18.9296  -34.2500  -42.0427 S.3       10 UNK        -0.2414 
     61 C61        20.0148  -33.4599  -43.2796 C.3       10 UNK         0.0169 
     62 H62        14.4827  -22.7962  -41.9827 H         1 UNK         0.0903 
     63 H63        14.1217  -23.8356  -43.3618 H         1 UNK         0.0903 
     64 H64        14.8538  -22.2512  -43.6203 H         1 UNK         0.0903 
     65 H65        15.5861  -25.4771  -43.5901 H         1 UNK         0.3096 
     66 H66        17.3573  -26.7275  -43.6390 H         1 UNK         0.1121 
     67 H67        18.6840  -25.0947  -41.4216 H         1 UNK         0.0849 
     68 H68        17.4034  -26.2304  -41.1208 H         1 UNK         0.0849 
     69 H69        17.3254  -28.5545  -42.1450 H         1 UNK         0.0865 
     70 H70        18.2870  -29.3277  -40.9148 H         1 UNK         0.0865 
     71 H71        18.9550  -31.4892  -41.6301 H         1 UNK         0.1346 
     72 H72        20.3541  -32.1730  -45.6332 H         1 UNK         0.1412 
     73 H73        18.9041  -28.3143  -44.4971 H         1 UNK         0.1426 
     74 H74        19.6069  -30.3381  -47.3491 H         1 UNK         0.0716 
     75 H75        19.4780  -28.6993  -46.7749 H         1 UNK         0.0716 
     76 H76        23.3213  -28.6599  -45.2304 H         1 UNK         0.0695 
     77 H77        21.7178  -28.5148  -44.5868 H         1 UNK         0.0695 
     78 H78        22.8273  -26.7404  -46.8281 H         1 UNK         0.0983 
     79 H79        20.2224  -26.8006  -45.5153 H         1 UNK         0.3095 
     80 H80        19.1189  -23.7336  -46.6151 H         1 UNK         0.0454 
     81 H81        17.3453  -24.7793  -47.9930 H         1 UNK         0.0851 
     82 H82        18.2748  -26.2749  -48.1096 H         1 UNK         0.0851 
     83 H83        18.8658  -24.8027  -48.8654 H         1 UNK         0.0851 
     84 H84        17.4799  -25.7953  -45.7625 H         1 UNK         0.2976 
     85 H85        21.5360  -24.7519  -44.5343 H         1 UNK         0.3116 
     86 H86        22.3324  -23.1490  -43.2693 H         1 UNK         0.0646 
     87 H87        24.0415  -22.7528  -45.0478 H         1 UNK         0.0847 
     88 H88        24.6553  -22.3588  -43.4504 H         1 UNK         0.0847 
     89 H89        25.1569  -23.8475  -44.2313 H         1 UNK         0.0847 
     90 H90        21.5243  -25.1680  -41.9620 H         1 UNK         0.3040 
     91 H91        21.3549  -26.0803  -39.9657 H         1 UNK         0.1015 
     92 H92        22.0828  -23.8489  -39.0932 H         1 UNK         0.0786 
     93 H93        23.7512  -24.4194  -39.0431 H         1 UNK         0.0786 
     94 H94        22.5324  -25.1675  -38.0269 H         1 UNK         0.0786 
     95 H95        23.6598  -27.0217  -41.9823 H         1 UNK         0.3172 
     96 H96        25.1861  -28.8715  -40.3221 H         1 UNK         0.0595 
     97 H97        26.1426  -27.8518  -42.3924 H         1 UNK         0.0839 
     98 H98        24.9200  -28.6648  -43.3662 H         1 UNK         0.0839 
     99 H99        26.1175  -29.6056  -42.4904 H         1 UNK         0.0839 
    100 H100       22.8537  -29.4383  -39.4640 H         1 UNK         0.2998 
    101 H101       21.2908  -31.3141  -41.0147 H         1 UNK         0.0822 
    102 H102       20.2583  -29.6918  -39.4321 H         1 UNK         0.0787 
    103 H103       19.8519  -31.3428  -38.9909 H         1 UNK         0.0787 
    104 H104       21.0759  -30.4684  -38.0777 H         1 UNK         0.0787 
    105 H105       23.5033  -32.5322  -41.2508 H         1 UNK         0.3055 
    106 H106       24.3475  -34.3846  -39.2677 H         1 UNK         0.1106 
    107 H107       25.7088  -33.7805  -41.2612 H         1 UNK         0.0828 
    108 H108       25.4726  -35.5187  -41.1980 H         1 UNK         0.0828 
    109 H109       24.5353  -34.5515  -42.3285 H         1 UNK         0.0828 
    110 H110       21.5374  -34.4402  -41.2520 H         1 UNK         0.2931 
    111 H111       20.9403  -37.2651  -41.0153 H         1 UNK         0.0412 
    112 H112       20.7849  -34.7438  -38.6351 H         1 UNK         0.3472 
    113 H113       19.6058  -35.5497  -37.6297 H         1 UNK         0.3472 
    114 H114       20.0982  -36.1553  -42.9721 H         1 UNK         0.0970 
    115 H115       18.7438  -36.6492  -42.0133 H         1 UNK         0.0970 
    116 H116       19.9756  -34.0555  -44.1931 H         1 UNK         0.0612 
    117 H117       21.0469  -33.4914  -42.9300 H         1 UNK         0.0612 
@<TRIPOS>BOND
     1    1    2 1    
     2    1   62 1    
     3    1   63 1    
     4    1   64 1    
     5    2    3 2    
     6    2    4 am   BACKBONE|DICT|INTERRES
     7    4    5 1    
     8    4   65 1    
     9    5    6 1    
    10    5   25 1    
    11    5   66 1    
    12    6    7 1    
    13    6   67 1    
    14    6   68 1    
    15    7    8 1    
    16    8    9 1    
    17    8   69 1    
    18    8   70 1    
    19    9   10 ar   
    20    9   14 ar   
    21   10   11 ar   
    22   10   71 1    
    23   11   12 ar   
    24   11   61 1    
    25   12   13 ar   
    26   12   72 1    
    27   13   14 ar   
    28   13   15 1    
    29   14   73 1    
    30   15   16 1    
    31   15   74 1    
    32   15   75 1    
    33   16   17 1    
    34   17   18 1    
    35   17   76 1    
    36   17   77 1    
    37   18   19 1    
    38   18   27 1    
    39   18   78 1    
    40   19   20 am   BACKBONE|DICT|INTERRES
    41   19   79 1    
    42   20   21 2    
    43   20   22 1    
    44   22   23 1    
    45   22   24 1    
    46   22   80 1    
    47   23   81 1    
    48   23   82 1    
    49   23   83 1    
    50   24   25 am   BACKBONE|DICT|INTERRES
    51   24   84 1    
    52   25   26 2    
    53   27   28 2    
    54   27   29 am   BACKBONE|DICT|INTERRES
    55   29   30 1    
    56   29   85 1    
    57   30   31 1    
    58   30   32 1    
    59   30   86 1    
    60   31   87 1    
    61   31   88 1    
    62   31   89 1    
    63   32   33 2    
    64   32   34 am   BACKBONE|DICT|INTERRES
    65   34   35 1    
    66   34   90 1    
    67   35   36 1    
    68   35   37 1    
    69   35   91 1    
    70   36   92 1    
    71   36   93 1    
    72   36   94 1    
    73   37   38 2    
    74   37   39 am   BACKBONE|DICT|INTERRES
    75   39   40 1    
    76   39   95 1    
    77   40   41 1    
    78   40   42 1    
    79   40   96 1    
    80   41   97 1    
    81   41   98 1    
    82   41   99 1    
    83   42   43 2    
    84   42   44 am   BACKBONE|DICT|INTERRES
    85   44   45 1    
    86   44  100 1    
    87   45   46 1    
    88   45   47 1    
    89   45  101 1    
    90   46  102 1    
    91   46  103 1    
    92   46  104 1    
    93   47   48 2    
    94   47   49 am   BACKBONE|DICT|INTERRES
    95   49   50 1    
    96   49  105 1    
    97   50   51 1    
    98   50   52 1    
    99   50  106 1    
   100   51  107 1    
   101   51  108 1    
   102   51  109 1    
   103   52   53 2    
   104   52   54 am   BACKBONE|DICT|INTERRES
   105   54   55 1    
   106   54  110 1    
   107   55   56 1    
   108   55   59 1    
   109   55  111 1    
   110   56   57 am   BACKBONE|DICT|INTERRES
   111   56   58 2    
   112   57  112 1    
   113   57  113 1    
   114   59   60 1    
   115   59  114 1    
   116   59  115 1    
   117   60   61 1    
   118   61  116 1    
   119   61  117 1    
@<TRIPOS>SUBSTRUCTURE
     1 UNK         1 GROUP             0       ****    0 ROOT    
