@<TRIPOS>MOLECULE
3R8
117   119    1
SMALL
USER_CHARGES


@<TRIPOS>ATOM
      1 CA         15.8104  -24.8693  -40.8327 C.3       0 UNK        -0.2013 
      2 C          16.6047  -24.5563  -42.0920 C.2       0 UNK         0.4866 
      3 O          16.9118  -23.3915  -42.3493 O.2       0 UNK        -0.5176 
      4 N          16.9293  -25.5861  -42.8833 N.am      1 UNK        -0.4884 
      5 CA         17.7308  -25.4914  -44.1095 C.3       1 UNK         0.0853 
      6 C6         17.6684  -26.8073  -44.9462 C.3       10 UNK        -0.0849 
      7 S7         15.9828  -27.4910  -45.1539 S.3       10 UNK        -0.2776 
      8 C8         16.2314  -28.9337  -46.2536 C.3       10 UNK         0.0316 
      9 C9         17.2044  -29.9646  -45.6881 C.ar      10 UNK        -0.0863 
     10 C10        16.8714  -30.7241  -44.5613 C.ar      10 UNK        -0.1009 
     11 C11        17.7780  -31.6434  -44.0183 C.ar      10 UNK        -0.0712 
     12 C12        19.0426  -31.7656  -44.6115 C.ar      10 UNK        -0.0894 
     13 C13        19.3999  -31.0093  -45.7324 C.ar      10 UNK        -0.0745 
     14 C14        18.4455  -30.1578  -46.2997 C.ar      10 UNK        -0.0972 
     15 C15        20.8298  -31.1595  -46.2657 C.3       10 UNK         0.0209 
     16 S16        21.4463  -29.9296  -47.4823 S.3       10 UNK        -0.2568 
     17 C17        21.0780  -28.2734  -46.7985 C.3       10 UNK        -0.0983 
     18 CA         22.0327  -27.6938  -45.7295 C.3       3 UNK         0.0876 
     19 N          21.6790  -26.2876  -45.5334 N.am      3 UNK        -0.4424 
     20 C          22.1664  -25.4235  -44.6358 C.2       2 UNK         0.4918 
     21 O          23.1352  -25.6413  -43.9090 O.2       2 UNK        -0.4875 
     22 CA         21.3431  -24.1287  -44.4781 C.3       2 UNK         0.0481 
     23 CB         21.7913  -23.0706  -45.4978 C.3       2 UNK        -0.1831 
     24 N          19.8934  -24.3733  -44.6096 N.am      2 UNK        -0.4498 
     25 C          19.1979  -25.1433  -43.7572 C.2       1 UNK         0.5027 
     26 O          19.7082  -25.6411  -42.7506 O.2       1 UNK        -0.4969 
     27 C          21.9501  -28.4886  -44.4092 C.2       3 UNK         0.5005 
     28 O          22.9110  -29.1649  -44.0466 O.2       3 UNK        -0.5279 
     29 N          20.8148  -28.3657  -43.7030 N.am      4 UNK        -0.4463 
     30 CA         20.5342  -29.0436  -42.4366 C.3       4 UNK         0.0283 
     31 CB         19.0664  -28.8399  -42.0191 C.3       4 UNK        -0.1875 
     32 C          21.4647  -28.5965  -41.3078 C.2       4 UNK         0.4949 
     33 O          21.9372  -29.4457  -40.5542 O.2       4 UNK        -0.5039 
     34 N          21.7275  -27.2851  -41.2323 N.am      5 UNK        -0.4663 
     35 CA         22.6669  -26.6837  -40.2848 C.3       5 UNK         0.0242 
     36 CB         22.5631  -25.1521  -40.3603 C.3       5 UNK        -0.1982 
     37 C          24.1152  -27.1512  -40.5089 C.2       5 UNK         0.5017 
     38 O          24.8165  -27.4230  -39.5344 O.2       5 UNK        -0.5012 
     39 N          24.5236  -27.2613  -41.7811 N.am      6 UNK        -0.4439 
     40 CA         25.8325  -27.7730  -42.1909 C.3       6 UNK         0.0297 
     41 CB         26.0792  -27.4320  -43.6696 C.3       6 UNK        -0.2006 
     42 C          25.9868  -29.2845  -41.9442 C.2       6 UNK         0.4892 
     43 O          27.0216  -29.7086  -41.4288 O.2       6 UNK        -0.5089 
     44 N          24.9652  -30.0667  -42.3191 N.am      7 UNK        -0.4243 
     45 CA         24.9488  -31.5284  -42.2065 C.3       7 UNK         0.0196 
     46 CB         23.8753  -32.0863  -43.1572 C.3       7 UNK        -0.2007 
     47 C          24.7052  -32.0512  -40.7797 C.2       7 UNK         0.5020 
     48 O          24.9879  -33.2223  -40.5258 O.2       7 UNK        -0.5147 
     49 N          24.1527  -31.2041  -39.8981 N.am      8 UNK        -0.4734 
     50 CA         23.6084  -31.5298  -38.5710 C.3       8 UNK         0.0238 
     51 CB         24.7071  -32.0337  -37.6105 C.3       8 UNK        -0.1912 
     52 C          22.3969  -32.4798  -38.6767 C.2       8 UNK         0.5038 
     53 O          22.2954  -33.4537  -37.9280 O.2       8 UNK        -0.5046 
     54 N          21.5177  -32.1786  -39.6394 N.am      9 UNK        -0.4200 
     55 CA         20.2877  -32.9156  -39.9510 C.3       9 UNK         0.0839 
     56 C          19.2057  -32.7058  -38.8581 C.2       9 UNK         0.5513 
     57 N          18.5240  -33.7641  -38.4424 N.am      9 UNK        -0.7519 
     58 O          18.9600  -31.5874  -38.4109 O.2       9 UNK        -0.4960 
     59 C59        19.7875  -32.5070  -41.3584 C.3       10 UNK        -0.0876 
     60 S60        18.5659  -33.6378  -42.1032 S.3       10 UNK        -0.2414 
     61 C61        17.3441  -32.4545  -42.7885 C.3       10 UNK         0.0169 
     62 H62        14.8614  -24.3340  -40.8444 H         1 UNK         0.0903 
     63 H63        15.5980  -25.9342  -40.7385 H         1 UNK         0.0903 
     64 H64        16.3683  -24.5560  -39.9506 H         1 UNK         0.0903 
     65 H65        16.6367  -26.5192  -42.6319 H         1 UNK         0.3096 
     66 H66        17.3176  -24.6782  -44.7104 H         1 UNK         0.1121 
     67 H67        18.0948  -26.6427  -45.9373 H         1 UNK         0.0849 
     68 H68        18.2665  -27.5892  -44.4815 H         1 UNK         0.0849 
     69 H69        15.2669  -29.4140  -46.4245 H         1 UNK         0.0865 
     70 H70        16.5664  -28.5778  -47.2291 H         1 UNK         0.0865 
     71 H71        15.9022  -30.5905  -44.0998 H         1 UNK         0.1346 
     72 H72        19.7713  -32.4516  -44.2079 H         1 UNK         0.1412 
     73 H73        18.6708  -29.6161  -47.2061 H         1 UNK         0.1426 
     74 H74        20.9126  -32.1447  -46.7263 H         1 UNK         0.0716 
     75 H75        21.5223  -31.1701  -45.4231 H         1 UNK         0.0716 
     76 H76        21.0970  -27.6141  -47.6683 H         1 UNK         0.0695 
     77 H77        20.0565  -28.2090  -46.4376 H         1 UNK         0.0695 
     78 H78        23.0610  -27.7391  -46.0938 H         1 UNK         0.0983 
     79 H79        20.9071  -25.9597  -46.0932 H         1 UNK         0.3095 
     80 H80        21.5308  -23.7362  -43.4763 H         1 UNK         0.0454 
     81 H81        22.8590  -22.8671  -45.4026 H         1 UNK         0.0851 
     82 H82        21.6116  -23.3903  -46.5249 H         1 UNK         0.0851 
     83 H83        21.2698  -22.1259  -45.3438 H         1 UNK         0.0851 
     84 H84        19.4279  -23.9662  -45.4091 H         1 UNK         0.2976 
     85 H85        20.1079  -27.7324  -44.0369 H         1 UNK         0.3116 
     86 H86        20.7059  -30.1064  -42.6063 H         1 UNK         0.0646 
     87 H87        18.8513  -29.3391  -41.0740 H         1 UNK         0.0847 
     88 H88        18.3788  -29.2402  -42.7599 H         1 UNK         0.0847 
     89 H89        18.8191  -27.7916  -41.8673 H         1 UNK         0.0847 
     90 H90        21.2417  -26.6595  -41.8677 H         1 UNK         0.3040 
     91 H91        22.3719  -26.9982  -39.2812 H         1 UNK         0.1015 
     92 H92        21.5492  -24.8129  -40.1464 H         1 UNK         0.0786 
     93 H93        22.8399  -24.7745  -41.3450 H         1 UNK         0.0786 
     94 H94        23.2243  -24.6804  -39.6321 H         1 UNK         0.0786 
     95 H95        23.8903  -26.9698  -42.5191 H         1 UNK         0.3172 
     96 H96        26.5932  -27.2603  -41.5983 H         1 UNK         0.0595 
     97 H97        27.0596  -27.7840  -43.9932 H         1 UNK         0.0839 
     98 H98        26.0491  -26.3553  -43.8377 H         1 UNK         0.0839 
     99 H99        25.3356  -27.8909  -44.3221 H         1 UNK         0.0839 
    100 H100       24.1711  -29.6418  -42.7965 H         1 UNK         0.2998 
    101 H101       25.9204  -31.9081  -42.5299 H         1 UNK         0.0822 
    102 H102       24.0719  -31.7977  -44.1900 H         1 UNK         0.0787 
    103 H103       23.8468  -33.1763  -43.1248 H         1 UNK         0.0787 
    104 H104       22.8808  -31.7243  -42.8940 H         1 UNK         0.0787 
    105 H105       23.9069  -30.2826  -40.2419 H         1 UNK         0.3055 
    106 H106       23.2216  -30.5940  -38.1632 H         1 UNK         0.1106 
    107 H107       25.0947  -33.0087  -37.9063 H         1 UNK         0.0828 
    108 H108       25.5447  -31.3378  -37.5670 H         1 UNK         0.0828 
    109 H109       24.3180  -32.1367  -36.5969 H         1 UNK         0.0828 
    110 H110       21.6572  -31.3020  -40.1325 H         1 UNK         0.2931 
    111 H111       20.5528  -33.9746  -39.9822 H         1 UNK         0.0412 
    112 H112       18.7075  -34.6801  -38.8221 H         1 UNK         0.3472 
    113 H113       17.8087  -33.6452  -37.7420 H         1 UNK         0.3472 
    114 H114       19.3706  -31.5038  -41.3253 H         1 UNK         0.0970 
    115 H115       20.6333  -32.4652  -42.0454 H         1 UNK         0.0970 
    116 H116       16.4525  -33.0229  -43.0564 H         1 UNK         0.0612 
    117 H117       17.0408  -31.7682  -41.9964 H         1 UNK         0.0612 
@<TRIPOS>BOND
     1    1    2 1    
     2    1   62 1    
     3    1   63 1    
     4    1   64 1    
     5    2    3 2    
     6    2    4 am   BACKBONE|DICT|INTERRES
     7    4    5 1    
     8    4   65 1    
     9    5    6 1    
    10    5   25 1    
    11    5   66 1    
    12    6    7 1    
    13    6   67 1    
    14    6   68 1    
    15    7    8 1    
    16    8    9 1    
    17    8   69 1    
    18    8   70 1    
    19    9   10 ar   
    20    9   14 ar   
    21   10   11 ar   
    22   10   71 1    
    23   11   12 ar   
    24   11   61 1    
    25   12   13 ar   
    26   12   72 1    
    27   13   14 ar   
    28   13   15 1    
    29   14   73 1    
    30   15   16 1    
    31   15   74 1    
    32   15   75 1    
    33   16   17 1    
    34   17   18 1    
    35   17   76 1    
    36   17   77 1    
    37   18   19 1    
    38   18   27 1    
    39   18   78 1    
    40   19   20 am   BACKBONE|DICT|INTERRES
    41   19   79 1    
    42   20   21 2    
    43   20   22 1    
    44   22   23 1    
    45   22   24 1    
    46   22   80 1    
    47   23   81 1    
    48   23   82 1    
    49   23   83 1    
    50   24   25 am   BACKBONE|DICT|INTERRES
    51   24   84 1    
    52   25   26 2    
    53   27   28 2    
    54   27   29 am   BACKBONE|DICT|INTERRES
    55   29   30 1    
    56   29   85 1    
    57   30   31 1    
    58   30   32 1    
    59   30   86 1    
    60   31   87 1    
    61   31   88 1    
    62   31   89 1    
    63   32   33 2    
    64   32   34 am   BACKBONE|DICT|INTERRES
    65   34   35 1    
    66   34   90 1    
    67   35   36 1    
    68   35   37 1    
    69   35   91 1    
    70   36   92 1    
    71   36   93 1    
    72   36   94 1    
    73   37   38 2    
    74   37   39 am   BACKBONE|DICT|INTERRES
    75   39   40 1    
    76   39   95 1    
    77   40   41 1    
    78   40   42 1    
    79   40   96 1    
    80   41   97 1    
    81   41   98 1    
    82   41   99 1    
    83   42   43 2    
    84   42   44 am   BACKBONE|DICT|INTERRES
    85   44   45 1    
    86   44  100 1    
    87   45   46 1    
    88   45   47 1    
    89   45  101 1    
    90   46  102 1    
    91   46  103 1    
    92   46  104 1    
    93   47   48 2    
    94   47   49 am   BACKBONE|DICT|INTERRES
    95   49   50 1    
    96   49  105 1    
    97   50   51 1    
    98   50   52 1    
    99   50  106 1    
   100   51  107 1    
   101   51  108 1    
   102   51  109 1    
   103   52   53 2    
   104   52   54 am   BACKBONE|DICT|INTERRES
   105   54   55 1    
   106   54  110 1    
   107   55   56 1    
   108   55   59 1    
   109   55  111 1    
   110   56   57 am   BACKBONE|DICT|INTERRES
   111   56   58 2    
   112   57  112 1    
   113   57  113 1    
   114   59   60 1    
   115   59  114 1    
   116   59  115 1    
   117   60   61 1    
   118   61  116 1    
   119   61  117 1    
@<TRIPOS>SUBSTRUCTURE
     1 UNK         1 GROUP             0       ****    0 ROOT    
