@<TRIPOS>MOLECULE
3R8
117   119    1
SMALL
USER_CHARGES


@<TRIPOS>ATOM
      1 CA         17.8572  -24.2198  -47.7756 C.3       0 UNK        -0.2013 
      2 C          18.0781  -25.5048  -46.9924 C.2       0 UNK         0.4866 
      3 O          18.6310  -26.4639  -47.5315 O.2       0 UNK        -0.5176 
      4 N          17.6427  -25.5354  -45.7274 N.am      1 UNK        -0.4884 
      5 CA         17.8220  -26.6635  -44.8101 C.3       1 UNK         0.0853 
      6 C6         16.9618  -26.5006  -43.5340 C.3       10 UNK        -0.0849 
      7 S7         15.1821  -26.7845  -43.8125 S.3       10 UNK        -0.2776 
      8 C8         15.0979  -28.5419  -44.3234 C.3       10 UNK         0.0316 
      9 C9         16.0148  -29.4810  -43.5404 C.ar      10 UNK        -0.0863 
     10 C10        16.8226  -30.3968  -44.2251 C.ar      10 UNK        -0.1009 
     11 C11        17.6543  -31.2850  -43.5343 C.ar      10 UNK        -0.0712 
     12 C12        17.6759  -31.2335  -42.1343 C.ar      10 UNK        -0.0894 
     13 C13        16.8842  -30.3190  -41.4353 C.ar      10 UNK        -0.0745 
     14 C14        16.0407  -29.4592  -42.1420 C.ar      10 UNK        -0.0972 
     15 C15        16.9164  -30.2936  -39.9141 C.3       10 UNK         0.0209 
     16 S16        18.5900  -29.9910  -39.2612 S.3       10 UNK        -0.2568 
     17 C17        18.7873  -28.1953  -39.4966 C.3       10 UNK        -0.0983 
     18 CA         20.1557  -27.8535  -40.1368 C.3       3 UNK         0.0876 
     19 N          20.1952  -28.1870  -41.5682 N.am      3 UNK        -0.4424 
     20 C          21.2875  -28.1530  -42.3471 C.2       2 UNK         0.4918 
     21 O          22.4140  -27.8877  -41.9258 O.2       2 UNK        -0.4875 
     22 CA         21.1001  -28.4347  -43.8459 C.3       2 UNK         0.0481 
     23 CB         21.3957  -29.9096  -44.1432 C.3       2 UNK        -0.1831 
     24 N          19.7622  -28.0838  -44.3310 N.am      2 UNK        -0.4498 
     25 C          19.2971  -26.8278  -44.4047 C.2       1 UNK         0.5027 
     26 O          19.9551  -25.8350  -44.0851 O.2       1 UNK        -0.4969 
     27 C          20.5554  -26.3926  -39.8310 C.2       3 UNK         0.5005 
     28 O          20.9697  -26.1156  -38.7047 O.2       3 UNK        -0.5279 
     29 N          20.4679  -25.4921  -40.8229 N.am      4 UNK        -0.4463 
     30 CA         20.9750  -24.1204  -40.7267 C.3       4 UNK         0.0283 
     31 CB         20.3557  -23.2689  -41.8467 C.3       4 UNK        -0.1875 
     32 C          22.5138  -24.0434  -40.7828 C.2       4 UNK         0.4949 
     33 O          23.0753  -23.0450  -40.3316 O.2       4 UNK        -0.5039 
     34 N          23.1627  -25.0770  -41.3379 N.am      5 UNK        -0.4663 
     35 CA         24.6130  -25.1832  -41.4715 C.3       5 UNK         0.0242 
     36 CB         24.9659  -25.6661  -42.8910 C.3       5 UNK        -0.1982 
     37 C          25.1932  -26.1116  -40.3954 C.2       5 UNK         0.5017 
     38 O          25.9474  -25.6403  -39.5433 O.2       5 UNK        -0.5012 
     39 N          24.8543  -27.4081  -40.4603 N.am      6 UNK        -0.4439 
     40 CA         25.4481  -28.4579  -39.6185 C.3       6 UNK         0.0297 
     41 CB         26.8776  -28.7719  -40.1132 C.3       6 UNK        -0.2006 
     42 C          24.6163  -29.7523  -39.5194 C.2       6 UNK         0.4892 
     43 O          25.0827  -30.6975  -38.8827 O.2       6 UNK        -0.5089 
     44 N          23.4348  -29.8038  -40.1560 N.am      7 UNK        -0.4243 
     45 CA         22.5489  -30.9745  -40.2944 C.3       7 UNK         0.0196 
     46 CB         22.0505  -31.4813  -38.9245 C.3       7 UNK        -0.2007 
     47 C          23.1408  -32.0977  -41.1716 C.2       7 UNK         0.5020 
     48 O          22.7028  -33.2453  -41.0832 O.2       7 UNK        -0.5147 
     49 N          24.1064  -31.7498  -42.0323 N.am      8 UNK        -0.4734 
     50 CA         24.7641  -32.6474  -42.9823 C.3       8 UNK         0.0238 
     51 CB         26.1860  -32.1198  -43.2526 C.3       8 UNK        -0.1912 
     52 C          23.9276  -32.7837  -44.2672 C.2       8 UNK         0.5038 
     53 O          24.3319  -32.2880  -45.3207 O.2       8 UNK        -0.5046 
     54 N          22.7509  -33.4076  -44.1388 N.am      9 UNK        -0.4200 
     55 CA         21.7900  -33.6542  -45.2250 C.3       9 UNK         0.0839 
     56 C          22.3718  -34.5383  -46.3622 C.2       9 UNK         0.5513 
     57 N          22.0092  -34.2650  -47.6077 N.am      9 UNK        -0.7519 
     58 O          23.1062  -35.4941  -46.1197 O.2       9 UNK        -0.4960 
     59 C59        20.4696  -34.2692  -44.6933 C.3       10 UNK        -0.0876 
     60 S60        19.6936  -33.2665  -43.3835 S.3       10 UNK        -0.2414 
     61 C61        18.4788  -32.2927  -44.3427 C.3       10 UNK         0.0169 
     62 H62        17.2617  -24.4199  -48.6654 H         1 UNK         0.0903 
     63 H63        17.3392  -23.4650  -47.1847 H         1 UNK         0.0903 
     64 H64        18.8136  -23.8055  -48.0915 H         1 UNK         0.0903 
     65 H65        17.2034  -24.7163  -45.3326 H         1 UNK         0.3096 
     66 H66        17.5217  -27.5696  -45.3385 H         1 UNK         0.1121 
     67 H67        17.0850  -25.4978  -43.1201 H         1 UNK         0.0849 
     68 H68        17.2892  -27.1713  -42.7391 H         1 UNK         0.0849 
     69 H69        14.0693  -28.8870  -44.2112 H         1 UNK         0.0865 
     70 H70        15.3154  -28.5970  -45.3911 H         1 UNK         0.0865 
     71 H71        16.7911  -30.4348  -45.3060 H         1 UNK         0.1346 
     72 H72        18.3000  -31.9065  -41.5647 H         1 UNK         0.1412 
     73 H73        15.4091  -28.7632  -41.6063 H         1 UNK         0.1426 
     74 H74        16.5676  -31.2584  -39.5436 H         1 UNK         0.0716 
     75 H75        16.2307  -29.5452  -39.5134 H         1 UNK         0.0716 
     76 H76        18.6888  -27.7432  -38.5073 H         1 UNK         0.0695 
     77 H77        17.9678  -27.7943  -40.0957 H         1 UNK         0.0695 
     78 H78        20.9159  -28.4624  -39.6437 H         1 UNK         0.0983 
     79 H79        19.3182  -28.4675  -41.9810 H         1 UNK         0.3095 
     80 H80        21.8253  -27.8263  -44.3904 H         1 UNK         0.0454 
     81 H81        21.2579  -30.1434  -45.1987 H         1 UNK         0.0851 
     82 H82        20.7566  -30.5718  -43.5609 H         1 UNK         0.0851 
     83 H83        22.4284  -30.1534  -43.8938 H         1 UNK         0.0851 
     84 H84        19.1611  -28.8507  -44.5977 H         1 UNK         0.2976 
     85 H85        20.1294  -25.7853  -41.7299 H         1 UNK         0.3116 
     86 H86        20.6574  -23.7016  -39.7692 H         1 UNK         0.0646 
     87 H87        19.2665  -23.3028  -41.8198 H         1 UNK         0.0847 
     88 H88        20.6792  -23.6006  -42.8338 H         1 UNK         0.0847 
     89 H89        20.6491  -22.2231  -41.7462 H         1 UNK         0.0847 
     90 H90        22.6269  -25.8813  -41.6400 H         1 UNK         0.3040 
     91 H91        25.0754  -24.2023  -41.3374 H         1 UNK         0.1015 
     92 H92        26.0432  -25.7979  -43.0015 H         1 UNK         0.0786 
     93 H93        24.6524  -24.9383  -43.6396 H         1 UNK         0.0786 
     94 H94        24.4931  -26.6166  -43.1392 H         1 UNK         0.0786 
     95 H95        24.1903  -27.6900  -41.1734 H         1 UNK         0.3172 
     96 H96        25.5148  -28.0756  -38.5977 H         1 UNK         0.0595 
     97 H97        26.8737  -29.1406  -41.1395 H         1 UNK         0.0839 
     98 H98        27.3552  -29.5335  -39.4953 H         1 UNK         0.0839 
     99 H99        27.5202  -27.8924  -40.0768 H         1 UNK         0.0839 
    100 H100       23.1215  -28.9814  -40.6617 H         1 UNK         0.2998 
    101 H101       21.6687  -30.6281  -40.8357 H         1 UNK         0.0822 
    102 H102       21.6464  -30.6676  -38.3224 H         1 UNK         0.0787 
    103 H103       21.2528  -32.2146  -39.0493 H         1 UNK         0.0787 
    104 H104       22.8440  -31.9626  -38.3528 H         1 UNK         0.0787 
    105 H105       24.3922  -30.7828  -42.0584 H         1 UNK         0.3055 
    106 H106       24.8555  -33.6427  -42.5409 H         1 UNK         0.1106 
    107 H107       26.1738  -31.1192  -43.6862 H         1 UNK         0.0828 
    108 H108       26.7171  -32.7704  -43.9488 H         1 UNK         0.0828 
    109 H109       26.7743  -32.0801  -42.3357 H         1 UNK         0.0828 
    110 H110       22.4808  -33.7342  -43.2192 H         1 UNK         0.2931 
    111 H111       21.5525  -32.6782  -45.6528 H         1 UNK         0.0412 
    112 H112       22.3628  -34.8386  -48.3580 H         1 UNK         0.3472 
    113 H113       21.4003  -33.4890  -47.8165 H         1 UNK         0.3472 
    114 H114       19.7539  -34.4081  -45.5060 H         1 UNK         0.0970 
    115 H115       20.6543  -35.2647  -44.2851 H         1 UNK         0.0970 
    116 H116       17.7915  -32.9837  -44.8358 H         1 UNK         0.0612 
    117 H117       19.0122  -31.7614  -45.1340 H         1 UNK         0.0612 
@<TRIPOS>BOND
     1    1    2 1    
     2    1   62 1    
     3    1   63 1    
     4    1   64 1    
     5    2    3 2    
     6    2    4 am   BACKBONE|DICT|INTERRES
     7    4    5 1    
     8    4   65 1    
     9    5    6 1    
    10    5   25 1    
    11    5   66 1    
    12    6    7 1    
    13    6   67 1    
    14    6   68 1    
    15    7    8 1    
    16    8    9 1    
    17    8   69 1    
    18    8   70 1    
    19    9   10 ar   
    20    9   14 ar   
    21   10   11 ar   
    22   10   71 1    
    23   11   12 ar   
    24   11   61 1    
    25   12   13 ar   
    26   12   72 1    
    27   13   14 ar   
    28   13   15 1    
    29   14   73 1    
    30   15   16 1    
    31   15   74 1    
    32   15   75 1    
    33   16   17 1    
    34   17   18 1    
    35   17   76 1    
    36   17   77 1    
    37   18   19 1    
    38   18   27 1    
    39   18   78 1    
    40   19   20 am   BACKBONE|DICT|INTERRES
    41   19   79 1    
    42   20   21 2    
    43   20   22 1    
    44   22   23 1    
    45   22   24 1    
    46   22   80 1    
    47   23   81 1    
    48   23   82 1    
    49   23   83 1    
    50   24   25 am   BACKBONE|DICT|INTERRES
    51   24   84 1    
    52   25   26 2    
    53   27   28 2    
    54   27   29 am   BACKBONE|DICT|INTERRES
    55   29   30 1    
    56   29   85 1    
    57   30   31 1    
    58   30   32 1    
    59   30   86 1    
    60   31   87 1    
    61   31   88 1    
    62   31   89 1    
    63   32   33 2    
    64   32   34 am   BACKBONE|DICT|INTERRES
    65   34   35 1    
    66   34   90 1    
    67   35   36 1    
    68   35   37 1    
    69   35   91 1    
    70   36   92 1    
    71   36   93 1    
    72   36   94 1    
    73   37   38 2    
    74   37   39 am   BACKBONE|DICT|INTERRES
    75   39   40 1    
    76   39   95 1    
    77   40   41 1    
    78   40   42 1    
    79   40   96 1    
    80   41   97 1    
    81   41   98 1    
    82   41   99 1    
    83   42   43 2    
    84   42   44 am   BACKBONE|DICT|INTERRES
    85   44   45 1    
    86   44  100 1    
    87   45   46 1    
    88   45   47 1    
    89   45  101 1    
    90   46  102 1    
    91   46  103 1    
    92   46  104 1    
    93   47   48 2    
    94   47   49 am   BACKBONE|DICT|INTERRES
    95   49   50 1    
    96   49  105 1    
    97   50   51 1    
    98   50   52 1    
    99   50  106 1    
   100   51  107 1    
   101   51  108 1    
   102   51  109 1    
   103   52   53 2    
   104   52   54 am   BACKBONE|DICT|INTERRES
   105   54   55 1    
   106   54  110 1    
   107   55   56 1    
   108   55   59 1    
   109   55  111 1    
   110   56   57 am   BACKBONE|DICT|INTERRES
   111   56   58 2    
   112   57  112 1    
   113   57  113 1    
   114   59   60 1    
   115   59  114 1    
   116   59  115 1    
   117   60   61 1    
   118   61  116 1    
   119   61  117 1    
@<TRIPOS>SUBSTRUCTURE
     1 UNK         1 GROUP             0       ****    0 ROOT    
