@<TRIPOS>MOLECULE
3R8
117   119    1
SMALL
USER_CHARGES


@<TRIPOS>ATOM
      1 CA         21.9539  -25.4935  -50.3556 C.3       0 UNK        -0.2013 
      2 C          21.4012  -26.3695  -49.2412 C.2       0 UNK         0.4866 
      3 O          21.7467  -27.5484  -49.1590 O.2       0 UNK        -0.5176 
      4 N          20.5475  -25.8051  -48.3823 N.am      1 UNK        -0.4884 
      5 CA         19.9306  -26.4759  -47.2415 C.3       1 UNK         0.0853 
      6 C6         18.7231  -27.3579  -47.6809 C.3       10 UNK        -0.0849 
      7 S7         17.6000  -27.9001  -46.3439 S.3       10 UNK        -0.2776 
      8 C8         18.3205  -29.5024  -45.8495 C.3       10 UNK         0.0316 
      9 C9         18.1281  -29.8120  -44.3648 C.ar      10 UNK        -0.0863 
     10 C10        19.1545  -30.4408  -43.6536 C.ar      10 UNK        -0.1009 
     11 C11        19.0103  -30.7328  -42.2933 C.ar      10 UNK        -0.0712 
     12 C12        17.8234  -30.3909  -41.6384 C.ar      10 UNK        -0.0894 
     13 C13        16.7973  -29.7391  -42.3285 C.ar      10 UNK        -0.0745 
     14 C14        16.9446  -29.4803  -43.6941 C.ar      10 UNK        -0.0972 
     15 C15        15.5412  -29.2784  -41.6017 C.3       10 UNK         0.0209 
     16 S16        15.4422  -27.4565  -41.5215 S.3       10 UNK        -0.2568 
     17 C17        16.6462  -27.0427  -40.2117 C.3       10 UNK        -0.0983 
     18 CA         18.1034  -26.9161  -40.7217 C.3       3 UNK         0.0876 
     19 N          18.2550  -25.9732  -41.8346 N.am      3 UNK        -0.4424 
     20 C          19.3640  -25.8833  -42.5787 C.2       2 UNK         0.4918 
     21 O          20.3848  -26.5462  -42.3746 O.2       2 UNK        -0.4875 
     22 CA         19.3328  -24.9260  -43.7722 C.3       2 UNK         0.0481 
     23 CB         20.2719  -23.7253  -43.5583 C.3       2 UNK        -0.1831 
     24 N          19.7399  -25.7090  -44.9312 N.am      2 UNK        -0.4498 
     25 C          19.5763  -25.3821  -46.2164 C.2       1 UNK         0.5027 
     26 O          19.1516  -24.2912  -46.6087 O.2       1 UNK        -0.4969 
     27 C          19.0738  -26.5905  -39.5706 C.2       3 UNK         0.5005 
     28 O          19.3286  -25.4143  -39.2973 O.2       3 UNK        -0.5279 
     29 N          19.6301  -27.6434  -38.9535 N.am      4 UNK        -0.4463 
     30 CA         20.7018  -27.6569  -37.9456 C.3       4 UNK         0.0283 
     31 CB         20.3228  -26.8639  -36.6796 C.3       4 UNK        -0.1875 
     32 C          22.0740  -27.2197  -38.4920 C.2       4 UNK         0.4949 
     33 O          23.0667  -27.8941  -38.2214 O.2       4 UNK        -0.5039 
     34 N          22.1112  -26.1361  -39.2784 N.am      5 UNK        -0.4663 
     35 CA         23.3049  -25.5937  -39.9357 C.3       5 UNK         0.0242 
     36 CB         22.9442  -24.2689  -40.6235 C.3       5 UNK        -0.1982 
     37 C          23.9537  -26.5688  -40.9343 C.2       5 UNK         0.5017 
     38 O          25.1806  -26.6102  -41.0252 O.2       5 UNK        -0.5012 
     39 N          23.1262  -27.3643  -41.6273 N.am      6 UNK        -0.4439 
     40 CA         23.5472  -28.4517  -42.5166 C.3       6 UNK         0.0297 
     41 CB         22.4031  -28.7718  -43.4920 C.3       6 UNK        -0.2006 
     42 C          24.0443  -29.7200  -41.7871 C.2       6 UNK         0.4892 
     43 O          24.4445  -30.6667  -42.4665 O.2       6 UNK        -0.5089 
     44 N          24.0279  -29.7261  -40.4432 N.am      7 UNK        -0.4243 
     45 CA         24.5908  -30.7360  -39.5389 C.3       7 UNK         0.0196 
     46 CB         26.1344  -30.6607  -39.5547 C.3       7 UNK        -0.2007 
     47 C          24.0414  -32.1513  -39.7933 C.2       7 UNK         0.5020 
     48 O          22.9390  -32.4588  -39.3422 O.2       7 UNK        -0.5147 
     49 N          24.8150  -32.9806  -40.5075 N.am      8 UNK        -0.4734 
     50 CA         24.4654  -34.3493  -40.9028 C.3       8 UNK         0.0238 
     51 CB         25.7469  -35.0804  -41.3383 C.3       8 UNK        -0.1912 
     52 C          23.3908  -34.4332  -42.0054 C.2       8 UNK         0.5038 
     53 O          22.9050  -35.5327  -42.2745 O.2       8 UNK        -0.5046 
     54 N          23.0458  -33.2923  -42.6179 N.am      9 UNK        -0.4200 
     55 CA         22.0122  -33.1269  -43.6538 C.3       9 UNK         0.0839 
     56 C          22.4264  -33.6383  -45.0652 C.2       9 UNK         0.5513 
     57 N          23.6959  -33.9347  -45.3165 N.am      9 UNK        -0.7519 
     58 O          21.5902  -33.7400  -45.9591 O.2       9 UNK        -0.4960 
     59 C59        20.5924  -33.6292  -43.2358 C.3       10 UNK        -0.0876 
     60 S60        20.0442  -33.1966  -41.5435 S.3       10 UNK        -0.2414 
     61 C61        20.1470  -31.3825  -41.5179 C.3       10 UNK         0.0169 
     62 H62        21.5590  -24.4787  -50.3106 H         1 UNK         0.0903 
     63 H63        23.0399  -25.4383  -50.2860 H         1 UNK         0.0903 
     64 H64        21.6955  -25.9148  -51.3268 H         1 UNK         0.0903 
     65 H65        20.3058  -24.8236  -48.4576 H         1 UNK         0.3096 
     66 H66        20.6801  -27.1240  -46.7806 H         1 UNK         0.1121 
     67 H67        19.0790  -28.2319  -48.2286 H         1 UNK         0.0849 
     68 H68        18.1092  -26.8009  -48.3912 H         1 UNK         0.0849 
     69 H69        17.8682  -30.2974  -46.4436 H         1 UNK         0.0865 
     70 H70        19.3847  -29.5010  -46.0905 H         1 UNK         0.0865 
     71 H71        20.0725  -30.6998  -44.1608 H         1 UNK         0.1346 
     72 H72        17.7119  -30.6053  -40.5843 H         1 UNK         0.1412 
     73 H73        16.1417  -28.9865  -44.2239 H         1 UNK         0.1426 
     74 H74        15.4888  -29.6958  -40.5950 H         1 UNK         0.0716 
     75 H75        14.6666  -29.6542  -42.1347 H         1 UNK         0.0716 
     76 H76        16.5773  -27.7984  -39.4269 H         1 UNK         0.0695 
     77 H77        16.3263  -26.1043  -39.7547 H         1 UNK         0.0695 
     78 H78        18.4065  -27.8830  -41.1188 H         1 UNK         0.0983 
     79 H79        17.4532  -25.4003  -42.0513 H         1 UNK         0.3095 
     80 H80        18.3118  -24.5691  -43.9224 H         1 UNK         0.0454 
     81 H81        21.3168  -24.0346  -43.5299 H         1 UNK         0.0851 
     82 H82        20.0510  -23.2164  -42.6192 H         1 UNK         0.0851 
     83 H83        20.1658  -22.9908  -44.3564 H         1 UNK         0.0851 
     84 H84        20.0861  -26.6294  -44.6925 H         1 UNK         0.2976 
     85 H85        19.3514  -28.5624  -39.2680 H         1 UNK         0.3116 
     86 H86        20.8065  -28.7023  -37.6498 H         1 UNK         0.0646 
     87 H87        20.2418  -25.7937  -36.8710 H         1 UNK         0.0847 
     88 H88        21.0775  -26.9935  -35.9029 H         1 UNK         0.0847 
     89 H89        19.3728  -27.2039  -36.2677 H         1 UNK         0.0847 
     90 H90        21.2312  -25.6510  -39.4351 H         1 UNK         0.3040 
     91 H91        24.0443  -25.3876  -39.1586 H         1 UNK         0.1015 
     92 H92        22.1562  -24.4075  -41.3627 H         1 UNK         0.0786 
     93 H93        23.8076  -23.8436  -41.1373 H         1 UNK         0.0786 
     94 H94        22.5989  -23.5286  -39.9016 H         1 UNK         0.0786 
     95 H95        22.1267  -27.1965  -41.5576 H         1 UNK         0.3172 
     96 H96        24.3911  -28.0942  -43.1102 H         1 UNK         0.0595 
     97 H97        21.4847  -29.0128  -42.9600 H         1 UNK         0.0839 
     98 H98        22.6483  -29.6147  -44.1393 H         1 UNK         0.0839 
     99 H99        22.1939  -27.9208  -44.1400 H         1 UNK         0.0839 
    100 H100       23.6460  -28.9139  -39.9720 H         1 UNK         0.2998 
    101 H101       24.2634  -30.4618  -38.5346 H         1 UNK         0.0822 
    102 H102       26.4768  -29.6841  -39.2116 H         1 UNK         0.0787 
    103 H103       26.5730  -31.4046  -38.8880 H         1 UNK         0.0787 
    104 H104       26.5500  -30.8187  -40.5505 H         1 UNK         0.0787 
    105 H105       25.6882  -32.6167  -40.8620 H         1 UNK         0.3055 
    106 H106       24.0577  -34.8606  -40.0278 H         1 UNK         0.1106 
    107 H107       25.5358  -36.1176  -41.6030 H         1 UNK         0.0828 
    108 H108       26.2052  -34.6095  -42.2087 H         1 UNK         0.0828 
    109 H109       26.4858  -35.0989  -40.5369 H         1 UNK         0.0828 
    110 H110       23.5496  -32.4463  -42.3705 H         1 UNK         0.2931 
    111 H111       21.9430  -32.0484  -43.7856 H         1 UNK         0.0412 
    112 H112       23.9571  -34.2549  -46.2360 H         1 UNK         0.3472 
    113 H113       24.3939  -33.8379  -44.5967 H         1 UNK         0.3472 
    114 H114       20.5492  -34.7168  -43.3147 H         1 UNK         0.0970 
    115 H115       19.8418  -33.2597  -43.9362 H         1 UNK         0.0970 
    116 H116       21.1162  -31.0581  -41.8933 H         1 UNK         0.0612 
    117 H117       20.1152  -31.0558  -40.4775 H         1 UNK         0.0612 
@<TRIPOS>BOND
     1    1    2 1    
     2    1   62 1    
     3    1   63 1    
     4    1   64 1    
     5    2    3 2    
     6    2    4 am   BACKBONE|DICT|INTERRES
     7    4    5 1    
     8    4   65 1    
     9    5    6 1    
    10    5   25 1    
    11    5   66 1    
    12    6    7 1    
    13    6   67 1    
    14    6   68 1    
    15    7    8 1    
    16    8    9 1    
    17    8   69 1    
    18    8   70 1    
    19    9   10 ar   
    20    9   14 ar   
    21   10   11 ar   
    22   10   71 1    
    23   11   12 ar   
    24   11   61 1    
    25   12   13 ar   
    26   12   72 1    
    27   13   14 ar   
    28   13   15 1    
    29   14   73 1    
    30   15   16 1    
    31   15   74 1    
    32   15   75 1    
    33   16   17 1    
    34   17   18 1    
    35   17   76 1    
    36   17   77 1    
    37   18   19 1    
    38   18   27 1    
    39   18   78 1    
    40   19   20 am   BACKBONE|DICT|INTERRES
    41   19   79 1    
    42   20   21 2    
    43   20   22 1    
    44   22   23 1    
    45   22   24 1    
    46   22   80 1    
    47   23   81 1    
    48   23   82 1    
    49   23   83 1    
    50   24   25 am   BACKBONE|DICT|INTERRES
    51   24   84 1    
    52   25   26 2    
    53   27   28 2    
    54   27   29 am   BACKBONE|DICT|INTERRES
    55   29   30 1    
    56   29   85 1    
    57   30   31 1    
    58   30   32 1    
    59   30   86 1    
    60   31   87 1    
    61   31   88 1    
    62   31   89 1    
    63   32   33 2    
    64   32   34 am   BACKBONE|DICT|INTERRES
    65   34   35 1    
    66   34   90 1    
    67   35   36 1    
    68   35   37 1    
    69   35   91 1    
    70   36   92 1    
    71   36   93 1    
    72   36   94 1    
    73   37   38 2    
    74   37   39 am   BACKBONE|DICT|INTERRES
    75   39   40 1    
    76   39   95 1    
    77   40   41 1    
    78   40   42 1    
    79   40   96 1    
    80   41   97 1    
    81   41   98 1    
    82   41   99 1    
    83   42   43 2    
    84   42   44 am   BACKBONE|DICT|INTERRES
    85   44   45 1    
    86   44  100 1    
    87   45   46 1    
    88   45   47 1    
    89   45  101 1    
    90   46  102 1    
    91   46  103 1    
    92   46  104 1    
    93   47   48 2    
    94   47   49 am   BACKBONE|DICT|INTERRES
    95   49   50 1    
    96   49  105 1    
    97   50   51 1    
    98   50   52 1    
    99   50  106 1    
   100   51  107 1    
   101   51  108 1    
   102   51  109 1    
   103   52   53 2    
   104   52   54 am   BACKBONE|DICT|INTERRES
   105   54   55 1    
   106   54  110 1    
   107   55   56 1    
   108   55   59 1    
   109   55  111 1    
   110   56   57 am   BACKBONE|DICT|INTERRES
   111   56   58 2    
   112   57  112 1    
   113   57  113 1    
   114   59   60 1    
   115   59  114 1    
   116   59  115 1    
   117   60   61 1    
   118   61  116 1    
   119   61  117 1    
@<TRIPOS>SUBSTRUCTURE
     1 UNK         1 GROUP             0       ****    0 ROOT    
