@<TRIPOS>MOLECULE
3R8
117   119    1
SMALL
USER_CHARGES


@<TRIPOS>ATOM
      1 CA         15.1431  -23.1045  -41.3189 C.3       0 UNK        -0.2013 
      2 C          16.1240  -23.7919  -42.2569 C.2       0 UNK         0.4866 
      3 O          16.4680  -23.2340  -43.2995 O.2       0 UNK        -0.5176 
      4 N          16.5684  -25.0030  -41.9003 N.am      1 UNK        -0.4884 
      5 CA         17.5499  -25.7917  -42.6536 C.3       1 UNK         0.0853 
      6 C6         17.5977  -27.2655  -42.1811 C.3       10 UNK        -0.0849 
      7 S7         15.9661  -28.0885  -42.1307 S.3       10 UNK        -0.2776 
      8 C8         15.7512  -28.6847  -43.8416 C.3       10 UNK         0.0316 
      9 C9         16.8928  -29.5736  -44.3192 C.ar      10 UNK        -0.0863 
     10 C10        17.2838  -30.6967  -43.5831 C.ar      10 UNK        -0.1009 
     11 C11        18.3589  -31.4859  -44.0047 C.ar      10 UNK        -0.0712 
     12 C12        19.0269  -31.1609  -45.1899 C.ar      10 UNK        -0.0894 
     13 C13        18.6224  -30.0610  -45.9522 C.ar      10 UNK        -0.0745 
     14 C14        17.5585  -29.2702  -45.5094 C.ar      10 UNK        -0.0972 
     15 C15        19.3075  -29.7376  -47.2713 C.3       10 UNK         0.0209 
     16 S16        20.1805  -28.1443  -47.2116 S.3       10 UNK        -0.2568 
     17 C17        21.7034  -28.6023  -46.3240 C.3       10 UNK        -0.0983 
     18 CA         22.5253  -27.3342  -45.9754 C.3       3 UNK         0.0876 
     19 N          21.8477  -26.5409  -44.9437 N.am      3 UNK        -0.4424 
     20 C          21.7967  -25.2052  -44.9231 C.2       2 UNK         0.4918 
     21 O          22.2701  -24.4847  -45.8040 O.2       2 UNK        -0.4875 
     22 CA         21.0534  -24.5821  -43.7334 C.3       2 UNK         0.0481 
     23 CB         20.9890  -23.0412  -43.8009 C.3       2 UNK        -0.1831 
     24 N          19.7069  -25.1494  -43.6489 N.am      2 UNK        -0.4498 
     25 C          18.9510  -25.1517  -42.5448 C.2       1 UNK         0.5027 
     26 O          19.3216  -24.6863  -41.4634 O.2       1 UNK        -0.4969 
     27 C          23.9750  -27.6422  -45.5404 C.2       3 UNK         0.5005 
     28 O          24.4649  -27.0680  -44.5645 O.2       3 UNK        -0.5279 
     29 N          24.6541  -28.5521  -46.2561 N.am      4 UNK        -0.4463 
     30 CA         26.0243  -29.0017  -45.9643 C.3       4 UNK         0.0283 
     31 CB         26.4901  -29.9654  -47.0674 C.3       4 UNK        -0.1875 
     32 C          26.1904  -29.6547  -44.5770 C.2       4 UNK         0.4949 
     33 O          27.2759  -29.5844  -44.0014 O.2       4 UNK        -0.5039 
     34 N          25.1043  -30.2424  -44.0589 N.am      5 UNK        -0.4663 
     35 CA         24.9929  -30.7885  -42.7046 C.3       5 UNK         0.0242 
     36 CB         24.3200  -32.1688  -42.7899 C.3       5 UNK        -0.1982 
     37 C          24.2300  -29.8366  -41.7593 C.2       5 UNK         0.5017 
     38 O          23.7159  -30.2935  -40.7349 O.2       5 UNK        -0.5012 
     39 N          24.1536  -28.5428  -42.1168 N.am      6 UNK        -0.4439 
     40 CA         23.4649  -27.4546  -41.4164 C.3       6 UNK         0.0297 
     41 CB         24.2200  -27.0923  -40.1157 C.3       6 UNK        -0.2006 
     42 C          21.9726  -27.7804  -41.2285 C.2       6 UNK         0.4892 
     43 O          21.2683  -27.9491  -42.2268 O.2       6 UNK        -0.5089 
     44 N          21.5488  -27.8890  -39.9655 N.am      7 UNK        -0.4243 
     45 CA         20.2673  -28.4413  -39.5318 C.3       7 UNK         0.0196 
     46 CB         19.4860  -27.3458  -38.7824 C.3       7 UNK        -0.2007 
     47 C          20.4786  -29.6783  -38.6367 C.2       7 UNK         0.5020 
     48 O          19.5189  -30.1394  -38.0182 O.2       7 UNK        -0.5147 
     49 N          21.7200  -30.1832  -38.5473 N.am      8 UNK        -0.4734 
     50 CA         22.0733  -31.3660  -37.7593 C.3       8 UNK         0.0238 
     51 CB         23.5690  -31.3279  -37.4042 C.3       8 UNK        -0.1912 
     52 C          21.7187  -32.6572  -38.5081 C.2       8 UNK         0.5038 
     53 O          21.2084  -33.5907  -37.8877 O.2       8 UNK        -0.5046 
     54 N          21.9683  -32.6655  -39.8259 N.am      9 UNK        -0.4200 
     55 CA         21.5705  -33.7232  -40.7731 C.3       9 UNK         0.0839 
     56 C          22.2571  -35.1047  -40.5459 C.2       9 UNK         0.5513 
     57 N          23.3839  -35.1711  -39.8469 N.am      9 UNK        -0.7519 
     58 O          21.7859  -36.1275  -41.0367 O.2       9 UNK        -0.4960 
     59 C59        20.0261  -33.8208  -40.9327 C.3       10 UNK        -0.0876 
     60 S60        19.3116  -32.2427  -41.5122 S.3       10 UNK        -0.2414 
     61 C61        18.7853  -32.7004  -43.1926 C.3       10 UNK         0.0169 
     62 H62        14.9160  -23.7165  -40.4461 H         1 UNK         0.0903 
     63 H63        15.5573  -22.1585  -40.9712 H         1 UNK         0.0903 
     64 H64        14.2085  -22.8970  -41.8395 H         1 UNK         0.0903 
     65 H65        16.2574  -25.4151  -41.0323 H         1 UNK         0.3096 
     66 H66        17.2466  -25.7806  -43.7029 H         1 UNK         0.1121 
     67 H67        17.9960  -27.3138  -41.1685 H         1 UNK         0.0849 
     68 H68        18.2889  -27.8469  -42.7942 H         1 UNK         0.0849 
     69 H69        15.6306  -27.8203  -44.4965 H         1 UNK         0.0865 
     70 H70        14.8185  -29.2468  -43.9038 H         1 UNK         0.0865 
     71 H71        16.7662  -30.9439  -42.6661 H         1 UNK         0.1346 
     72 H72        19.8518  -31.7730  -45.5278 H         1 UNK         0.1412 
     73 H73        17.2538  -28.4150  -46.0976 H         1 UNK         0.1426 
     74 H74        18.5527  -29.6930  -48.0577 H         1 UNK         0.0716 
     75 H75        20.0040  -30.5260  -47.5610 H         1 UNK         0.0716 
     76 H76        22.2514  -29.2850  -46.9744 H         1 UNK         0.0695 
     77 H77        21.4496  -29.1627  -45.4217 H         1 UNK         0.0695 
     78 H78        22.6206  -26.7391  -46.8867 H         1 UNK         0.0983 
     79 H79        21.4865  -27.0560  -44.1476 H         1 UNK         0.3095 
     80 H80        21.6118  -24.8635  -42.8381 H         1 UNK         0.0454 
     81 H81        20.5240  -22.6191  -42.9101 H         1 UNK         0.0851 
     82 H82        20.4207  -22.7012  -44.6673 H         1 UNK         0.0851 
     83 H83        21.9882  -22.6102  -43.8738 H         1 UNK         0.0851 
     84 H84        19.3552  -25.5695  -44.4992 H         1 UNK         0.2976 
     85 H85        24.2071  -28.9700  -47.0600 H         1 UNK         0.3116 
     86 H86        26.6697  -28.1209  -45.9862 H         1 UNK         0.0646 
     87 H87        27.5150  -30.2948  -46.8900 H         1 UNK         0.0847 
     88 H88        26.4723  -29.4884  -48.0475 H         1 UNK         0.0847 
     89 H89        25.8660  -30.8587  -47.1151 H         1 UNK         0.0847 
     90 H90        24.2604  -30.2475  -44.6134 H         1 UNK         0.3040 
     91 H91        25.9864  -30.9254  -42.2722 H         1 UNK         0.1015 
     92 H92        24.8648  -32.8337  -43.4604 H         1 UNK         0.0786 
     93 H93        23.2952  -32.0918  -43.1544 H         1 UNK         0.0786 
     94 H94        24.2952  -32.6537  -41.8135 H         1 UNK         0.0786 
     95 H95        24.5550  -28.2679  -43.0085 H         1 UNK         0.3172 
     96 H96        23.5050  -26.5841  -42.0723 H         1 UNK         0.0595 
     97 H97        24.2642  -27.9237  -39.4111 H         1 UNK         0.0839 
     98 H98        23.7566  -26.2439  -39.6100 H         1 UNK         0.0839 
     99 H99        25.2474  -26.8018  -40.3358 H         1 UNK         0.0839 
    100 H100       22.2131  -27.6979  -39.2287 H         1 UNK         0.2998 
    101 H101       19.6868  -28.7733  -40.3949 H         1 UNK         0.0822 
    102 H102       19.3840  -26.4444  -39.3860 H         1 UNK         0.0787 
    103 H103       18.4796  -27.6838  -38.5318 H         1 UNK         0.0787 
    104 H104       19.9790  -27.0657  -37.8507 H         1 UNK         0.0787 
    105 H105       22.4374  -29.8316  -39.1720 H         1 UNK         0.3055 
    106 H106       21.5033  -31.3543  -36.8272 H         1 UNK         0.1106 
    107 H107       23.8453  -32.1892  -36.7946 H         1 UNK         0.0828 
    108 H108       24.2017  -31.3415  -38.2922 H         1 UNK         0.0828 
    109 H109       23.8166  -30.4343  -36.8312 H         1 UNK         0.0828 
    110 H110       22.4223  -31.8544  -40.2301 H         1 UNK         0.2931 
    111 H111       21.9547  -33.4006  -41.7392 H         1 UNK         0.0412 
    112 H112       23.7835  -34.3398  -39.4422 H         1 UNK         0.3472 
    113 H113       23.8302  -36.0648  -39.7120 H         1 UNK         0.3472 
    114 H114       19.7563  -34.6113  -41.6351 H         1 UNK         0.0970 
    115 H115       19.5558  -34.0929  -39.9867 H         1 UNK         0.0970 
    116 H116       19.6037  -33.2239  -43.6895 H         1 UNK         0.0612 
    117 H117       17.9535  -33.4034  -43.1309 H         1 UNK         0.0612 
@<TRIPOS>BOND
     1    1    2 1    
     2    1   62 1    
     3    1   63 1    
     4    1   64 1    
     5    2    3 2    
     6    2    4 am   BACKBONE|DICT|INTERRES
     7    4    5 1    
     8    4   65 1    
     9    5    6 1    
    10    5   25 1    
    11    5   66 1    
    12    6    7 1    
    13    6   67 1    
    14    6   68 1    
    15    7    8 1    
    16    8    9 1    
    17    8   69 1    
    18    8   70 1    
    19    9   10 ar   
    20    9   14 ar   
    21   10   11 ar   
    22   10   71 1    
    23   11   12 ar   
    24   11   61 1    
    25   12   13 ar   
    26   12   72 1    
    27   13   14 ar   
    28   13   15 1    
    29   14   73 1    
    30   15   16 1    
    31   15   74 1    
    32   15   75 1    
    33   16   17 1    
    34   17   18 1    
    35   17   76 1    
    36   17   77 1    
    37   18   19 1    
    38   18   27 1    
    39   18   78 1    
    40   19   20 am   BACKBONE|DICT|INTERRES
    41   19   79 1    
    42   20   21 2    
    43   20   22 1    
    44   22   23 1    
    45   22   24 1    
    46   22   80 1    
    47   23   81 1    
    48   23   82 1    
    49   23   83 1    
    50   24   25 am   BACKBONE|DICT|INTERRES
    51   24   84 1    
    52   25   26 2    
    53   27   28 2    
    54   27   29 am   BACKBONE|DICT|INTERRES
    55   29   30 1    
    56   29   85 1    
    57   30   31 1    
    58   30   32 1    
    59   30   86 1    
    60   31   87 1    
    61   31   88 1    
    62   31   89 1    
    63   32   33 2    
    64   32   34 am   BACKBONE|DICT|INTERRES
    65   34   35 1    
    66   34   90 1    
    67   35   36 1    
    68   35   37 1    
    69   35   91 1    
    70   36   92 1    
    71   36   93 1    
    72   36   94 1    
    73   37   38 2    
    74   37   39 am   BACKBONE|DICT|INTERRES
    75   39   40 1    
    76   39   95 1    
    77   40   41 1    
    78   40   42 1    
    79   40   96 1    
    80   41   97 1    
    81   41   98 1    
    82   41   99 1    
    83   42   43 2    
    84   42   44 am   BACKBONE|DICT|INTERRES
    85   44   45 1    
    86   44  100 1    
    87   45   46 1    
    88   45   47 1    
    89   45  101 1    
    90   46  102 1    
    91   46  103 1    
    92   46  104 1    
    93   47   48 2    
    94   47   49 am   BACKBONE|DICT|INTERRES
    95   49   50 1    
    96   49  105 1    
    97   50   51 1    
    98   50   52 1    
    99   50  106 1    
   100   51  107 1    
   101   51  108 1    
   102   51  109 1    
   103   52   53 2    
   104   52   54 am   BACKBONE|DICT|INTERRES
   105   54   55 1    
   106   54  110 1    
   107   55   56 1    
   108   55   59 1    
   109   55  111 1    
   110   56   57 am   BACKBONE|DICT|INTERRES
   111   56   58 2    
   112   57  112 1    
   113   57  113 1    
   114   59   60 1    
   115   59  114 1    
   116   59  115 1    
   117   60   61 1    
   118   61  116 1    
   119   61  117 1    
@<TRIPOS>SUBSTRUCTURE
     1 UNK         1 GROUP             0       ****    0 ROOT    
