@<TRIPOS>MOLECULE
3R8
117   119    1
SMALL
USER_CHARGES


@<TRIPOS>ATOM
      1 CA         17.1652  -22.4035  -44.5206 C.3       0 UNK        -0.2013 
      2 C          18.0685  -23.5035  -45.0577 C.2       0 UNK         0.4866 
      3 O          19.2398  -23.2496  -45.3418 O.2       0 UNK        -0.5176 
      4 N          17.5308  -24.7205  -45.2062 N.am      1 UNK        -0.4884 
      5 CA         18.2640  -25.9276  -45.6050 C.3       1 UNK         0.0853 
      6 C6         17.3383  -27.0081  -46.2309 C.3       10 UNK        -0.0849 
      7 S7         15.7367  -27.2410  -45.3874 S.3       10 UNK        -0.2776 
      8 C8         15.4143  -29.0057  -45.7110 C.3       10 UNK         0.0316 
      9 C9         16.1669  -29.9064  -44.7429 C.ar      10 UNK        -0.0863 
     10 C10        17.0584  -30.8806  -45.2046 C.ar      10 UNK        -0.1009 
     11 C11        17.7195  -31.7205  -44.3002 C.ar      10 UNK        -0.0712 
     12 C12        17.4991  -31.5678  -42.9278 C.ar      10 UNK        -0.0894 
     13 C13        16.6185  -30.5887  -42.4596 C.ar      10 UNK        -0.0745 
     14 C14        15.9454  -29.7755  -43.3709 C.ar      10 UNK        -0.0972 
     15 C15        16.3870  -30.3858  -40.9734 C.3       10 UNK         0.0209 
     16 S16        17.2664  -28.9083  -40.3816 S.3       10 UNK        -0.2568 
     17 C17        18.9561  -29.5653  -40.1868 C.3       10 UNK        -0.0983 
     18 CA         20.0913  -28.6066  -40.6162 C.3       3 UNK         0.0876 
     19 N          20.2074  -28.4284  -42.0743 N.am      3 UNK        -0.4424 
     20 C          21.3325  -27.9880  -42.6595 C.2       2 UNK         0.4918 
     21 O          22.3711  -27.7834  -42.0310 O.2       2 UNK        -0.4875 
     22 CA         21.3533  -27.6764  -44.1658 C.3       2 UNK         0.0481 
     23 CB         22.0850  -28.7865  -44.9341 C.3       2 UNK        -0.1831 
     24 N          20.0928  -27.3599  -44.8469 N.am      2 UNK        -0.4498 
     25 C          19.1775  -26.4538  -44.4724 C.2       1 UNK         0.5027 
     26 O          19.0850  -26.0011  -43.3281 O.2       1 UNK        -0.4969 
     27 C          20.1028  -27.2774  -39.8257 C.2       3 UNK         0.5005 
     28 O          20.3978  -27.2951  -38.6297 O.2       3 UNK        -0.5279 
     29 N          19.8483  -26.1478  -40.5050 N.am      4 UNK        -0.4463 
     30 CA         20.0681  -24.7968  -39.9814 C.3       4 UNK         0.0283 
     31 CB         19.2732  -23.7949  -40.8362 C.3       4 UNK        -0.1875 
     32 C          21.5600  -24.4015  -39.9375 C.2       4 UNK         0.4949 
     33 O          21.8863  -23.3798  -39.3323 O.2       4 UNK        -0.5039 
     34 N          22.4292  -25.1904  -40.5835 N.am      5 UNK        -0.4663 
     35 CA         23.8718  -24.9948  -40.6693 C.3       5 UNK         0.0242 
     36 CB         24.2386  -24.6600  -42.1313 C.3       5 UNK        -0.1982 
     37 C          24.5773  -26.2415  -40.1048 C.2       5 UNK         0.5017 
     38 O          24.4130  -26.5376  -38.9206 O.2       5 UNK        -0.5012 
     39 N          25.3657  -26.9330  -40.9394 N.am      6 UNK        -0.4439 
     40 CA         26.2217  -28.0618  -40.5613 C.3       6 UNK         0.0297 
     41 CB         27.2660  -28.2816  -41.6694 C.3       6 UNK        -0.2006 
     42 C          25.4798  -29.3800  -40.2708 C.2       6 UNK         0.4892 
     43 O          26.0645  -30.2481  -39.6218 O.2       6 UNK        -0.5089 
     44 N          24.2429  -29.5263  -40.7726 N.am      7 UNK        -0.4243 
     45 CA         23.3923  -30.7244  -40.6926 C.3       7 UNK         0.0196 
     46 CB         22.9577  -30.9969  -39.2362 C.3       7 UNK        -0.2007 
     47 C          24.0036  -31.9628  -41.3768 C.2       7 UNK         0.5020 
     48 O          23.7809  -33.0885  -40.9288 O.2       7 UNK        -0.5147 
     49 N          24.7464  -31.7372  -42.4706 N.am      8 UNK        -0.4734 
     50 CA         25.4655  -32.7650  -43.2345 C.3       8 UNK         0.0238 
     51 CB         26.3216  -32.0824  -44.3137 C.3       8 UNK        -0.1912 
     52 C          24.5624  -33.8427  -43.8633 C.2       8 UNK         0.5038 
     53 O          25.0168  -34.9720  -44.0505 O.2       8 UNK        -0.5046 
     54 N          23.3091  -33.4801  -44.1622 N.am      9 UNK        -0.4200 
     55 CA         22.2546  -34.3892  -44.6320 C.3       9 UNK         0.0839 
     56 C          21.5652  -35.2213  -43.5095 C.2       9 UNK         0.5513 
     57 N          21.8903  -35.0365  -42.2346 N.am      9 UNK        -0.7519 
     58 O          20.7249  -36.0668  -43.8058 O.2       9 UNK        -0.4960 
     59 C59        21.2381  -33.6519  -45.5426 C.3       10 UNK        -0.0876 
     60 S60        20.3906  -32.2521  -44.7297 S.3       10 UNK        -0.2414 
     61 C61        18.6618  -32.8028  -44.8023 C.3       10 UNK         0.0169 
     62 H62        16.1515  -22.7607  -44.3394 H         1 UNK         0.0903 
     63 H63        17.5622  -22.0198  -43.5811 H         1 UNK         0.0903 
     64 H64        17.1125  -21.5793  -45.2314 H         1 UNK         0.0903 
     65 H65        16.5702  -24.8834  -44.9371 H         1 UNK         0.3096 
     66 H66        18.9528  -25.6211  -46.3963 H         1 UNK         0.1121 
     67 H67        17.8497  -27.9684  -46.3179 H         1 UNK         0.0849 
     68 H68        17.1073  -26.7170  -47.2569 H         1 UNK         0.0849 
     69 H69        14.3452  -29.1925  -45.6007 H         1 UNK         0.0865 
     70 H70        15.6598  -29.2415  -46.7478 H         1 UNK         0.0865 
     71 H71        17.2306  -30.9950  -46.2663 H         1 UNK         0.1346 
     72 H72        18.0181  -32.2084  -42.2280 H         1 UNK         0.1412 
     73 H73        15.2603  -29.0207  -43.0083 H         1 UNK         0.1426 
     74 H74        16.6969  -31.2614  -40.4006 H         1 UNK         0.0716 
     75 H75        15.3195  -30.2602  -40.7864 H         1 UNK         0.0716 
     76 H76        19.0551  -30.5010  -40.7376 H         1 UNK         0.0695 
     77 H77        19.0811  -29.8360  -39.1367 H         1 UNK         0.0695 
     78 H78        21.0085  -29.1007  -40.2989 H         1 UNK         0.0983 
     79 H79        19.3681  -28.5481  -42.6241 H         1 UNK         0.3095 
     80 H80        21.9622  -26.7748  -44.2590 H         1 UNK         0.0454 
     81 H81        21.4739  -29.6824  -45.0133 H         1 UNK         0.0851 
     82 H82        23.0175  -29.0672  -44.4420 H         1 UNK         0.0851 
     83 H83        22.3419  -28.4681  -45.9444 H         1 UNK         0.0851 
     84 H84        20.0359  -27.7029  -45.7949 H         1 UNK         0.2976 
     85 H85        19.5836  -26.2127  -41.4863 H         1 UNK         0.3116 
     86 H86        19.6849  -24.7533  -38.9598 H         1 UNK         0.0646 
     87 H87        18.2138  -24.0500  -40.8676 H         1 UNK         0.0847 
     88 H88        19.6395  -23.7609  -41.8632 H         1 UNK         0.0847 
     89 H89        19.3518  -22.7857  -40.4300 H         1 UNK         0.0847 
     90 H90        22.0886  -26.0458  -41.0069 H         1 UNK         0.3040 
     91 H91        24.1820  -24.1572  -40.0408 H         1 UNK         0.1015 
     92 H92        25.3101  -24.4896  -42.2450 H         1 UNK         0.0786 
     93 H93        23.7395  -23.7460  -42.4544 H         1 UNK         0.0786 
     94 H94        23.9436  -25.4515  -42.8218 H         1 UNK         0.0786 
     95 H95        25.4187  -26.6261  -41.8999 H         1 UNK         0.3172 
     96 H96        26.7531  -27.7860  -39.6478 H         1 UNK         0.0595 
     97 H97        26.7997  -28.5396  -42.6210 H         1 UNK         0.0839 
     98 H98        27.9463  -29.0947  -41.4108 H         1 UNK         0.0839 
     99 H99        27.8764  -27.3916  -41.8235 H         1 UNK         0.0839 
    100 H100       23.8311  -28.7399  -41.2691 H         1 UNK         0.2998 
    101 H101       22.4963  -30.5019  -41.2710 H         1 UNK         0.0822 
    102 H102       22.5559  -30.1013  -38.7627 H         1 UNK         0.0787 
    103 H103       22.1816  -31.7623  -39.1968 H         1 UNK         0.0787 
    104 H104       23.7906  -31.3487  -38.6266 H         1 UNK         0.0787 
    105 H105       24.8758  -30.7803  -42.7650 H         1 UNK         0.3055 
    106 H106       26.1343  -33.2786  -42.5401 H         1 UNK         0.1106 
    107 H107       25.7091  -31.5252  -45.0236 H         1 UNK         0.0828 
    108 H108       26.8915  -32.8182  -44.8831 H         1 UNK         0.0828 
    109 H109       27.0406  -31.3913  -43.8731 H         1 UNK         0.0828 
    110 H110       23.0171  -32.5360  -43.9595 H         1 UNK         0.2931 
    111 H111       22.7373  -35.1336  -45.2683 H         1 UNK         0.0412 
    112 H112       22.5883  -34.3548  -41.9584 H         1 UNK         0.3472 
    113 H113       21.4341  -35.5929  -41.5294 H         1 UNK         0.3472 
    114 H114       21.7585  -33.2579  -46.4168 H         1 UNK         0.0970 
    115 H115       20.5053  -34.3559  -45.9414 H         1 UNK         0.0970 
    116 H116       18.5455  -33.7080  -44.2040 H         1 UNK         0.0612 
    117 H117       18.4095  -33.0729  -45.8290 H         1 UNK         0.0612 
@<TRIPOS>BOND
     1    1    2 1    
     2    1   62 1    
     3    1   63 1    
     4    1   64 1    
     5    2    3 2    
     6    2    4 am   BACKBONE|DICT|INTERRES
     7    4    5 1    
     8    4   65 1    
     9    5    6 1    
    10    5   25 1    
    11    5   66 1    
    12    6    7 1    
    13    6   67 1    
    14    6   68 1    
    15    7    8 1    
    16    8    9 1    
    17    8   69 1    
    18    8   70 1    
    19    9   10 ar   
    20    9   14 ar   
    21   10   11 ar   
    22   10   71 1    
    23   11   12 ar   
    24   11   61 1    
    25   12   13 ar   
    26   12   72 1    
    27   13   14 ar   
    28   13   15 1    
    29   14   73 1    
    30   15   16 1    
    31   15   74 1    
    32   15   75 1    
    33   16   17 1    
    34   17   18 1    
    35   17   76 1    
    36   17   77 1    
    37   18   19 1    
    38   18   27 1    
    39   18   78 1    
    40   19   20 am   BACKBONE|DICT|INTERRES
    41   19   79 1    
    42   20   21 2    
    43   20   22 1    
    44   22   23 1    
    45   22   24 1    
    46   22   80 1    
    47   23   81 1    
    48   23   82 1    
    49   23   83 1    
    50   24   25 am   BACKBONE|DICT|INTERRES
    51   24   84 1    
    52   25   26 2    
    53   27   28 2    
    54   27   29 am   BACKBONE|DICT|INTERRES
    55   29   30 1    
    56   29   85 1    
    57   30   31 1    
    58   30   32 1    
    59   30   86 1    
    60   31   87 1    
    61   31   88 1    
    62   31   89 1    
    63   32   33 2    
    64   32   34 am   BACKBONE|DICT|INTERRES
    65   34   35 1    
    66   34   90 1    
    67   35   36 1    
    68   35   37 1    
    69   35   91 1    
    70   36   92 1    
    71   36   93 1    
    72   36   94 1    
    73   37   38 2    
    74   37   39 am   BACKBONE|DICT|INTERRES
    75   39   40 1    
    76   39   95 1    
    77   40   41 1    
    78   40   42 1    
    79   40   96 1    
    80   41   97 1    
    81   41   98 1    
    82   41   99 1    
    83   42   43 2    
    84   42   44 am   BACKBONE|DICT|INTERRES
    85   44   45 1    
    86   44  100 1    
    87   45   46 1    
    88   45   47 1    
    89   45  101 1    
    90   46  102 1    
    91   46  103 1    
    92   46  104 1    
    93   47   48 2    
    94   47   49 am   BACKBONE|DICT|INTERRES
    95   49   50 1    
    96   49  105 1    
    97   50   51 1    
    98   50   52 1    
    99   50  106 1    
   100   51  107 1    
   101   51  108 1    
   102   51  109 1    
   103   52   53 2    
   104   52   54 am   BACKBONE|DICT|INTERRES
   105   54   55 1    
   106   54  110 1    
   107   55   56 1    
   108   55   59 1    
   109   55  111 1    
   110   56   57 am   BACKBONE|DICT|INTERRES
   111   56   58 2    
   112   57  112 1    
   113   57  113 1    
   114   59   60 1    
   115   59  114 1    
   116   59  115 1    
   117   60   61 1    
   118   61  116 1    
   119   61  117 1    
@<TRIPOS>SUBSTRUCTURE
     1 UNK         1 GROUP             0       ****    0 ROOT    
