@<TRIPOS>MOLECULE
3R8
117   119    1
SMALL
USER_CHARGES


@<TRIPOS>ATOM
      1 CA         20.0148  -26.4924  -38.4397 C.3       0 UNK        -0.2013 
      2 C          19.5311  -26.0722  -39.8196 C.2       0 UNK         0.4866 
      3 O          19.1974  -24.9041  -40.0190 O.2       0 UNK        -0.5176 
      4 N          19.4813  -27.0113  -40.7708 N.am      1 UNK        -0.4884 
      5 CA         19.0309  -26.7823  -42.1441 C.3       1 UNK         0.0853 
      6 C6         18.5493  -28.0867  -42.8246 C.3       10 UNK        -0.0849 
      7 S7         17.3240  -29.0362  -41.8496 S.3       10 UNK        -0.2776 
      8 C8         16.4947  -30.0631  -43.1138 C.3       10 UNK         0.0316 
      9 C9         17.4808  -30.6887  -44.0909 C.ar      10 UNK        -0.0863 
     10 C10        18.1892  -31.8455  -43.7568 C.ar      10 UNK        -0.1009 
     11 C11        19.1469  -32.3662  -44.6348 C.ar      10 UNK        -0.0712 
     12 C12        19.3961  -31.7123  -45.8475 C.ar      10 UNK        -0.0894 
     13 C13        18.6937  -30.5536  -46.1949 C.ar      10 UNK        -0.0745 
     14 C14        17.7100  -30.0746  -45.3235 C.ar      10 UNK        -0.0972 
     15 C15        19.0172  -29.8367  -47.5061 C.3       10 UNK         0.0209 
     16 S16        18.7820  -28.0243  -47.4211 S.3       10 UNK        -0.2568 
     17 C17        20.2508  -27.3800  -48.2911 C.3       10 UNK        -0.0983 
     18 CA         21.3680  -26.8713  -47.3428 C.3       3 UNK         0.0876 
     19 N          20.8490  -25.9627  -46.3105 N.am      3 UNK        -0.4424 
     20 C          21.5936  -25.1310  -45.5709 C.2       2 UNK         0.4918 
     21 O          22.8163  -25.0353  -45.6731 O.2       2 UNK        -0.4875 
     22 CA         20.8565  -24.3138  -44.4957 C.3       2 UNK         0.0481 
     23 CB         20.1734  -23.0882  -45.1223 C.3       2 UNK        -0.1831 
     24 N          19.8754  -25.0900  -43.7257 N.am      2 UNK        -0.4498 
     25 C          20.1767  -26.1463  -42.9564 C.2       1 UNK         0.5027 
     26 O          21.3090  -26.6341  -42.8890 O.2       1 UNK        -0.4969 
     27 C          22.2173  -28.0306  -46.7740 C.2       3 UNK         0.5005 
     28 O          23.0043  -28.6169  -47.5185 O.2       3 UNK        -0.5279 
     29 N          22.0763  -28.3192  -45.4726 N.am      4 UNK        -0.4463 
     30 CA         22.8913  -29.2831  -44.7305 C.3       4 UNK         0.0283 
     31 CB         22.0078  -29.9616  -43.6742 C.3       4 UNK        -0.1875 
     32 C          24.1168  -28.6259  -44.0649 C.2       4 UNK         0.4949 
     33 O          24.8252  -29.3095  -43.3266 O.2       4 UNK        -0.5039 
     34 N          24.3373  -27.3242  -44.3143 N.am      5 UNK        -0.4663 
     35 CA         25.3728  -26.4651  -43.7289 C.3       5 UNK         0.0242 
     36 CB         26.7894  -26.9468  -44.1116 C.3       5 UNK        -0.1982 
     37 C          25.1789  -26.2651  -42.2136 C.2       5 UNK         0.5017 
     38 O          26.1455  -26.3406  -41.4530 O.2       5 UNK        -0.5012 
     39 N          23.9244  -25.9993  -41.8178 N.am      6 UNK        -0.4439 
     40 CA         23.4489  -25.7655  -40.4507 C.3       6 UNK         0.0297 
     41 CB         24.1104  -24.5204  -39.8214 C.3       6 UNK        -0.2006 
     42 C          23.5483  -27.0261  -39.5732 C.2       6 UNK         0.4892 
     43 O          24.0358  -26.9588  -38.4433 O.2       6 UNK        -0.5089 
     44 N          23.0559  -28.1477  -40.1097 N.am      7 UNK        -0.4243 
     45 CA         22.9034  -29.4241  -39.4142 C.3       7 UNK         0.0196 
     46 CB         23.8440  -30.4624  -40.0457 C.3       7 UNK        -0.2007 
     47 C          21.4428  -29.8688  -39.5393 C.2       7 UNK         0.5020 
     48 O          20.7789  -29.5087  -40.5112 O.2       7 UNK        -0.5147 
     49 N          20.9531  -30.6258  -38.5526 N.am      8 UNK        -0.4734 
     50 CA         19.5689  -31.1155  -38.5215 C.3       8 UNK         0.0238 
     51 CB         19.1249  -31.2567  -37.0556 C.3       8 UNK        -0.1912 
     52 C          19.3745  -32.4456  -39.2723 C.2       8 UNK         0.5038 
     53 O          18.2303  -32.8124  -39.5423 O.2       8 UNK        -0.5046 
     54 N          20.4776  -33.1529  -39.5596 N.am      9 UNK        -0.4200 
     55 CA         20.5229  -34.4941  -40.1726 C.3       9 UNK         0.0839 
     56 C          19.9321  -35.6315  -39.2815 C.2       9 UNK         0.5513 
     57 N          19.7881  -35.4406  -37.9753 N.am      9 UNK        -0.7519 
     58 O          19.6296  -36.7177  -39.7696 O.2       9 UNK        -0.4960 
     59 C59        19.9719  -34.5247  -41.6273 C.3       10 UNK        -0.0876 
     60 S60        20.9037  -33.4417  -42.7605 S.3       10 UNK        -0.2414 
     61 C61        19.9180  -33.6311  -44.2811 C.3       10 UNK         0.0169 
     62 H62        19.3059  -26.1639  -37.6802 H         1 UNK         0.0903 
     63 H63        20.1149  -27.5731  -38.3543 H         1 UNK         0.0903 
     64 H64        20.9800  -26.0372  -38.2210 H         1 UNK         0.0903 
     65 H65        19.8234  -27.9544  -40.5906 H         1 UNK         0.3096 
     66 H66        18.1886  -26.0874  -42.1158 H         1 UNK         0.1121 
     67 H67        18.1131  -27.8418  -43.7936 H         1 UNK         0.0849 
     68 H68        19.3897  -28.7547  -43.0216 H         1 UNK         0.0849 
     69 H69        15.9214  -30.8462  -42.6156 H         1 UNK         0.0865 
     70 H70        15.7675  -29.4492  -43.6477 H         1 UNK         0.0865 
     71 H71        18.0137  -32.3241  -42.8032 H         1 UNK         0.1346 
     72 H72        20.1490  -32.1007  -46.5198 H         1 UNK         0.1412 
     73 H73        17.1451  -29.1896  -45.5798 H         1 UNK         0.1426 
     74 H74        18.3850  -30.2391  -48.2984 H         1 UNK         0.0716 
     75 H75        20.0481  -30.0531  -47.7899 H         1 UNK         0.0716 
     76 H76        19.9105  -26.5479  -48.9093 H         1 UNK         0.0695 
     77 H77        20.6303  -28.1213  -48.9972 H         1 UNK         0.0695 
     78 H78        22.0580  -26.2863  -47.9557 H         1 UNK         0.0983 
     79 H79        19.8512  -25.9981  -46.1577 H         1 UNK         0.3095 
     80 H80        21.6083  -23.9526  -43.7906 H         1 UNK         0.0454 
     81 H81        20.8891  -22.4885  -45.6866 H         1 UNK         0.0851 
     82 H82        19.7443  -22.4393  -44.3586 H         1 UNK         0.0851 
     83 H83        19.3750  -23.3728  -45.8086 H         1 UNK         0.0851 
     84 H84        18.9248  -24.7481  -43.7352 H         1 UNK         0.2976 
     85 H85        21.4316  -27.7688  -44.9215 H         1 UNK         0.3116 
     86 H86        23.2572  -30.0551  -45.4103 H         1 UNK         0.0646 
     87 H87        21.7383  -29.2709  -42.8775 H         1 UNK         0.0847 
     88 H88        21.0863  -30.3476  -44.1048 H         1 UNK         0.0847 
     89 H89        22.5242  -30.8040  -43.2143 H         1 UNK         0.0847 
     90 H90        23.6903  -26.8459  -44.9303 H         1 UNK         0.3040 
     91 H91        25.2359  -25.4797  -44.1778 H         1 UNK         0.1015 
     92 H92        27.5436  -26.2254  -43.7948 H         1 UNK         0.0786 
     93 H93        26.8897  -27.0666  -45.1902 H         1 UNK         0.0786 
     94 H94        27.0381  -27.8993  -43.6428 H         1 UNK         0.0786 
     95 H95        23.1865  -26.0517  -42.5141 H         1 UNK         0.3172 
     96 H96        22.3851  -25.5453  -40.5426 H         1 UNK         0.0595 
     97 H97        25.1741  -24.6718  -39.6356 H         1 UNK         0.0839 
     98 H98        23.6480  -24.2785  -38.8637 H         1 UNK         0.0839 
     99 H99        24.0018  -23.6459  -40.4627 H         1 UNK         0.0839 
    100 H100       22.6132  -28.0992  -41.0186 H         1 UNK         0.2998 
    101 H101       23.1450  -29.3168  -38.3546 H         1 UNK         0.0822 
    102 H102       23.6090  -30.6340  -41.0962 H         1 UNK         0.0787 
    103 H103       23.7743  -31.4222  -39.5329 H         1 UNK         0.0787 
    104 H104       24.8832  -30.1377  -39.9892 H         1 UNK         0.0787 
    105 H105       21.5471  -30.8737  -37.7731 H         1 UNK         0.3055 
    106 H106       18.9138  -30.3839  -39.0020 H         1 UNK         0.1106 
    107 H107       19.1814  -30.3025  -36.5314 H         1 UNK         0.0828 
    108 H108       18.0902  -31.5968  -36.9915 H         1 UNK         0.0828 
    109 H109       19.7383  -31.9762  -36.5121 H         1 UNK         0.0828 
    110 H110       21.3696  -32.7615  -39.2992 H         1 UNK         0.2931 
    111 H111       21.5844  -34.7366  -40.2349 H         1 UNK         0.0412 
    112 H112       19.4165  -36.1853  -37.4062 H         1 UNK         0.3472 
    113 H113       20.0464  -34.5636  -37.5534 H         1 UNK         0.3472 
    114 H114       20.0300  -35.5351  -42.0359 H         1 UNK         0.0970 
    115 H115       18.9160  -34.2526  -41.6468 H         1 UNK         0.0970 
    116 H116       19.2169  -34.4610  -44.1833 H         1 UNK         0.0612 
    117 H117       20.5971  -33.9044  -45.0900 H         1 UNK         0.0612 
@<TRIPOS>BOND
     1    1    2 1    
     2    1   62 1    
     3    1   63 1    
     4    1   64 1    
     5    2    3 2    
     6    2    4 am   BACKBONE|DICT|INTERRES
     7    4    5 1    
     8    4   65 1    
     9    5    6 1    
    10    5   25 1    
    11    5   66 1    
    12    6    7 1    
    13    6   67 1    
    14    6   68 1    
    15    7    8 1    
    16    8    9 1    
    17    8   69 1    
    18    8   70 1    
    19    9   10 ar   
    20    9   14 ar   
    21   10   11 ar   
    22   10   71 1    
    23   11   12 ar   
    24   11   61 1    
    25   12   13 ar   
    26   12   72 1    
    27   13   14 ar   
    28   13   15 1    
    29   14   73 1    
    30   15   16 1    
    31   15   74 1    
    32   15   75 1    
    33   16   17 1    
    34   17   18 1    
    35   17   76 1    
    36   17   77 1    
    37   18   19 1    
    38   18   27 1    
    39   18   78 1    
    40   19   20 am   BACKBONE|DICT|INTERRES
    41   19   79 1    
    42   20   21 2    
    43   20   22 1    
    44   22   23 1    
    45   22   24 1    
    46   22   80 1    
    47   23   81 1    
    48   23   82 1    
    49   23   83 1    
    50   24   25 am   BACKBONE|DICT|INTERRES
    51   24   84 1    
    52   25   26 2    
    53   27   28 2    
    54   27   29 am   BACKBONE|DICT|INTERRES
    55   29   30 1    
    56   29   85 1    
    57   30   31 1    
    58   30   32 1    
    59   30   86 1    
    60   31   87 1    
    61   31   88 1    
    62   31   89 1    
    63   32   33 2    
    64   32   34 am   BACKBONE|DICT|INTERRES
    65   34   35 1    
    66   34   90 1    
    67   35   36 1    
    68   35   37 1    
    69   35   91 1    
    70   36   92 1    
    71   36   93 1    
    72   36   94 1    
    73   37   38 2    
    74   37   39 am   BACKBONE|DICT|INTERRES
    75   39   40 1    
    76   39   95 1    
    77   40   41 1    
    78   40   42 1    
    79   40   96 1    
    80   41   97 1    
    81   41   98 1    
    82   41   99 1    
    83   42   43 2    
    84   42   44 am   BACKBONE|DICT|INTERRES
    85   44   45 1    
    86   44  100 1    
    87   45   46 1    
    88   45   47 1    
    89   45  101 1    
    90   46  102 1    
    91   46  103 1    
    92   46  104 1    
    93   47   48 2    
    94   47   49 am   BACKBONE|DICT|INTERRES
    95   49   50 1    
    96   49  105 1    
    97   50   51 1    
    98   50   52 1    
    99   50  106 1    
   100   51  107 1    
   101   51  108 1    
   102   51  109 1    
   103   52   53 2    
   104   52   54 am   BACKBONE|DICT|INTERRES
   105   54   55 1    
   106   54  110 1    
   107   55   56 1    
   108   55   59 1    
   109   55  111 1    
   110   56   57 am   BACKBONE|DICT|INTERRES
   111   56   58 2    
   112   57  112 1    
   113   57  113 1    
   114   59   60 1    
   115   59  114 1    
   116   59  115 1    
   117   60   61 1    
   118   61  116 1    
   119   61  117 1    
@<TRIPOS>SUBSTRUCTURE
     1 UNK         1 GROUP             0       ****    0 ROOT    
