@<TRIPOS>MOLECULE
3R8
117   119    1
SMALL
USER_CHARGES


@<TRIPOS>ATOM
      1 CA         15.6966  -22.2277  -43.9865 C.3       0 UNK        -0.2013 
      2 C          16.6391  -23.4212  -44.0157 C.2       0 UNK         0.4866 
      3 O          17.5072  -23.5336  -43.1491 O.2       0 UNK        -0.5176 
      4 N          16.4819  -24.3043  -45.0123 N.am      1 UNK        -0.4884 
      5 CA         17.2348  -25.5455  -45.2621 C.3       1 UNK         0.0853 
      6 C6         17.1249  -26.5872  -44.1119 C.3       10 UNK        -0.0849 
      7 S7         15.5824  -27.5568  -44.2228 S.3       10 UNK        -0.2776 
      8 C8         15.8326  -28.8607  -42.9581 C.3       10 UNK         0.0316 
      9 C9         17.1113  -29.6900  -43.1057 C.ar      10 UNK        -0.0863 
     10 C10        17.7108  -30.2274  -41.9611 C.ar      10 UNK        -0.1009 
     11 C11        18.9142  -30.9341  -42.0479 C.ar      10 UNK        -0.0712 
     12 C12        19.5282  -31.0964  -43.2932 C.ar      10 UNK        -0.0894 
     13 C13        18.9300  -30.5888  -44.4476 C.ar      10 UNK        -0.0745 
     14 C14        17.7091  -29.9166  -44.3512 C.ar      10 UNK        -0.0972 
     15 C15        19.5972  -30.7485  -45.8036 C.3       10 UNK         0.0209 
     16 S16        20.1889  -29.1495  -46.4453 S.3       10 UNK        -0.2568 
     17 C17        21.8815  -29.0167  -45.7699 C.3       10 UNK        -0.0983 
     18 CA         22.1069  -27.8885  -44.7289 C.3       3 UNK         0.0876 
     19 N          21.4966  -26.6108  -45.1276 N.am      3 UNK        -0.4424 
     20 C          21.7744  -25.4144  -44.5917 C.2       2 UNK         0.4918 
     21 O          22.6351  -25.2504  -43.7280 O.2       2 UNK        -0.4875 
     22 CA         20.8930  -24.2219  -45.0063 C.3       2 UNK         0.0481 
     23 CB         21.3036  -23.6643  -46.3826 C.3       2 UNK        -0.1831 
     24 N          19.4511  -24.5045  -44.9197 N.am      2 UNK        -0.4498 
     25 C          18.7056  -25.3213  -45.6764 C.2       1 UNK         0.5027 
     26 O          19.1458  -25.9228  -46.6554 O.2       1 UNK        -0.4969 
     27 C          21.7609  -28.3188  -43.2831 C.2       3 UNK         0.5005 
     28 O          22.4389  -29.1900  -42.7320 O.2       3 UNK        -0.5279 
     29 N          20.7721  -27.6533  -42.6669 N.am      4 UNK        -0.4463 
     30 CA         20.4649  -27.7222  -41.2388 C.3       4 UNK         0.0283 
     31 CB         19.1324  -27.0099  -40.9614 C.3       4 UNK        -0.1875 
     32 C          21.5756  -27.1376  -40.3509 C.2       4 UNK         0.4949 
     33 O          21.7926  -27.6548  -39.2564 O.2       4 UNK        -0.5039 
     34 N          22.2805  -26.1019  -40.8344 N.am      5 UNK        -0.4663 
     35 CA         23.4193  -25.4942  -40.1349 C.3       5 UNK         0.0242 
     36 CB         23.7100  -24.1035  -40.7211 C.3       5 UNK        -0.1982 
     37 C          24.6729  -26.3825  -40.1906 C.2       5 UNK         0.5017 
     38 O          25.4568  -26.3869  -39.2415 O.2       5 UNK        -0.5012 
     39 N          24.8155  -27.1427  -41.2857 N.am      6 UNK        -0.4439 
     40 CA         25.8286  -28.1877  -41.4534 C.3       6 UNK         0.0297 
     41 CB         25.9892  -28.4949  -42.9519 C.3       6 UNK        -0.2006 
     42 C          25.4916  -29.4767  -40.6780 C.2       6 UNK         0.4892 
     43 O          26.3880  -30.2935  -40.4654 O.2       6 UNK        -0.5089 
     44 N          24.2145  -29.6372  -40.2939 N.am      7 UNK        -0.4243 
     45 CA         23.6052  -30.7991  -39.6385 C.3       7 UNK         0.0196 
     46 CB         24.1706  -30.9936  -38.2162 C.3       7 UNK        -0.2007 
     47 C          23.6907  -32.0698  -40.5047 C.2       7 UNK         0.5020 
     48 O          23.9075  -33.1638  -39.9805 O.2       7 UNK        -0.5147 
     49 N          23.5093  -31.9064  -41.8247 N.am      8 UNK        -0.4734 
     50 CA         23.6853  -32.9655  -42.8289 C.3       8 UNK         0.0238 
     51 CB         23.6142  -32.3449  -44.2317 C.3       8 UNK        -0.1912 
     52 C          22.6855  -34.1309  -42.7115 C.2       8 UNK         0.5038 
     53 O          22.9711  -35.2227  -43.2043 O.2       8 UNK        -0.5046 
     54 N          21.5431  -33.8754  -42.0648 N.am      9 UNK        -0.4200 
     55 CA         20.5088  -34.8609  -41.7351 C.3       9 UNK         0.0839 
     56 C          20.8481  -35.7705  -40.5165 C.2       9 UNK         0.5513 
     57 N          21.9268  -35.5302  -39.7778 N.am      9 UNK        -0.7519 
     58 O          20.1240  -36.7255  -40.2473 O.2       9 UNK        -0.4960 
     59 C59        19.1112  -34.1925  -41.6290 C.3       10 UNK        -0.0876 
     60 S60        18.8882  -33.0518  -40.2136 S.3       10 UNK        -0.2414 
     61 C61        19.5826  -31.4680  -40.7892 C.3       10 UNK         0.0169 
     62 H62        15.1432  -22.2113  -43.0481 H         1 UNK         0.0903 
     63 H63        16.2636  -21.3005  -44.0637 H         1 UNK         0.0903 
     64 H64        14.9765  -22.2545  -44.8040 H         1 UNK         0.0903 
     65 H65        15.7587  -24.1208  -45.6950 H         1 UNK         0.3096 
     66 H66        16.7711  -25.9834  -46.1486 H         1 UNK         0.1121 
     67 H67        17.1743  -26.1127  -43.1320 H         1 UNK         0.0849 
     68 H68        17.9629  -27.2838  -44.1420 H         1 UNK         0.0849 
     69 H69        15.8145  -28.3823  -41.9776 H         1 UNK         0.0865 
     70 H70        14.9779  -29.5376  -42.9841 H         1 UNK         0.0865 
     71 H71        17.2535  -30.0772  -40.9925 H         1 UNK         0.1346 
     72 H72        20.4755  -31.6095  -43.3651 H         1 UNK         0.1412 
     73 H73        17.2542  -29.5271  -45.2513 H         1 UNK         0.1426 
     74 H74        20.4157  -31.4685  -45.7655 H         1 UNK         0.0716 
     75 H75        18.8691  -31.1560  -46.5064 H         1 UNK         0.0716 
     76 H76        22.2061  -29.9799  -45.3801 H         1 UNK         0.0695 
     77 H77        22.5332  -28.8293  -46.6245 H         1 UNK         0.0695 
     78 H78        23.1843  -27.7110  -44.7038 H         1 UNK         0.0983 
     79 H79        20.7582  -26.6636  -45.8249 H         1 UNK         0.3095 
     80 H80        21.0727  -23.4323  -44.2749 H         1 UNK         0.0454 
     81 H81        21.2047  -24.4041  -47.1771 H         1 UNK         0.0851 
     82 H82        20.7008  -22.7980  -46.6545 H         1 UNK         0.0851 
     83 H83        22.3459  -23.3429  -46.3730 H         1 UNK         0.0851 
     84 H84        18.9621  -24.0627  -44.1419 H         1 UNK         0.2976 
     85 H85        20.2660  -26.9700  -43.2077 H         1 UNK         0.3116 
     86 H86        20.3584  -28.7721  -40.9704 H         1 UNK         0.0646 
     87 H87        18.8844  -27.0471  -39.8997 H         1 UNK         0.0847 
     88 H88        18.3114  -27.4842  -41.4954 H         1 UNK         0.0847 
     89 H89        19.1626  -25.9589  -41.2523 H         1 UNK         0.0847 
     90 H90        22.0773  -25.7460  -41.7614 H         1 UNK         0.3040 
     91 H91        23.1504  -25.3692  -39.0832 H         1 UNK         0.1015 
     92 H92        22.8300  -23.4615  -40.6784 H         1 UNK         0.0786 
     93 H93        24.0360  -24.1589  -41.7601 H         1 UNK         0.0786 
     94 H94        24.5020  -23.6049  -40.1605 H         1 UNK         0.0786 
     95 H95        24.1269  -27.0488  -42.0181 H         1 UNK         0.3172 
     96 H96        26.7824  -27.8123  -41.0764 H         1 UNK         0.0595 
     97 H97        26.7844  -29.2237  -43.1150 H         1 UNK         0.0839 
     98 H98        26.2513  -27.6003  -43.5171 H         1 UNK         0.0839 
     99 H99        25.0780  -28.9118  -43.3815 H         1 UNK         0.0839 
    100 H100       23.5646  -28.9091  -40.5565 H         1 UNK         0.2998 
    101 H101       22.5436  -30.5677  -39.5401 H         1 UNK         0.0822 
    102 H102       24.0859  -30.0790  -37.6291 H         1 UNK         0.0787 
    103 H103       23.6249  -31.7726  -37.6824 H         1 UNK         0.0787 
    104 H104       25.2208  -31.2866  -38.2331 H         1 UNK         0.0787 
    105 H105       23.2990  -30.9733  -42.1696 H         1 UNK         0.3055 
    106 H106       24.6841  -33.3849  -42.6888 H         1 UNK         0.1106 
    107 H107       23.8713  -33.0800  -44.9957 H         1 UNK         0.0828 
    108 H108       22.6104  -31.9869  -44.4541 H         1 UNK         0.0828 
    109 H109       24.3066  -31.5096  -44.3390 H         1 UNK         0.0828 
    110 H110       21.4257  -32.9616  -41.6586 H         1 UNK         0.2931 
    111 H111       20.4487  -35.5442  -42.5846 H         1 UNK         0.0412 
    112 H112       22.1309  -36.1349  -38.9980 H         1 UNK         0.3472 
    113 H113       22.5394  -34.7487  -39.9794 H         1 UNK         0.3472 
    114 H114       18.8711  -33.6764  -42.5583 H         1 UNK         0.0970 
    115 H115       18.3477  -34.9674  -41.5407 H         1 UNK         0.0970 
    116 H116       20.6566  -31.5630  -40.9384 H         1 UNK         0.0612 
    117 H117       19.4637  -30.7414  -39.9842 H         1 UNK         0.0612 
@<TRIPOS>BOND
     1    1    2 1    
     2    1   62 1    
     3    1   63 1    
     4    1   64 1    
     5    2    3 2    
     6    2    4 am   BACKBONE|DICT|INTERRES
     7    4    5 1    
     8    4   65 1    
     9    5    6 1    
    10    5   25 1    
    11    5   66 1    
    12    6    7 1    
    13    6   67 1    
    14    6   68 1    
    15    7    8 1    
    16    8    9 1    
    17    8   69 1    
    18    8   70 1    
    19    9   10 ar   
    20    9   14 ar   
    21   10   11 ar   
    22   10   71 1    
    23   11   12 ar   
    24   11   61 1    
    25   12   13 ar   
    26   12   72 1    
    27   13   14 ar   
    28   13   15 1    
    29   14   73 1    
    30   15   16 1    
    31   15   74 1    
    32   15   75 1    
    33   16   17 1    
    34   17   18 1    
    35   17   76 1    
    36   17   77 1    
    37   18   19 1    
    38   18   27 1    
    39   18   78 1    
    40   19   20 am   BACKBONE|DICT|INTERRES
    41   19   79 1    
    42   20   21 2    
    43   20   22 1    
    44   22   23 1    
    45   22   24 1    
    46   22   80 1    
    47   23   81 1    
    48   23   82 1    
    49   23   83 1    
    50   24   25 am   BACKBONE|DICT|INTERRES
    51   24   84 1    
    52   25   26 2    
    53   27   28 2    
    54   27   29 am   BACKBONE|DICT|INTERRES
    55   29   30 1    
    56   29   85 1    
    57   30   31 1    
    58   30   32 1    
    59   30   86 1    
    60   31   87 1    
    61   31   88 1    
    62   31   89 1    
    63   32   33 2    
    64   32   34 am   BACKBONE|DICT|INTERRES
    65   34   35 1    
    66   34   90 1    
    67   35   36 1    
    68   35   37 1    
    69   35   91 1    
    70   36   92 1    
    71   36   93 1    
    72   36   94 1    
    73   37   38 2    
    74   37   39 am   BACKBONE|DICT|INTERRES
    75   39   40 1    
    76   39   95 1    
    77   40   41 1    
    78   40   42 1    
    79   40   96 1    
    80   41   97 1    
    81   41   98 1    
    82   41   99 1    
    83   42   43 2    
    84   42   44 am   BACKBONE|DICT|INTERRES
    85   44   45 1    
    86   44  100 1    
    87   45   46 1    
    88   45   47 1    
    89   45  101 1    
    90   46  102 1    
    91   46  103 1    
    92   46  104 1    
    93   47   48 2    
    94   47   49 am   BACKBONE|DICT|INTERRES
    95   49   50 1    
    96   49  105 1    
    97   50   51 1    
    98   50   52 1    
    99   50  106 1    
   100   51  107 1    
   101   51  108 1    
   102   51  109 1    
   103   52   53 2    
   104   52   54 am   BACKBONE|DICT|INTERRES
   105   54   55 1    
   106   54  110 1    
   107   55   56 1    
   108   55   59 1    
   109   55  111 1    
   110   56   57 am   BACKBONE|DICT|INTERRES
   111   56   58 2    
   112   57  112 1    
   113   57  113 1    
   114   59   60 1    
   115   59  114 1    
   116   59  115 1    
   117   60   61 1    
   118   61  116 1    
   119   61  117 1    
@<TRIPOS>SUBSTRUCTURE
     1 UNK         1 GROUP             0       ****    0 ROOT    
