@<TRIPOS>MOLECULE
3R8
117   119    1
SMALL
USER_CHARGES


@<TRIPOS>ATOM
      1 CA         12.8275  -22.1127  -44.4547 C.3       0 UNK        -0.2013 
      2 C          13.9478  -22.8306  -45.1926 C.2       0 UNK         0.4866 
      3 O          14.5778  -22.2416  -46.0717 O.2       0 UNK        -0.5176 
      4 N          14.1967  -24.1006  -44.8486 N.am      1 UNK        -0.4884 
      5 CA         15.2807  -24.9173  -45.4022 C.3       1 UNK         0.0853 
      6 C6         15.0374  -26.4220  -45.1232 C.3       10 UNK        -0.0849 
      7 S7         15.9199  -27.5133  -46.2891 S.3       10 UNK        -0.2776 
      8 C8         15.7459  -29.1346  -45.4713 C.3       10 UNK         0.0316 
      9 C9         16.9143  -29.4225  -44.5385 C.ar      10 UNK        -0.0863 
     10 C10        18.0176  -30.1501  -44.9968 C.ar      10 UNK        -0.1009 
     11 C11        19.1091  -30.3959  -44.1566 C.ar      10 UNK        -0.0712 
     12 C12        19.0889  -29.9093  -42.8463 C.ar      10 UNK        -0.0894 
     13 C13        17.9966  -29.1703  -42.3818 C.ar      10 UNK        -0.0745 
     14 C14        16.9034  -28.9510  -43.2234 C.ar      10 UNK        -0.0972 
     15 C15        18.0186  -28.5480  -40.9952 C.3       10 UNK         0.0209 
     16 S16        18.4429  -26.7770  -41.0882 S.3       10 UNK        -0.2568 
     17 C17        20.1938  -26.8501  -41.5918 C.3       10 UNK        -0.0983 
     18 CA         20.4087  -26.7201  -43.1210 C.3       3 UNK         0.0876 
     19 N          19.8851  -25.4642  -43.6676 N.am      3 UNK        -0.4424 
     20 C          19.7331  -25.2234  -44.9761 C.2       2 UNK         0.4918 
     21 O          20.0935  -25.9927  -45.8686 O.2       2 UNK        -0.4875 
     22 CA         19.0047  -23.9266  -45.3539 C.3       2 UNK         0.0481 
     23 CB         19.6919  -23.2101  -46.5295 C.3       2 UNK        -0.1831 
     24 N          17.6270  -24.2504  -45.7200 N.am      2 UNK        -0.4498 
     25 C          16.6377  -24.4454  -44.8388 C.2       1 UNK         0.5027 
     26 O          16.7616  -24.2763  -43.6227 O.2       1 UNK        -0.4969 
     27 C          21.8887  -26.9779  -43.4614 C.2       3 UNK         0.5005 
     28 O          22.2623  -28.1369  -43.6463 O.2       3 UNK        -0.5279 
     29 N          22.6975  -25.9062  -43.5206 N.am      4 UNK        -0.4463 
     30 CA         24.1513  -25.9144  -43.7257 C.3       4 UNK         0.0283 
     31 CB         24.4978  -26.3328  -45.1733 C.3       4 UNK        -0.1875 
     32 C          24.8519  -26.7500  -42.6358 C.2       4 UNK         0.4949 
     33 O          24.8176  -26.3566  -41.4680 O.2       4 UNK        -0.5039 
     34 N          25.4314  -27.8987  -43.0078 N.am      5 UNK        -0.4663 
     35 CA         26.0038  -28.8924  -42.0971 C.3       5 UNK         0.0242 
     36 CB         26.9842  -29.7829  -42.8829 C.3       5 UNK        -0.1982 
     37 C          24.8969  -29.7083  -41.3999 C.2       5 UNK         0.5017 
     38 O          24.7616  -30.9084  -41.6465 O.2       5 UNK        -0.5012 
     39 N          24.1190  -29.0378  -40.5391 N.am      6 UNK        -0.4439 
     40 CA         22.9671  -29.5823  -39.8101 C.3       6 UNK         0.0297 
     41 CB         22.3712  -28.4858  -38.9123 C.3       6 UNK        -0.2006 
     42 C          23.2876  -30.8323  -38.9717 C.2       6 UNK         0.4892 
     43 O          22.4691  -31.7498  -38.9178 O.2       6 UNK        -0.5089 
     44 N          24.4841  -30.8572  -38.3675 N.am      7 UNK        -0.4243 
     45 CA         25.0029  -31.9804  -37.5832 C.3       7 UNK         0.0196 
     46 CB         26.2573  -31.5261  -36.8194 C.3       7 UNK        -0.2007 
     47 C          25.3109  -33.2314  -38.4259 C.2       7 UNK         0.5020 
     48 O          25.2348  -34.3404  -37.8966 O.2       7 UNK        -0.5147 
     49 N          25.6502  -33.0424  -39.7089 N.am      8 UNK        -0.4734 
     50 CA         25.8560  -34.1293  -40.6682 C.3       8 UNK         0.0238 
     51 CB         26.8468  -33.6838  -41.7567 C.3       8 UNK        -0.1912 
     52 C          24.5261  -34.5781  -41.2919 C.2       8 UNK         0.5038 
     53 O          24.3358  -35.7769  -41.5008 O.2       8 UNK        -0.5046 
     54 N          23.6387  -33.6136  -41.5741 N.am      9 UNK        -0.4200 
     55 CA         22.2881  -33.8450  -42.1042 C.3       9 UNK         0.0839 
     56 C          21.3575  -34.6037  -41.1170 C.2       9 UNK         0.5513 
     57 N          21.3458  -34.2448  -39.8391 N.am      9 UNK        -0.7519 
     58 O          20.6541  -35.5310  -41.5094 O.2       9 UNK        -0.4960 
     59 C59        21.6423  -32.5246  -42.6015 C.3       10 UNK        -0.0876 
     60 S60        20.4774  -32.8080  -43.9787 S.3       10 UNK        -0.2414 
     61 C61        20.3293  -31.1373  -44.6855 C.3       10 UNK         0.0169 
     62 H62        12.3485  -22.7544  -43.7153 H         1 UNK         0.0903 
     63 H63        13.2195  -21.2361  -43.9396 H         1 UNK         0.0903 
     64 H64        12.0657  -21.7814  -45.1599 H         1 UNK         0.0903 
     65 H65        13.6720  -24.5203  -44.0940 H         1 UNK         0.3096 
     66 H66        15.2770  -24.7636  -46.4842 H         1 UNK         0.1121 
     67 H67        15.2965  -26.6738  -44.0945 H         1 UNK         0.0849 
     68 H68        13.9756  -26.6522  -45.2273 H         1 UNK         0.0849 
     69 H69        14.8018  -29.1837  -44.9263 H         1 UNK         0.0865 
     70 H70        15.6875  -29.9075  -46.2393 H         1 UNK         0.0865 
     71 H71        18.0341  -30.5094  -46.0168 H         1 UNK         0.1346 
     72 H72        19.9442  -30.0639  -42.2048 H         1 UNK         0.1412 
     73 H73        16.0608  -28.3813  -42.8584 H         1 UNK         0.1426 
     74 H74        18.7243  -29.0658  -40.3434 H         1 UNK         0.0716 
     75 H75        17.0372  -28.6542  -40.5306 H         1 UNK         0.0716 
     76 H76        20.6117  -27.7906  -41.2296 H         1 UNK         0.0695 
     77 H77        20.7288  -26.0587  -41.0637 H         1 UNK         0.0695 
     78 H78        19.8484  -27.5117  -43.6175 H         1 UNK         0.0983 
     79 H79        19.4960  -24.8126  -43.0006 H         1 UNK         0.3095 
     80 H80        19.0096  -23.2466  -44.4990 H         1 UNK         0.0454 
     81 H81        20.7285  -22.9725  -46.2872 H         1 UNK         0.0851 
     82 H82        19.1918  -22.2711  -46.7669 H         1 UNK         0.0851 
     83 H83        19.7013  -23.8213  -47.4330 H         1 UNK         0.0851 
     84 H84        17.4585  -24.4495  -46.6959 H         1 UNK         0.2976 
     85 H85        22.2885  -25.0032  -43.3250 H         1 UNK         0.3116 
     86 H86        24.4929  -24.8872  -43.5893 H         1 UNK         0.0646 
     87 H87        24.0436  -25.6513  -45.8927 H         1 UNK         0.0847 
     88 H88        24.1482  -27.3373  -45.4139 H         1 UNK         0.0847 
     89 H89        25.5747  -26.3041  -45.3449 H         1 UNK         0.0847 
     90 H90        25.3527  -28.1730  -43.9765 H         1 UNK         0.3040 
     91 H91        26.5720  -28.3764  -41.3198 H         1 UNK         0.1015 
     92 H92        27.4593  -30.5127  -42.2261 H         1 UNK         0.0786 
     93 H93        27.7806  -29.1923  -43.3362 H         1 UNK         0.0786 
     94 H94        26.4825  -30.3363  -43.6779 H         1 UNK         0.0786 
     95 H95        24.2839  -28.0389  -40.4611 H         1 UNK         0.3172 
     96 H96        22.2204  -29.8626  -40.5558 H         1 UNK         0.0595 
     97 H97        21.4393  -28.8215  -38.4550 H         1 UNK         0.0839 
     98 H98        22.1497  -27.5788  -39.4732 H         1 UNK         0.0839 
     99 H99        23.0505  -28.2123  -38.1038 H         1 UNK         0.0839 
    100 H100       25.0872  -30.0541  -38.4711 H         1 UNK         0.2998 
    101 H101       24.2396  -32.2594  -36.8534 H         1 UNK         0.0822 
    102 H102       26.0368  -30.6914  -36.1536 H         1 UNK         0.0787 
    103 H103       26.6520  -32.3346  -36.2023 H         1 UNK         0.0787 
    104 H104       27.0534  -31.2157  -37.4975 H         1 UNK         0.0787 
    105 H105       25.6360  -32.1029  -40.0858 H         1 UNK         0.3055 
    106 H106       26.2891  -34.9892  -40.1516 H         1 UNK         0.1106 
    107 H107       27.7969  -33.3692  -41.3247 H         1 UNK         0.0828 
    108 H108       27.0594  -34.5030  -42.4447 H         1 UNK         0.0828 
    109 H109       26.4572  -32.8569  -42.3507 H         1 UNK         0.0828 
    110 H110       23.9067  -32.6485  -41.4128 H         1 UNK         0.2931 
    111 H111       22.4273  -34.4939  -42.9717 H         1 UNK         0.0412 
    112 H112       21.8766  -33.4384  -39.5199 H         1 UNK         0.3472 
    113 H113       20.7514  -34.7391  -39.1933 H         1 UNK         0.3472 
    114 H114       22.4182  -31.8472  -42.9628 H         1 UNK         0.0970 
    115 H115       21.1412  -31.9970  -41.7885 H         1 UNK         0.0970 
    116 H116       20.2706  -31.2325  -45.7707 H         1 UNK         0.0612 
    117 H117       21.2294  -30.5546  -44.4864 H         1 UNK         0.0612 
@<TRIPOS>BOND
     1    1    2 1    
     2    1   62 1    
     3    1   63 1    
     4    1   64 1    
     5    2    3 2    
     6    2    4 am   BACKBONE|DICT|INTERRES
     7    4    5 1    
     8    4   65 1    
     9    5    6 1    
    10    5   25 1    
    11    5   66 1    
    12    6    7 1    
    13    6   67 1    
    14    6   68 1    
    15    7    8 1    
    16    8    9 1    
    17    8   69 1    
    18    8   70 1    
    19    9   10 ar   
    20    9   14 ar   
    21   10   11 ar   
    22   10   71 1    
    23   11   12 ar   
    24   11   61 1    
    25   12   13 ar   
    26   12   72 1    
    27   13   14 ar   
    28   13   15 1    
    29   14   73 1    
    30   15   16 1    
    31   15   74 1    
    32   15   75 1    
    33   16   17 1    
    34   17   18 1    
    35   17   76 1    
    36   17   77 1    
    37   18   19 1    
    38   18   27 1    
    39   18   78 1    
    40   19   20 am   BACKBONE|DICT|INTERRES
    41   19   79 1    
    42   20   21 2    
    43   20   22 1    
    44   22   23 1    
    45   22   24 1    
    46   22   80 1    
    47   23   81 1    
    48   23   82 1    
    49   23   83 1    
    50   24   25 am   BACKBONE|DICT|INTERRES
    51   24   84 1    
    52   25   26 2    
    53   27   28 2    
    54   27   29 am   BACKBONE|DICT|INTERRES
    55   29   30 1    
    56   29   85 1    
    57   30   31 1    
    58   30   32 1    
    59   30   86 1    
    60   31   87 1    
    61   31   88 1    
    62   31   89 1    
    63   32   33 2    
    64   32   34 am   BACKBONE|DICT|INTERRES
    65   34   35 1    
    66   34   90 1    
    67   35   36 1    
    68   35   37 1    
    69   35   91 1    
    70   36   92 1    
    71   36   93 1    
    72   36   94 1    
    73   37   38 2    
    74   37   39 am   BACKBONE|DICT|INTERRES
    75   39   40 1    
    76   39   95 1    
    77   40   41 1    
    78   40   42 1    
    79   40   96 1    
    80   41   97 1    
    81   41   98 1    
    82   41   99 1    
    83   42   43 2    
    84   42   44 am   BACKBONE|DICT|INTERRES
    85   44   45 1    
    86   44  100 1    
    87   45   46 1    
    88   45   47 1    
    89   45  101 1    
    90   46  102 1    
    91   46  103 1    
    92   46  104 1    
    93   47   48 2    
    94   47   49 am   BACKBONE|DICT|INTERRES
    95   49   50 1    
    96   49  105 1    
    97   50   51 1    
    98   50   52 1    
    99   50  106 1    
   100   51  107 1    
   101   51  108 1    
   102   51  109 1    
   103   52   53 2    
   104   52   54 am   BACKBONE|DICT|INTERRES
   105   54   55 1    
   106   54  110 1    
   107   55   56 1    
   108   55   59 1    
   109   55  111 1    
   110   56   57 am   BACKBONE|DICT|INTERRES
   111   56   58 2    
   112   57  112 1    
   113   57  113 1    
   114   59   60 1    
   115   59  114 1    
   116   59  115 1    
   117   60   61 1    
   118   61  116 1    
   119   61  117 1    
@<TRIPOS>SUBSTRUCTURE
     1 UNK         1 GROUP             0       ****    0 ROOT    
