@<TRIPOS>MOLECULE
3R8
117   119    1
SMALL
USER_CHARGES


@<TRIPOS>ATOM
      1 CA         16.8313  -25.3576  -39.1526 C.3       0 UNK        -0.2013 
      2 C          16.7362  -25.5337  -40.6607 C.2       0 UNK         0.4866 
      3 O          16.9822  -24.5841  -41.4043 O.2       0 UNK        -0.5176 
      4 N          16.3805  -26.7421  -41.1183 N.am      1 UNK        -0.4884 
      5 CA         16.2551  -27.0930  -42.5408 C.3       1 UNK         0.0853 
      6 C6         15.4101  -28.3823  -42.7216 C.3       10 UNK        -0.0849 
      7 S7         14.5499  -28.4377  -44.3300 S.3       10 UNK        -0.2776 
      8 C8         14.9676  -30.1051  -44.9391 C.3       10 UNK         0.0316 
      9 C9         16.4077  -30.2278  -45.4256 C.ar      10 UNK        -0.0863 
     10 C10        17.2852  -31.1311  -44.8177 C.ar      10 UNK        -0.1009 
     11 C11        18.5857  -31.2999  -45.3056 C.ar      10 UNK        -0.0712 
     12 C12        19.0113  -30.5472  -46.4061 C.ar      10 UNK        -0.0894 
     13 C13        18.1403  -29.6483  -47.0300 C.ar      10 UNK        -0.0745 
     14 C14        16.8425  -29.4923  -46.5325 C.ar      10 UNK        -0.0972 
     15 C15        18.5638  -28.8959  -48.2844 C.3       10 UNK         0.0209 
     16 S16        19.1026  -27.1933  -47.9309 S.3       10 UNK        -0.2568 
     17 C17        20.8942  -27.3969  -47.6535 C.3       10 UNK        -0.0983 
     18 CA         21.3605  -26.7493  -46.3249 C.3       3 UNK         0.0876 
     19 N          20.7840  -27.4363  -45.1670 N.am      3 UNK        -0.4424 
     20 C          20.6361  -26.9210  -43.9419 C.2       2 UNK         0.4918 
     21 O          20.9808  -25.7804  -43.6254 O.2       2 UNK        -0.4875 
     22 CA         20.0368  -27.8636  -42.8848 C.3       2 UNK         0.0481 
     23 CB         20.9365  -27.9187  -41.6368 C.3       2 UNK        -0.1831 
     24 N          18.6700  -27.5377  -42.4701 N.am      2 UNK        -0.4498 
     25 C          17.6233  -27.2148  -43.2484 C.2       1 UNK         0.5027 
     26 O          17.6875  -27.0238  -44.4614 O.2       1 UNK        -0.4969 
     27 C          22.8998  -26.6989  -46.2082 C.2       3 UNK         0.5005 
     28 O          23.5977  -27.3951  -46.9482 O.2       3 UNK        -0.5279 
     29 N          23.3943  -25.9029  -45.2464 N.am      4 UNK        -0.4463 
     30 CA         24.8059  -25.7112  -44.8772 C.3       4 UNK         0.0283 
     31 CB         25.5929  -25.0426  -46.0246 C.3       4 UNK        -0.1875 
     32 C          25.4868  -26.9964  -44.3593 C.2       4 UNK         0.4949 
     33 O          26.7031  -27.1437  -44.4808 O.2       4 UNK        -0.5039 
     34 N          24.6898  -27.8980  -43.7705 N.am      5 UNK        -0.4663 
     35 CA         25.1105  -29.2150  -43.2821 C.3       5 UNK         0.0242 
     36 CB         23.9511  -30.2069  -43.4892 C.3       5 UNK        -0.1982 
     37 C          25.5793  -29.2052  -41.8144 C.2       5 UNK         0.5017 
     38 O          25.7006  -30.2768  -41.2230 O.2       5 UNK        -0.5012 
     39 N          25.7974  -28.0148  -41.2328 N.am      6 UNK        -0.4439 
     40 CA         26.2302  -27.7755  -39.8463 C.3       6 UNK         0.0297 
     41 CB         27.6915  -28.2321  -39.6480 C.3       6 UNK        -0.2006 
     42 C          25.2683  -28.3784  -38.8001 C.2       6 UNK         0.4892 
     43 O          25.7137  -28.9436  -37.8002 O.2       6 UNK        -0.5089 
     44 N          23.9615  -28.2571  -39.0797 N.am      7 UNK        -0.4243 
     45 CA         22.8200  -28.7604  -38.3036 C.3       7 UNK         0.0196 
     46 CB         22.7830  -28.1359  -36.8921 C.3       7 UNK        -0.2007 
     47 C          22.6846  -30.2974  -38.2629 C.2       7 UNK         0.5020 
     48 O          21.8446  -30.7968  -37.5125 O.2       7 UNK        -0.5147 
     49 N          23.4486  -31.0337  -39.0877 N.am      8 UNK        -0.4734 
     50 CA         23.4084  -32.5031  -39.1657 C.3       8 UNK         0.0238 
     51 CB         24.5569  -33.0068  -40.0534 C.3       8 UNK        -0.1912 
     52 C          22.0653  -33.0745  -39.6582 C.2       8 UNK         0.5038 
     53 O          21.7572  -34.2287  -39.3579 O.2       8 UNK        -0.5046 
     54 N          21.2906  -32.2567  -40.3820 N.am      9 UNK        -0.4200 
     55 CA         19.9141  -32.5501  -40.8077 C.3       9 UNK         0.0839 
     56 C          18.8718  -32.5492  -39.6494 C.2       9 UNK         0.5513 
     57 N          19.1948  -32.0733  -38.4513 N.am      9 UNK        -0.7519 
     58 O          17.7433  -32.9918  -39.8459 O.2       9 UNK        -0.4960 
     59 C59        19.4537  -31.6111  -41.9533 C.3       10 UNK        -0.0876 
     60 S60        20.5754  -31.6430  -43.3949 S.3       10 UNK        -0.2414 
     61 C61        19.5109  -32.3429  -44.6914 C.3       10 UNK         0.0169 
     62 H62        16.1459  -24.5775  -38.8224 H         1 UNK         0.0903 
     63 H63        16.5843  -26.2741  -38.6170 H         1 UNK         0.0903 
     64 H64        17.8424  -25.0632  -38.8724 H         1 UNK         0.0903 
     65 H65        16.1729  -27.4799  -40.4592 H         1 UNK         0.3096 
     66 H66        15.7266  -26.2672  -43.0238 H         1 UNK         0.1121 
     67 H67        14.6293  -28.4287  -41.9605 H         1 UNK         0.0849 
     68 H68        16.0152  -29.2797  -42.5762 H         1 UNK         0.0849 
     69 H69        14.7516  -30.8366  -44.1588 H         1 UNK         0.0865 
     70 H70        14.3013  -30.3468  -45.7684 H         1 UNK         0.0865 
     71 H71        16.9425  -31.7287  -43.9850 H         1 UNK         0.1346 
     72 H72        20.0092  -30.6893  -46.7984 H         1 UNK         0.1412 
     73 H73        16.1624  -28.8045  -47.0166 H         1 UNK         0.1426 
     74 H74        17.7189  -28.8494  -48.9731 H         1 UNK         0.0716 
     75 H75        19.3471  -29.4370  -48.8173 H         1 UNK         0.0716 
     76 H76        21.4019  -26.9355  -48.5028 H         1 UNK         0.0695 
     77 H77        21.1615  -28.4548  -47.6779 H         1 UNK         0.0695 
     78 H78        21.0096  -25.7145  -46.3221 H         1 UNK         0.0983 
     79 H79        20.4349  -28.3672  -45.3420 H         1 UNK         0.3095 
     80 H80        19.9950  -28.8626  -43.3166 H         1 UNK         0.0454 
     81 H81        20.6040  -28.6819  -40.9346 H         1 UNK         0.0851 
     82 H82        20.9474  -26.9635  -41.1099 H         1 UNK         0.0851 
     83 H83        21.9670  -28.1509  -41.9030 H         1 UNK         0.0851 
     84 H84        18.4827  -27.6108  -41.4815 H         1 UNK         0.2976 
     85 H85        22.7162  -25.4304  -44.6548 H         1 UNK         0.3116 
     86 H86        24.8039  -25.0164  -44.0362 H         1 UNK         0.0646 
     87 H87        25.7032  -25.7069  -46.8821 H         1 UNK         0.0847 
     88 H88        25.1012  -24.1319  -46.3662 H         1 UNK         0.0847 
     89 H89        26.5965  -24.7638  -45.7011 H         1 UNK         0.0847 
     90 H90        23.7056  -27.6854  -43.7120 H         1 UNK         0.3040 
     91 H91        25.9572  -29.5626  -43.8785 H         1 UNK         0.1015 
     92 H92        24.2616  -31.2278  -43.2628 H         1 UNK         0.0786 
     93 H93        23.6016  -30.2032  -44.5220 H         1 UNK         0.0786 
     94 H94        23.1013  -29.9799  -42.8467 H         1 UNK         0.0786 
     95 H95        25.6676  -27.1930  -41.8059 H         1 UNK         0.3172 
     96 H96        26.2009  -26.6952  -39.6969 H         1 UNK         0.0595 
     97 H97        28.3537  -27.7757  -40.3837 H         1 UNK         0.0839 
     98 H98        27.7925  -29.3147  -39.7319 H         1 UNK         0.0839 
     99 H99        28.0604  -27.9476  -38.6617 H         1 UNK         0.0839 
    100 H100       23.7236  -27.7748  -39.9345 H         1 UNK         0.2998 
    101 H101       21.9315  -28.4072  -38.8276 H         1 UNK         0.0822 
    102 H102       21.8483  -28.3736  -36.3826 H         1 UNK         0.0787 
    103 H103       23.5940  -28.5035  -36.2628 H         1 UNK         0.0787 
    104 H104       22.8572  -27.0494  -36.9359 H         1 UNK         0.0787 
    105 H105       24.1377  -30.5700  -39.6688 H         1 UNK         0.3055 
    106 H106       23.5654  -32.8882  -38.1557 H         1 UNK         0.1106 
    107 H107       25.5238  -32.6575  -39.6906 H         1 UNK         0.0828 
    108 H108       24.5914  -34.0970  -40.0668 H         1 UNK         0.0828 
    109 H109       24.4441  -32.6730  -41.0854 H         1 UNK         0.0828 
    110 H110       21.6395  -31.3358  -40.5948 H         1 UNK         0.2931 
    111 H111       19.9158  -33.5665  -41.2063 H         1 UNK         0.0412 
    112 H112       18.5040  -32.0864  -37.7178 H         1 UNK         0.3472 
    113 H113       20.1215  -31.7115  -38.2592 H         1 UNK         0.3472 
    114 H114       19.3766  -30.5840  -41.5977 H         1 UNK         0.0970 
    115 H115       18.4486  -31.8851  -42.2735 H         1 UNK         0.0970 
    116 H116       18.9371  -33.1788  -44.2879 H         1 UNK         0.0612 
    117 H117       20.1489  -32.7661  -45.4687 H         1 UNK         0.0612 
@<TRIPOS>BOND
     1    1    2 1    
     2    1   62 1    
     3    1   63 1    
     4    1   64 1    
     5    2    3 2    
     6    2    4 am   BACKBONE|DICT|INTERRES
     7    4    5 1    
     8    4   65 1    
     9    5    6 1    
    10    5   25 1    
    11    5   66 1    
    12    6    7 1    
    13    6   67 1    
    14    6   68 1    
    15    7    8 1    
    16    8    9 1    
    17    8   69 1    
    18    8   70 1    
    19    9   10 ar   
    20    9   14 ar   
    21   10   11 ar   
    22   10   71 1    
    23   11   12 ar   
    24   11   61 1    
    25   12   13 ar   
    26   12   72 1    
    27   13   14 ar   
    28   13   15 1    
    29   14   73 1    
    30   15   16 1    
    31   15   74 1    
    32   15   75 1    
    33   16   17 1    
    34   17   18 1    
    35   17   76 1    
    36   17   77 1    
    37   18   19 1    
    38   18   27 1    
    39   18   78 1    
    40   19   20 am   BACKBONE|DICT|INTERRES
    41   19   79 1    
    42   20   21 2    
    43   20   22 1    
    44   22   23 1    
    45   22   24 1    
    46   22   80 1    
    47   23   81 1    
    48   23   82 1    
    49   23   83 1    
    50   24   25 am   BACKBONE|DICT|INTERRES
    51   24   84 1    
    52   25   26 2    
    53   27   28 2    
    54   27   29 am   BACKBONE|DICT|INTERRES
    55   29   30 1    
    56   29   85 1    
    57   30   31 1    
    58   30   32 1    
    59   30   86 1    
    60   31   87 1    
    61   31   88 1    
    62   31   89 1    
    63   32   33 2    
    64   32   34 am   BACKBONE|DICT|INTERRES
    65   34   35 1    
    66   34   90 1    
    67   35   36 1    
    68   35   37 1    
    69   35   91 1    
    70   36   92 1    
    71   36   93 1    
    72   36   94 1    
    73   37   38 2    
    74   37   39 am   BACKBONE|DICT|INTERRES
    75   39   40 1    
    76   39   95 1    
    77   40   41 1    
    78   40   42 1    
    79   40   96 1    
    80   41   97 1    
    81   41   98 1    
    82   41   99 1    
    83   42   43 2    
    84   42   44 am   BACKBONE|DICT|INTERRES
    85   44   45 1    
    86   44  100 1    
    87   45   46 1    
    88   45   47 1    
    89   45  101 1    
    90   46  102 1    
    91   46  103 1    
    92   46  104 1    
    93   47   48 2    
    94   47   49 am   BACKBONE|DICT|INTERRES
    95   49   50 1    
    96   49  105 1    
    97   50   51 1    
    98   50   52 1    
    99   50  106 1    
   100   51  107 1    
   101   51  108 1    
   102   51  109 1    
   103   52   53 2    
   104   52   54 am   BACKBONE|DICT|INTERRES
   105   54   55 1    
   106   54  110 1    
   107   55   56 1    
   108   55   59 1    
   109   55  111 1    
   110   56   57 am   BACKBONE|DICT|INTERRES
   111   56   58 2    
   112   57  112 1    
   113   57  113 1    
   114   59   60 1    
   115   59  114 1    
   116   59  115 1    
   117   60   61 1    
   118   61  116 1    
   119   61  117 1    
@<TRIPOS>SUBSTRUCTURE
     1 UNK         1 GROUP             0       ****    0 ROOT    
