@<TRIPOS>MOLECULE
3R8
117   119    1
SMALL
USER_CHARGES


@<TRIPOS>ATOM
      1 CA         13.6546  -22.8398  -47.9749 C.3       0 UNK        -0.2013 
      2 C          14.7711  -23.6407  -47.3216 C.2       0 UNK         0.4866 
      3 O          15.9196  -23.5589  -47.7582 O.2       0 UNK        -0.5176 
      4 N          14.4434  -24.4210  -46.2836 N.am      1 UNK        -0.4884 
      5 CA         15.3981  -25.2041  -45.4937 C.3       1 UNK         0.0853 
      6 C6         14.6704  -26.3348  -44.7058 C.3       10 UNK        -0.0849 
      7 S7         15.5569  -27.1095  -43.3018 S.3       10 UNK        -0.2776 
      8 C8         16.8519  -28.0767  -44.1492 C.3       10 UNK         0.0316 
      9 C9         17.6615  -28.9705  -43.2094 C.ar      10 UNK        -0.0863 
     10 C10        18.0668  -30.2347  -43.6525 C.ar      10 UNK        -0.1009 
     11 C11        18.8163  -31.0757  -42.8251 C.ar      10 UNK        -0.0712 
     12 C12        19.1581  -30.6489  -41.5401 C.ar      10 UNK        -0.0894 
     13 C13        18.7801  -29.3830  -41.0866 C.ar      10 UNK        -0.0745 
     14 C14        18.0364  -28.5465  -41.9259 C.ar      10 UNK        -0.0972 
     15 C15        19.1690  -28.9382  -39.6837 C.3       10 UNK         0.0209 
     16 S16        20.8481  -28.2325  -39.6374 S.3       10 UNK        -0.2568 
     17 C17        20.5530  -26.5023  -40.1314 C.3       10 UNK        -0.0983 
     18 CA         20.8180  -26.2529  -41.6395 C.3       3 UNK         0.0876 
     19 N          19.9653  -25.1684  -42.1410 N.am      3 UNK        -0.4424 
     20 C          19.5212  -25.0597  -43.3963 C.2       2 UNK         0.4918 
     21 O          19.8702  -25.8108  -44.3113 O.2       2 UNK        -0.4875 
     22 CA         18.5337  -23.9283  -43.6913 C.3       2 UNK         0.0481 
     23 CB         19.2434  -22.7181  -44.3192 C.3       2 UNK        -0.1831 
     24 N          17.5601  -24.4774  -44.6235 N.am      2 UNK        -0.4498 
     25 C          16.2417  -24.2642  -44.6048 C.2       1 UNK         0.5027 
     26 O          15.6853  -23.4108  -43.9084 O.2       1 UNK        -0.4969 
     27 C          22.3103  -26.0406  -41.9947 C.2       3 UNK         0.5005 
     28 O          23.1868  -26.1905  -41.1410 O.2       3 UNK        -0.5279 
     29 N          22.5841  -25.7076  -43.2648 N.am      4 UNK        -0.4463 
     30 CA         23.9193  -25.4472  -43.8181 C.3       4 UNK         0.0283 
     31 CB         23.7741  -24.9152  -45.2527 C.3       4 UNK        -0.1875 
     32 C          24.8556  -26.6696  -43.7877 C.2       4 UNK         0.4949 
     33 O          26.0745  -26.5008  -43.7740 O.2       4 UNK        -0.5039 
     34 N          24.2690  -27.8729  -43.7478 N.am      5 UNK        -0.4663 
     35 CA         24.9630  -29.1503  -43.5804 C.3       5 UNK         0.0242 
     36 CB         24.0375  -30.2728  -44.0778 C.3       5 UNK        -0.1982 
     37 C          25.4058  -29.4310  -42.1310 C.2       5 UNK         0.5017 
     38 O          26.0524  -30.4537  -41.9073 O.2       5 UNK        -0.5012 
     39 N          25.0238  -28.5730  -41.1685 N.am      6 UNK        -0.4439 
     40 CA         25.2877  -28.6956  -39.7268 C.3       6 UNK         0.0297 
     41 CB         26.7898  -28.5066  -39.4267 C.3       6 UNK        -0.2006 
     42 C          24.7115  -29.9934  -39.1232 C.2       6 UNK         0.4892 
     43 O          25.3470  -30.6211  -38.2747 O.2       6 UNK        -0.5089 
     44 N          23.5186  -30.3699  -39.6058 N.am      7 UNK        -0.4243 
     45 CA         22.7326  -31.5583  -39.2599 C.3       7 UNK         0.0196 
     46 CB         22.3145  -31.5367  -37.7745 C.3       7 UNK        -0.2007 
     47 C          23.3660  -32.9010  -39.6758 C.2       7 UNK         0.5020 
     48 O          22.8862  -33.9448  -39.2318 O.2       7 UNK        -0.5147 
     49 N          24.3827  -32.8866  -40.5541 N.am      8 UNK        -0.4734 
     50 CA         25.0339  -34.0947  -41.0857 C.3       8 UNK         0.0238 
     51 CB         26.2677  -33.6957  -41.9098 C.3       8 UNK        -0.1912 
     52 C          24.0962  -34.9878  -41.9208 C.2       8 UNK         0.5038 
     53 O          24.2918  -36.2030  -41.9609 O.2       8 UNK        -0.5046 
     54 N          23.0875  -34.3686  -42.5441 N.am      9 UNK        -0.4200 
     55 CA         21.9598  -35.0218  -43.2222 C.3       9 UNK         0.0839 
     56 C          20.8791  -35.6142  -42.2687 C.2       9 UNK         0.5513 
     57 N          20.9592  -35.4357  -40.9549 N.am      9 UNK        -0.7519 
     58 O          19.9470  -36.2642  -42.7347 O.2       9 UNK        -0.4960 
     59 C59        21.3425  -34.1033  -44.3143 C.3       10 UNK        -0.0876 
     60 S60        21.0335  -32.3878  -43.7663 S.3       10 UNK        -0.2414 
     61 C61        19.2743  -32.4395  -43.3174 C.3       10 UNK         0.0169 
     62 H62        13.5656  -23.1091  -49.0270 H         1 UNK         0.0903 
     63 H63        12.6911  -23.0171  -47.4972 H         1 UNK         0.0903 
     64 H64        13.8724  -21.7739  -47.9132 H         1 UNK         0.0903 
     65 H65        13.4902  -24.4217  -45.9485 H         1 UNK         0.3096 
     66 H66        16.0772  -25.6919  -46.1970 H         1 UNK         0.1121 
     67 H67        13.7452  -25.9391  -44.2829 H         1 UNK         0.0849 
     68 H68        14.3577  -27.1200  -45.3961 H         1 UNK         0.0849 
     69 H69        16.3761  -28.6815  -44.9230 H         1 UNK         0.0865 
     70 H70        17.5383  -27.4020  -44.6602 H         1 UNK         0.0865 
     71 H71        17.8043  -30.5655  -44.6483 H         1 UNK         0.1346 
     72 H72        19.7325  -31.3013  -40.8980 H         1 UNK         0.1412 
     73 H73        17.7489  -27.5647  -41.5758 H         1 UNK         0.1426 
     74 H74        18.4443  -28.2258  -39.2871 H         1 UNK         0.0716 
     75 H75        19.1395  -29.7971  -39.0115 H         1 UNK         0.0716 
     76 H76        19.5192  -26.2585  -39.8825 H         1 UNK         0.0695 
     77 H77        21.1584  -25.8443  -39.5052 H         1 UNK         0.0695 
     78 H78        20.5227  -27.1594  -42.1732 H         1 UNK         0.0983 
     79 H79        19.6750  -24.4815  -41.4597 H         1 UNK         0.3095 
     80 H80        18.0423  -23.6292  -42.7628 H         1 UNK         0.0454 
     81 H81        19.7623  -22.9866  -45.2404 H         1 UNK         0.0851 
     82 H82        18.5346  -21.9242  -44.5551 H         1 UNK         0.0851 
     83 H83        19.9837  -22.3006  -43.6358 H         1 UNK         0.0851 
     84 H84        17.9396  -25.2065  -45.2143 H         1 UNK         0.2976 
     85 H85        21.7973  -25.6402  -43.9039 H         1 UNK         0.3116 
     86 H86        24.3829  -24.6687  -43.2088 H         1 UNK         0.0646 
     87 H87        24.7492  -24.6853  -45.6846 H         1 UNK         0.0847 
     88 H88        23.1862  -23.9975  -45.2791 H         1 UNK         0.0847 
     89 H89        23.2915  -25.6427  -45.9066 H         1 UNK         0.0847 
     90 H90        23.2606  -27.9065  -43.7829 H         1 UNK         0.3040 
     91 H91        25.8644  -29.1445  -44.1972 H         1 UNK         0.1015 
     92 H92        23.1234  -30.3245  -43.4860 H         1 UNK         0.0786 
     93 H93        24.5241  -31.2471  -44.0133 H         1 UNK         0.0786 
     94 H94        23.7547  -30.1248  -45.1202 H         1 UNK         0.0786 
     95 H95        24.4728  -27.7616  -41.4338 H         1 UNK         0.3172 
     96 H96        24.7497  -27.8748  -39.2499 H         1 UNK         0.0595 
     97 H97        26.9716  -28.4677  -38.3520 H         1 UNK         0.0839 
     98 H98        27.1649  -27.5756  -39.8516 H         1 UNK         0.0839 
     99 H99        27.3896  -29.3244  -39.8275 H         1 UNK         0.0839 
    100 H100       23.0915  -29.7588  -40.2882 H         1 UNK         0.2998 
    101 H101       21.8194  -31.4792  -39.8495 H         1 UNK         0.0822 
    102 H102       21.8392  -30.5916  -37.5112 H         1 UNK         0.0787 
    103 H103       21.5968  -32.3285  -37.5568 H         1 UNK         0.0787 
    104 H104       23.1673  -31.6815  -37.1109 H         1 UNK         0.0787 
    105 H105       24.7553  -31.9957  -40.8613 H         1 UNK         0.3055 
    106 H106       25.3695  -34.6902  -40.2337 H         1 UNK         0.1106 
    107 H107       26.7963  -34.5774  -42.2746 H         1 UNK         0.0828 
    108 H108       25.9961  -33.0956  -42.7791 H         1 UNK         0.0828 
    109 H109       26.9746  -33.1189  -41.3130 H         1 UNK         0.0828 
    110 H110       23.0086  -33.3672  -42.4477 H         1 UNK         0.2931 
    111 H111       22.3674  -35.8884  -43.7463 H         1 UNK         0.0412 
    112 H112       20.2478  -35.8382  -40.3659 H         1 UNK         0.3472 
    113 H113       21.7246  -34.9236  -40.5310 H         1 UNK         0.3472 
    114 H114       22.0381  -34.0439  -45.1526 H         1 UNK         0.0970 
    115 H115       20.4309  -34.5326  -44.7347 H         1 UNK         0.0970 
    116 H116       18.6869  -32.7566  -44.1804 H         1 UNK         0.0612 
    117 H117       19.1151  -33.1846  -42.5368 H         1 UNK         0.0612 
@<TRIPOS>BOND
     1    1    2 1    
     2    1   62 1    
     3    1   63 1    
     4    1   64 1    
     5    2    3 2    
     6    2    4 am   BACKBONE|DICT|INTERRES
     7    4    5 1    
     8    4   65 1    
     9    5    6 1    
    10    5   25 1    
    11    5   66 1    
    12    6    7 1    
    13    6   67 1    
    14    6   68 1    
    15    7    8 1    
    16    8    9 1    
    17    8   69 1    
    18    8   70 1    
    19    9   10 ar   
    20    9   14 ar   
    21   10   11 ar   
    22   10   71 1    
    23   11   12 ar   
    24   11   61 1    
    25   12   13 ar   
    26   12   72 1    
    27   13   14 ar   
    28   13   15 1    
    29   14   73 1    
    30   15   16 1    
    31   15   74 1    
    32   15   75 1    
    33   16   17 1    
    34   17   18 1    
    35   17   76 1    
    36   17   77 1    
    37   18   19 1    
    38   18   27 1    
    39   18   78 1    
    40   19   20 am   BACKBONE|DICT|INTERRES
    41   19   79 1    
    42   20   21 2    
    43   20   22 1    
    44   22   23 1    
    45   22   24 1    
    46   22   80 1    
    47   23   81 1    
    48   23   82 1    
    49   23   83 1    
    50   24   25 am   BACKBONE|DICT|INTERRES
    51   24   84 1    
    52   25   26 2    
    53   27   28 2    
    54   27   29 am   BACKBONE|DICT|INTERRES
    55   29   30 1    
    56   29   85 1    
    57   30   31 1    
    58   30   32 1    
    59   30   86 1    
    60   31   87 1    
    61   31   88 1    
    62   31   89 1    
    63   32   33 2    
    64   32   34 am   BACKBONE|DICT|INTERRES
    65   34   35 1    
    66   34   90 1    
    67   35   36 1    
    68   35   37 1    
    69   35   91 1    
    70   36   92 1    
    71   36   93 1    
    72   36   94 1    
    73   37   38 2    
    74   37   39 am   BACKBONE|DICT|INTERRES
    75   39   40 1    
    76   39   95 1    
    77   40   41 1    
    78   40   42 1    
    79   40   96 1    
    80   41   97 1    
    81   41   98 1    
    82   41   99 1    
    83   42   43 2    
    84   42   44 am   BACKBONE|DICT|INTERRES
    85   44   45 1    
    86   44  100 1    
    87   45   46 1    
    88   45   47 1    
    89   45  101 1    
    90   46  102 1    
    91   46  103 1    
    92   46  104 1    
    93   47   48 2    
    94   47   49 am   BACKBONE|DICT|INTERRES
    95   49   50 1    
    96   49  105 1    
    97   50   51 1    
    98   50   52 1    
    99   50  106 1    
   100   51  107 1    
   101   51  108 1    
   102   51  109 1    
   103   52   53 2    
   104   52   54 am   BACKBONE|DICT|INTERRES
   105   54   55 1    
   106   54  110 1    
   107   55   56 1    
   108   55   59 1    
   109   55  111 1    
   110   56   57 am   BACKBONE|DICT|INTERRES
   111   56   58 2    
   112   57  112 1    
   113   57  113 1    
   114   59   60 1    
   115   59  114 1    
   116   59  115 1    
   117   60   61 1    
   118   61  116 1    
   119   61  117 1    
@<TRIPOS>SUBSTRUCTURE
     1 UNK         1 GROUP             0       ****    0 ROOT    
