@<TRIPOS>MOLECULE
3R8
117   119    1
SMALL
USER_CHARGES


@<TRIPOS>ATOM
      1 CA         15.9936  -22.8280  -43.0757 C.3       0 UNK        -0.2013 
      2 C          16.5259  -24.2301  -43.3287 C.2       0 UNK         0.4866 
      3 O          17.5304  -24.3887  -44.0242 O.2       0 UNK        -0.5176 
      4 N          15.8638  -25.2516  -42.7700 N.am      1 UNK        -0.4884 
      5 CA         16.2490  -26.6617  -42.8876 C.3       1 UNK         0.0853 
      6 C6         15.0333  -27.6134  -42.7520 C.3       10 UNK        -0.0849 
      7 S7         14.0117  -27.5530  -44.2659 S.3       10 UNK        -0.2776 
      8 C8         14.5953  -29.0141  -45.1984 C.3       10 UNK         0.0316 
      9 C9         16.1161  -29.0969  -45.2735 C.ar      10 UNK        -0.0863 
     10 C10        16.7991  -30.0552  -44.5190 C.ar      10 UNK        -0.1009 
     11 C11        18.1937  -30.1089  -44.5381 C.ar      10 UNK        -0.0712 
     12 C12        18.9037  -29.1970  -45.3184 C.ar      10 UNK        -0.0894 
     13 C13        18.2428  -28.2201  -46.0725 C.ar      10 UNK        -0.0745 
     14 C14        16.8428  -28.1964  -46.0615 C.ar      10 UNK        -0.0972 
     15 C15        18.9882  -27.1622  -46.8914 C.3       10 UNK         0.0209 
     16 S16        20.7759  -27.4598  -47.1497 S.3       10 UNK        -0.2568 
     17 C17        21.5777  -26.5606  -45.7631 C.3       10 UNK        -0.0983 
     18 CA         22.1455  -27.3860  -44.5583 C.3       3 UNK         0.0876 
     19 N          21.1966  -27.4585  -43.4455 N.am      3 UNK        -0.4424 
     20 C          20.9847  -26.4636  -42.5755 C.2       2 UNK         0.4918 
     21 O          21.5927  -25.3920  -42.6060 O.2       2 UNK        -0.4875 
     22 CA         19.8490  -26.6596  -41.5622 C.3       2 UNK         0.0481 
     23 CB         19.8524  -25.5998  -40.4388 C.3       2 UNK        -0.1831 
     24 N          18.6008  -26.5630  -42.3050 N.am      2 UNK        -0.4498 
     25 C          17.3957  -26.9872  -41.9145 C.2       1 UNK         0.5027 
     26 O          17.1668  -27.5555  -40.8453 O.2       1 UNK        -0.4969 
     27 C          22.6773  -28.7910  -44.9088 C.2       3 UNK         0.5005 
     28 O          22.2369  -29.7845  -44.3233 O.2       3 UNK        -0.5279 
     29 N          23.5972  -28.8432  -45.8849 N.am      4 UNK        -0.4463 
     30 CA         24.1707  -30.0190  -46.5606 C.3       4 UNK         0.0283 
     31 CB         23.0752  -30.8753  -47.2268 C.3       4 UNK        -0.1875 
     32 C          25.0978  -30.8895  -45.6955 C.2       4 UNK         0.4949 
     33 O          26.1691  -31.2736  -46.1649 O.2       4 UNK        -0.5039 
     34 N          24.6888  -31.1718  -44.4578 N.am      5 UNK        -0.4663 
     35 CA         25.4315  -31.9416  -43.4637 C.3       5 UNK         0.0242 
     36 CB         24.7818  -33.3275  -43.3092 C.3       5 UNK        -0.1982 
     37 C          25.4779  -31.1260  -42.1657 C.2       5 UNK         0.5017 
     38 O          24.9723  -31.5648  -41.1293 O.2       5 UNK        -0.5012 
     39 N          26.0564  -29.9207  -42.2805 N.am      6 UNK        -0.4439 
     40 CA         26.1209  -28.8591  -41.2695 C.3       6 UNK         0.0297 
     41 CB         26.9255  -29.3263  -40.0345 C.3       6 UNK        -0.2006 
     42 C          24.7233  -28.3165  -40.9076 C.2       6 UNK         0.4892 
     43 O          23.7470  -28.5952  -41.6055 O.2       6 UNK        -0.5089 
     44 N          24.6429  -27.5408  -39.8195 N.am      7 UNK        -0.4243 
     45 CA         23.3836  -27.0072  -39.2912 C.3       7 UNK         0.0196 
     46 CB         23.6907  -25.8927  -38.2782 C.3       7 UNK        -0.2007 
     47 C          22.4807  -28.0830  -38.6557 C.2       7 UNK         0.5020 
     48 O          21.2867  -27.8453  -38.4826 O.2       7 UNK        -0.5147 
     49 N          23.0631  -29.2352  -38.3017 N.am      8 UNK        -0.4734 
     50 CA         22.3715  -30.3564  -37.6672 C.3       8 UNK         0.0238 
     51 CB         23.4047  -31.1928  -36.8930 C.3       8 UNK        -0.1912 
     52 C          21.5980  -31.2526  -38.6502 C.2       8 UNK         0.5038 
     53 O          20.7583  -32.0263  -38.1872 O.2       8 UNK        -0.5046 
     54 N          21.9087  -31.1769  -39.9550 N.am      9 UNK        -0.4200 
     55 CA         21.4647  -32.1333  -40.9880 C.3       9 UNK         0.0839 
     56 C          21.9752  -33.5806  -40.7001 C.2       9 UNK         0.5513 
     57 N          23.2348  -33.7412  -40.3152 N.am      9 UNK        -0.7519 
     58 O          21.2426  -34.5600  -40.8198 O.2       9 UNK        -0.4960 
     59 C59        19.9349  -32.0730  -41.2777 C.3       10 UNK        -0.0876 
     60 S60        19.4068  -30.5222  -42.0817 S.3       10 UNK        -0.2414 
     61 C61        18.9347  -31.1556  -43.7226 C.3       10 UNK         0.0169 
     62 H62        16.7508  -22.2246  -42.5756 H         1 UNK         0.0903 
     63 H63        15.7433  -22.3465  -44.0206 H         1 UNK         0.0903 
     64 H64        15.0998  -22.8366  -42.4522 H         1 UNK         0.0903 
     65 H65        15.0531  -25.0660  -42.1964 H         1 UNK         0.3096 
     66 H66        16.6671  -26.8041  -43.8821 H         1 UNK         0.1121 
     67 H67        15.3467  -28.6437  -42.5760 H         1 UNK         0.0849 
     68 H68        14.4200  -27.3405  -41.8917 H         1 UNK         0.0849 
     69 H69        14.1842  -29.9132  -44.7365 H         1 UNK         0.0865 
     70 H70        14.1840  -28.9787  -46.2083 H         1 UNK         0.0865 
     71 H71        16.2473  -30.7532  -43.9039 H         1 UNK         0.1346 
     72 H72        19.9775  -29.2603  -45.3256 H         1 UNK         0.1412 
     73 H73        16.3140  -27.4456  -46.6337 H         1 UNK         0.1426 
     74 H74        18.8402  -26.1846  -46.4305 H         1 UNK         0.0716 
     75 H75        18.5257  -27.1048  -47.8778 H         1 UNK         0.0716 
     76 H76        22.4077  -26.0159  -46.2156 H         1 UNK         0.0695 
     77 H77        20.9069  -25.7757  -45.4110 H         1 UNK         0.0695 
     78 H78        23.0220  -26.8545  -44.1791 H         1 UNK         0.0983 
     79 H79        20.7345  -28.3524  -43.3308 H         1 UNK         0.3095 
     80 H80        19.9472  -27.6538  -41.1222 H         1 UNK         0.0454 
     81 H81        20.8133  -25.5561  -39.9298 H         1 UNK         0.0851 
     82 H82        19.6476  -24.6012  -40.8266 H         1 UNK         0.0851 
     83 H83        19.1022  -25.8246  -39.6808 H         1 UNK         0.0851 
     84 H84        18.6540  -26.0450  -43.1762 H         1 UNK         0.2976 
     85 H85        23.8997  -27.9600  -46.2726 H         1 UNK         0.3116 
     86 H86        24.7906  -29.6137  -47.3622 H         1 UNK         0.0646 
     87 H87        23.5157  -31.6812  -47.8151 H         1 UNK         0.0847 
     88 H88        22.4615  -30.2787  -47.9017 H         1 UNK         0.0847 
     89 H89        22.4132  -31.3366  -46.4933 H         1 UNK         0.0847 
     90 H90        23.7967  -30.7773  -44.1600 H         1 UNK         0.3040 
     91 H91        26.4675  -32.0870  -43.7780 H         1 UNK         0.1015 
     92 H92        23.7202  -33.2492  -43.0785 H         1 UNK         0.0786 
     93 H93        25.2566  -33.9007  -42.5119 H         1 UNK         0.0786 
     94 H94        24.8773  -33.9085  -44.2264 H         1 UNK         0.0786 
     95 H95        26.3880  -29.6601  -43.1986 H         1 UNK         0.3172 
     96 H96        26.6629  -28.0333  -41.7322 H         1 UNK         0.0595 
     97 H97        27.1772  -28.4921  -39.3793 H         1 UNK         0.0839 
     98 H98        26.3758  -30.0566  -39.4396 H         1 UNK         0.0839 
     99 H99        27.8684  -29.7862  -40.3308 H         1 UNK         0.0839 
    100 H100       25.4836  -27.3302  -39.3008 H         1 UNK         0.2998 
    101 H101       22.8357  -26.5693  -40.1265 H         1 UNK         0.0822 
    102 H102       22.7701  -25.4514  -37.8932 H         1 UNK         0.0787 
    103 H103       24.2545  -26.2677  -37.4230 H         1 UNK         0.0787 
    104 H104       24.2662  -25.0875  -38.7354 H         1 UNK         0.0787 
    105 H105       24.0499  -29.3482  -38.4804 H         1 UNK         0.3055 
    106 H106       21.6457  -29.9620  -36.9519 H         1 UNK         0.1106 
    107 H107       23.9183  -30.5946  -36.1402 H         1 UNK         0.0828 
    108 H108       22.9246  -32.0222  -36.3715 H         1 UNK         0.0828 
    109 H109       24.1577  -31.6198  -37.5571 H         1 UNK         0.0828 
    110 H110       22.6169  -30.5176  -40.2474 H         1 UNK         0.2931 
    111 H111       21.9743  -31.8360  -41.9057 H         1 UNK         0.0412 
    112 H112       23.8708  -32.9494  -40.3276 H         1 UNK         0.3472 
    113 H113       23.5804  -34.6664  -40.1181 H         1 UNK         0.3472 
    114 H114       19.3578  -32.2029  -40.3619 H         1 UNK         0.0970 
    115 H115       19.6403  -32.9048  -41.9190 H         1 UNK         0.0970 
    116 H116       19.8319  -31.4810  -44.2521 H         1 UNK         0.0612 
    117 H117       18.3038  -32.0385  -43.6083 H         1 UNK         0.0612 
@<TRIPOS>BOND
     1    1    2 1    
     2    1   62 1    
     3    1   63 1    
     4    1   64 1    
     5    2    3 2    
     6    2    4 am   BACKBONE|DICT|INTERRES
     7    4    5 1    
     8    4   65 1    
     9    5    6 1    
    10    5   25 1    
    11    5   66 1    
    12    6    7 1    
    13    6   67 1    
    14    6   68 1    
    15    7    8 1    
    16    8    9 1    
    17    8   69 1    
    18    8   70 1    
    19    9   10 ar   
    20    9   14 ar   
    21   10   11 ar   
    22   10   71 1    
    23   11   12 ar   
    24   11   61 1    
    25   12   13 ar   
    26   12   72 1    
    27   13   14 ar   
    28   13   15 1    
    29   14   73 1    
    30   15   16 1    
    31   15   74 1    
    32   15   75 1    
    33   16   17 1    
    34   17   18 1    
    35   17   76 1    
    36   17   77 1    
    37   18   19 1    
    38   18   27 1    
    39   18   78 1    
    40   19   20 am   BACKBONE|DICT|INTERRES
    41   19   79 1    
    42   20   21 2    
    43   20   22 1    
    44   22   23 1    
    45   22   24 1    
    46   22   80 1    
    47   23   81 1    
    48   23   82 1    
    49   23   83 1    
    50   24   25 am   BACKBONE|DICT|INTERRES
    51   24   84 1    
    52   25   26 2    
    53   27   28 2    
    54   27   29 am   BACKBONE|DICT|INTERRES
    55   29   30 1    
    56   29   85 1    
    57   30   31 1    
    58   30   32 1    
    59   30   86 1    
    60   31   87 1    
    61   31   88 1    
    62   31   89 1    
    63   32   33 2    
    64   32   34 am   BACKBONE|DICT|INTERRES
    65   34   35 1    
    66   34   90 1    
    67   35   36 1    
    68   35   37 1    
    69   35   91 1    
    70   36   92 1    
    71   36   93 1    
    72   36   94 1    
    73   37   38 2    
    74   37   39 am   BACKBONE|DICT|INTERRES
    75   39   40 1    
    76   39   95 1    
    77   40   41 1    
    78   40   42 1    
    79   40   96 1    
    80   41   97 1    
    81   41   98 1    
    82   41   99 1    
    83   42   43 2    
    84   42   44 am   BACKBONE|DICT|INTERRES
    85   44   45 1    
    86   44  100 1    
    87   45   46 1    
    88   45   47 1    
    89   45  101 1    
    90   46  102 1    
    91   46  103 1    
    92   46  104 1    
    93   47   48 2    
    94   47   49 am   BACKBONE|DICT|INTERRES
    95   49   50 1    
    96   49  105 1    
    97   50   51 1    
    98   50   52 1    
    99   50  106 1    
   100   51  107 1    
   101   51  108 1    
   102   51  109 1    
   103   52   53 2    
   104   52   54 am   BACKBONE|DICT|INTERRES
   105   54   55 1    
   106   54  110 1    
   107   55   56 1    
   108   55   59 1    
   109   55  111 1    
   110   56   57 am   BACKBONE|DICT|INTERRES
   111   56   58 2    
   112   57  112 1    
   113   57  113 1    
   114   59   60 1    
   115   59  114 1    
   116   59  115 1    
   117   60   61 1    
   118   61  116 1    
   119   61  117 1    
@<TRIPOS>SUBSTRUCTURE
     1 UNK         1 GROUP             0       ****    0 ROOT    
