@<TRIPOS>MOLECULE
3R8
117   119    1
SMALL
USER_CHARGES


@<TRIPOS>ATOM
      1 CA         15.8303  -23.1878  -47.0035 C.3       0 UNK        -0.2013 
      2 C          16.4757  -24.3641  -46.2875 C.2       0 UNK         0.4866 
      3 O          17.5102  -24.8608  -46.7342 O.2       0 UNK        -0.5176 
      4 N          15.8838  -24.8076  -45.1708 N.am      1 UNK        -0.4884 
      5 CA         16.3244  -25.9397  -44.3423 C.3       1 UNK         0.0853 
      6 C6         15.1473  -26.5052  -43.5002 C.3       10 UNK        -0.0849 
      7 S7         14.0978  -27.5974  -44.5205 S.3       10 UNK        -0.2776 
      8 C8         14.6324  -29.2613  -43.9820 C.3       10 UNK         0.0316 
      9 C9         16.1479  -29.4261  -44.0055 C.ar      10 UNK        -0.0863 
     10 C10        16.8720  -29.4087  -42.8088 C.ar      10 UNK        -0.1009 
     11 C11        18.2653  -29.5017  -42.8199 C.ar      10 UNK        -0.0712 
     12 C12        18.9346  -29.6344  -44.0382 C.ar      10 UNK        -0.0894 
     13 C13        18.2268  -29.6456  -45.2427 C.ar      10 UNK        -0.0745 
     14 C14        16.8302  -29.5583  -45.2193 C.ar      10 UNK        -0.0972 
     15 C15        18.9693  -29.7100  -46.5697 C.3       10 UNK         0.0209 
     16 S16        18.9334  -28.0827  -47.3836 S.3       10 UNK        -0.2568 
     17 C17        20.6978  -27.7292  -47.7224 C.3       10 UNK        -0.0983 
     18 CA         21.5269  -27.1204  -46.5468 C.3       3 UNK         0.0876 
     19 N          20.6842  -26.4366  -45.5545 N.am      3 UNK        -0.4424 
     20 C          21.0902  -25.6418  -44.5530 C.2       2 UNK         0.4918 
     21 O          22.2750  -25.4267  -44.2987 O.2       2 UNK        -0.4875 
     22 CA         20.0025  -24.9991  -43.6712 C.3       2 UNK         0.0481 
     23 CB         20.2223  -23.4851  -43.5104 C.3       2 UNK        -0.1831 
     24 N          18.6617  -25.2427  -44.2037 N.am      2 UNK        -0.4498 
     25 C          17.5808  -25.6038  -43.5046 C.2       1 UNK         0.5027 
     26 O          17.5565  -25.6766  -42.2747 O.2       1 UNK        -0.4969 
     27 C          22.5166  -28.1503  -45.9562 C.2       3 UNK         0.5005 
     28 O          23.4794  -28.5130  -46.6342 O.2       3 UNK        -0.5279 
     29 N          22.2801  -28.5953  -44.7178 N.am      4 UNK        -0.4463 
     30 CA         23.1235  -29.5259  -43.9707 C.3       4 UNK         0.0283 
     31 CB         22.8214  -30.9768  -44.3952 C.3       4 UNK        -0.1875 
     32 C          22.9410  -29.2777  -42.4666 C.2       4 UNK         0.4949 
     33 O          22.7797  -30.2307  -41.7011 O.2       4 UNK        -0.5039 
     34 N          22.9446  -27.9903  -42.0818 N.am      5 UNK        -0.4663 
     35 CA         22.6413  -27.4777  -40.7377 C.3       5 UNK         0.0242 
     36 CB         22.8084  -25.9492  -40.7244 C.3       5 UNK        -0.1982 
     37 C          23.4609  -28.1110  -39.6019 C.2       5 UNK         0.5017 
     38 O          22.8994  -28.3901  -38.5438 O.2       5 UNK        -0.5012 
     39 N          24.7559  -28.3342  -39.8547 N.am      6 UNK        -0.4439 
     40 CA         25.6660  -29.0514  -38.9576 C.3       6 UNK         0.0297 
     41 CB         26.9171  -28.1902  -38.7158 C.3       6 UNK        -0.2006 
     42 C          26.0689  -30.4250  -39.5199 C.2       6 UNK         0.4892 
     43 O          26.4357  -31.3031  -38.7389 O.2       6 UNK        -0.5089 
     44 N          26.0188  -30.5879  -40.8507 N.am      7 UNK        -0.4243 
     45 CA         26.4742  -31.7869  -41.5581 C.3       7 UNK         0.0196 
     46 CB         26.6811  -31.4568  -43.0453 C.3       7 UNK        -0.2007 
     47 C          25.5430  -32.9987  -41.3936 C.2       7 UNK         0.5020 
     48 O          26.0385  -34.1259  -41.3677 O.2       7 UNK        -0.5147 
     49 N          24.2296  -32.7582  -41.2900 N.am      8 UNK        -0.4734 
     50 CA         23.2166  -33.7991  -41.0922 C.3       8 UNK         0.0238 
     51 CB         22.3693  -33.9619  -42.3653 C.3       8 UNK        -0.1912 
     52 C          22.3227  -33.4790  -39.8913 C.2       8 UNK         0.5038 
     53 O          22.0500  -34.3762  -39.0928 O.2       8 UNK        -0.5046 
     54 N          21.8870  -32.2180  -39.7799 N.am      9 UNK        -0.4200 
     55 CA         20.9919  -31.7422  -38.7135 C.3       9 UNK         0.0839 
     56 C          21.7062  -31.4192  -37.3676 C.2       9 UNK         0.5513 
     57 N          23.0202  -31.5724  -37.2503 N.am      9 UNK        -0.7519 
     58 O          21.0485  -31.0461  -36.3993 O.2       9 UNK        -0.4960 
     59 C59        20.1020  -30.5678  -39.1965 C.3       10 UNK        -0.0876 
     60 S60        19.0927  -31.0082  -40.6540 S.3       10 UNK        -0.2414 
     61 C61        19.0477  -29.4135  -41.5199 C.3       10 UNK         0.0169 
     62 H62        15.5683  -23.4690  -48.0232 H         1 UNK         0.0903 
     63 H63        14.9238  -22.8508  -46.5011 H         1 UNK         0.0903 
     64 H64        16.5253  -22.3498  -47.0490 H         1 UNK         0.0903 
     65 H65        15.0468  -24.3427  -44.8482 H         1 UNK         0.3096 
     66 H66        16.6562  -26.7300  -45.0197 H         1 UNK         0.1121 
     67 H67        15.4872  -27.0694  -42.6317 H         1 UNK         0.0849 
     68 H68        14.5370  -25.6977  -43.0926 H         1 UNK         0.0849 
     69 H69        14.2421  -29.4517  -42.9809 H         1 UNK         0.0865 
     70 H70        14.1752  -30.0092  -44.6315 H         1 UNK         0.0865 
     71 H71        16.3553  -29.2982  -41.8651 H         1 UNK         0.1346 
     72 H72        20.0087  -29.7177  -44.0457 H         1 UNK         0.1412 
     73 H73        16.2773  -29.5527  -46.1492 H         1 UNK         0.1426 
     74 H74        18.4987  -30.4480  -47.2208 H         1 UNK         0.0716 
     75 H75        19.9988  -30.0400  -46.4221 H         1 UNK         0.0716 
     76 H76        21.1622  -28.6226  -48.1458 H         1 UNK         0.0695 
     77 H77        20.6983  -27.0096  -48.5425 H         1 UNK         0.0695 
     78 H78        22.1674  -26.3454  -46.9744 H         1 UNK         0.0983 
     79 H79        19.6936  -26.5892  -45.6833 H         1 UNK         0.3095 
     80 H80        20.0911  -25.4689  -42.6900 H         1 UNK         0.0454 
     81 H81        21.2025  -23.2718  -43.0820 H         1 UNK         0.0851 
     82 H82        20.1629  -22.9667  -44.4680 H         1 UNK         0.0851 
     83 H83        19.4786  -23.0465  -42.8450 H         1 UNK         0.0851 
     84 H84        18.5339  -25.1192  -45.2072 H         1 UNK         0.2976 
     85 H85        21.4898  -28.2104  -44.2210 H         1 UNK         0.3116 
     86 H86        24.1706  -29.3118  -44.1940 H         1 UNK         0.0646 
     87 H87        23.4689  -31.6822  -43.8761 H         1 UNK         0.0847 
     88 H88        22.9867  -31.1222  -45.4626 H         1 UNK         0.0847 
     89 H89        21.7909  -31.2561  -44.1772 H         1 UNK         0.0847 
     90 H90        23.1165  -27.2879  -42.7901 H         1 UNK         0.3040 
     91 H91        21.5926  -27.6999  -40.5349 H         1 UNK         0.1015 
     92 H92        22.1393  -25.4664  -41.4350 H         1 UNK         0.0786 
     93 H93        23.8279  -25.6506  -40.9716 H         1 UNK         0.0786 
     94 H94        22.5784  -25.5390  -39.7398 H         1 UNK         0.0786 
     95 H95        25.1262  -28.0120  -40.7366 H         1 UNK         0.3172 
     96 H96        25.1891  -29.2286  -37.9912 H         1 UNK         0.0595 
     97 H97        27.6100  -28.6903  -38.0375 H         1 UNK         0.0839 
     98 H98        26.6565  -27.2337  -38.2622 H         1 UNK         0.0839 
     99 H99        27.4569  -27.9868  -39.6415 H         1 UNK         0.0839 
    100 H100       25.6890  -29.8266  -41.4206 H         1 UNK         0.2998 
    101 H101       27.4444  -32.0700  -41.1430 H         1 UNK         0.0822 
    102 H102       25.7592  -31.1270  -43.5221 H         1 UNK         0.0787 
    103 H103       27.4266  -30.6724  -43.1774 H         1 UNK         0.0787 
    104 H104       27.0349  -32.3317  -43.5929 H         1 UNK         0.0787 
    105 H105       23.8996  -31.7987  -41.3277 H         1 UNK         0.3055 
    106 H106       23.6942  -34.7589  -40.8813 H         1 UNK         0.1106 
    107 H107       21.7901  -33.0644  -42.5833 H         1 UNK         0.0828 
    108 H108       22.9915  -34.1838  -43.2323 H         1 UNK         0.0828 
    109 H109       21.6604  -34.7837  -42.2560 H         1 UNK         0.0828 
    110 H110       22.1432  -31.5300  -40.4814 H         1 UNK         0.2931 
    111 H111       20.3097  -32.5606  -38.4746 H         1 UNK         0.0412 
    112 H112       23.4638  -31.3637  -36.3702 H         1 UNK         0.3472 
    113 H113       23.5697  -31.8903  -38.0317 H         1 UNK         0.3472 
    114 H114       20.7246  -29.7041  -39.4292 H         1 UNK         0.0970 
    115 H115       19.4204  -30.2481  -38.4061 H         1 UNK         0.0970 
    116 H116       18.6010  -28.6591  -40.8702 H         1 UNK         0.0612 
    117 H117       20.0668  -29.0854  -41.7207 H         1 UNK         0.0612 
@<TRIPOS>BOND
     1    1    2 1    
     2    1   62 1    
     3    1   63 1    
     4    1   64 1    
     5    2    3 2    
     6    2    4 am   BACKBONE|DICT|INTERRES
     7    4    5 1    
     8    4   65 1    
     9    5    6 1    
    10    5   25 1    
    11    5   66 1    
    12    6    7 1    
    13    6   67 1    
    14    6   68 1    
    15    7    8 1    
    16    8    9 1    
    17    8   69 1    
    18    8   70 1    
    19    9   10 ar   
    20    9   14 ar   
    21   10   11 ar   
    22   10   71 1    
    23   11   12 ar   
    24   11   61 1    
    25   12   13 ar   
    26   12   72 1    
    27   13   14 ar   
    28   13   15 1    
    29   14   73 1    
    30   15   16 1    
    31   15   74 1    
    32   15   75 1    
    33   16   17 1    
    34   17   18 1    
    35   17   76 1    
    36   17   77 1    
    37   18   19 1    
    38   18   27 1    
    39   18   78 1    
    40   19   20 am   BACKBONE|DICT|INTERRES
    41   19   79 1    
    42   20   21 2    
    43   20   22 1    
    44   22   23 1    
    45   22   24 1    
    46   22   80 1    
    47   23   81 1    
    48   23   82 1    
    49   23   83 1    
    50   24   25 am   BACKBONE|DICT|INTERRES
    51   24   84 1    
    52   25   26 2    
    53   27   28 2    
    54   27   29 am   BACKBONE|DICT|INTERRES
    55   29   30 1    
    56   29   85 1    
    57   30   31 1    
    58   30   32 1    
    59   30   86 1    
    60   31   87 1    
    61   31   88 1    
    62   31   89 1    
    63   32   33 2    
    64   32   34 am   BACKBONE|DICT|INTERRES
    65   34   35 1    
    66   34   90 1    
    67   35   36 1    
    68   35   37 1    
    69   35   91 1    
    70   36   92 1    
    71   36   93 1    
    72   36   94 1    
    73   37   38 2    
    74   37   39 am   BACKBONE|DICT|INTERRES
    75   39   40 1    
    76   39   95 1    
    77   40   41 1    
    78   40   42 1    
    79   40   96 1    
    80   41   97 1    
    81   41   98 1    
    82   41   99 1    
    83   42   43 2    
    84   42   44 am   BACKBONE|DICT|INTERRES
    85   44   45 1    
    86   44  100 1    
    87   45   46 1    
    88   45   47 1    
    89   45  101 1    
    90   46  102 1    
    91   46  103 1    
    92   46  104 1    
    93   47   48 2    
    94   47   49 am   BACKBONE|DICT|INTERRES
    95   49   50 1    
    96   49  105 1    
    97   50   51 1    
    98   50   52 1    
    99   50  106 1    
   100   51  107 1    
   101   51  108 1    
   102   51  109 1    
   103   52   53 2    
   104   52   54 am   BACKBONE|DICT|INTERRES
   105   54   55 1    
   106   54  110 1    
   107   55   56 1    
   108   55   59 1    
   109   55  111 1    
   110   56   57 am   BACKBONE|DICT|INTERRES
   111   56   58 2    
   112   57  112 1    
   113   57  113 1    
   114   59   60 1    
   115   59  114 1    
   116   59  115 1    
   117   60   61 1    
   118   61  116 1    
   119   61  117 1    
@<TRIPOS>SUBSTRUCTURE
     1 UNK         1 GROUP             0       ****    0 ROOT    
