@<TRIPOS>MOLECULE
3R8
117   119    1
SMALL
USER_CHARGES


@<TRIPOS>ATOM
      1 CA         17.6196  -22.1284  -49.0261 C.3       0 UNK        -0.2013 
      2 C          18.4910  -22.8559  -48.0132 C.2       0 UNK         0.4866 
      3 O          19.4569  -22.2792  -47.5135 O.2       0 UNK        -0.5176 
      4 N          18.1606  -24.1198  -47.7141 N.am      1 UNK        -0.4884 
      5 CA         18.8553  -24.9641  -46.7349 C.3       1 UNK         0.0853 
      6 C6         18.4227  -26.4475  -46.8845 C.3       10 UNK        -0.0849 
      7 S7         19.2544  -27.6008  -45.7378 S.3       10 UNK        -0.2776 
      8 C8         18.2218  -29.0891  -45.9277 C.3       10 UNK         0.0316 
      9 C9         18.1216  -29.8400  -44.6104 C.ar      10 UNK        -0.0863 
     10 C10        18.9671  -30.9193  -44.3369 C.ar      10 UNK        -0.1009 
     11 C11        18.8827  -31.5965  -43.1136 C.ar      10 UNK        -0.0712 
     12 C12        17.9495  -31.1683  -42.1628 C.ar      10 UNK        -0.0894 
     13 C13        17.0966  -30.0914  -42.4216 C.ar      10 UNK        -0.0745 
     14 C14        17.1737  -29.4487  -43.6617 C.ar      10 UNK        -0.0972 
     15 C15        16.0755  -29.6687  -41.3662 C.3       10 UNK         0.0209 
     16 S16        15.8113  -27.8649  -41.2536 S.3       10 UNK        -0.2568 
     17 C17        17.4134  -27.2743  -40.6048 C.3       10 UNK        -0.0983 
     18 CA         18.3859  -26.7836  -41.7155 C.3       3 UNK         0.0876 
     19 N          17.7868  -25.8281  -42.6565 N.am      3 UNK        -0.4424 
     20 C          17.3690  -24.5811  -42.3938 C.2       2 UNK         0.4918 
     21 O          17.3440  -24.0926  -41.2634 O.2       2 UNK        -0.4875 
     22 CA         16.9268  -23.7231  -43.6034 C.3       2 UNK         0.0481 
     23 CB         17.3172  -22.2408  -43.4264 C.3       2 UNK        -0.1831 
     24 N          17.3890  -24.2124  -44.9142 N.am      2 UNK        -0.4498 
     25 C          18.6581  -24.4324  -45.2992 C.2       1 UNK         0.5027 
     26 O          19.6362  -24.2607  -44.5704 O.2       1 UNK        -0.4969 
     27 C          19.7428  -26.2961  -41.1532 C.2       3 UNK         0.5005 
     28 O          20.1463  -26.7279  -40.0703 O.2       3 UNK        -0.5279 
     29 N          20.4401  -25.4164  -41.8915 N.am      4 UNK        -0.4463 
     30 CA         21.7700  -24.9187  -41.5451 C.3       4 UNK         0.0283 
     31 CB         22.1308  -23.7292  -42.4494 C.3       4 UNK        -0.1875 
     32 C          22.8060  -26.0449  -41.6702 C.2       4 UNK         0.4949 
     33 O          22.9575  -26.6082  -42.7558 O.2       4 UNK        -0.5039 
     34 N          23.4750  -26.3536  -40.5507 N.am      5 UNK        -0.4663 
     35 CA         24.4566  -27.4324  -40.3819 C.3       5 UNK         0.0242 
     36 CB         25.7395  -27.1411  -41.1912 C.3       5 UNK        -0.1982 
     37 C          23.8731  -28.8320  -40.6663 C.2       5 UNK         0.5017 
     38 O          24.5547  -29.6685  -41.2585 O.2       5 UNK        -0.5012 
     39 N          22.6341  -29.0787  -40.2093 N.am      6 UNK        -0.4439 
     40 CA         21.8912  -30.3392  -40.3749 C.3       6 UNK         0.0297 
     41 CB         20.4919  -30.1924  -39.7570 C.3       6 UNK        -0.2006 
     42 C          22.5907  -31.6008  -39.8265 C.2       6 UNK         0.4892 
     43 O          22.2607  -32.7051  -40.2560 O.2       6 UNK        -0.5089 
     44 N          23.5703  -31.4304  -38.9273 N.am      7 UNK        -0.4243 
     45 CA         24.4699  -32.4901  -38.4614 C.3       7 UNK         0.0196 
     46 CB         25.3508  -31.9407  -37.3280 C.3       7 UNK        -0.2007 
     47 C          25.3459  -33.0928  -39.5792 C.2       7 UNK         0.5020 
     48 O          25.7546  -34.2483  -39.4620 O.2       7 UNK        -0.5147 
     49 N          25.6015  -32.3269  -40.6517 N.am      8 UNK        -0.4734 
     50 CA         26.3533  -32.7691  -41.8302 C.3       8 UNK         0.0238 
     51 CB         26.8193  -31.5404  -42.6290 C.3       8 UNK        -0.1912 
     52 C          25.5713  -33.7374  -42.7377 C.2       8 UNK         0.5038 
     53 O          26.1870  -34.3488  -43.6124 O.2       8 UNK        -0.5046 
     54 N          24.2529  -33.8735  -42.5276 N.am      9 UNK        -0.4200 
     55 CA         23.3959  -34.8408  -43.2325 C.3       9 UNK         0.0839 
     56 C          23.6867  -36.3306  -42.8798 C.2       9 UNK         0.5513 
     57 N          24.3982  -36.6368  -41.8002 N.am      9 UNK        -0.7519 
     58 O          23.2571  -37.2251  -43.6036 O.2       9 UNK        -0.4960 
     59 C59        21.8880  -34.5370  -43.0412 C.3       10 UNK        -0.0876 
     60 S60        21.3836  -32.8643  -43.5691 S.3       10 UNK        -0.2414 
     61 C61        19.7252  -32.8337  -42.8082 C.3       10 UNK         0.0169 
     62 H62        16.8083  -22.7563  -49.3940 H         1 UNK         0.0903 
     63 H63        17.1811  -21.2395  -48.5732 H         1 UNK         0.0903 
     64 H64        18.2192  -21.8149  -49.8803 H         1 UNK         0.0903 
     65 H65        17.3633  -24.5383  -48.1729 H         1 UNK         0.3096 
     66 H66        19.9252  -24.9058  -46.9493 H         1 UNK         0.1121 
     67 H67        18.6263  -26.7875  -47.9014 H         1 UNK         0.0849 
     68 H68        17.3433  -26.5360  -46.7487 H         1 UNK         0.0849 
     69 H69        17.2197  -28.8225  -46.2665 H         1 UNK         0.0865 
     70 H70        18.6463  -29.7258  -46.7055 H         1 UNK         0.0865 
     71 H71        19.6811  -31.2361  -45.0843 H         1 UNK         0.1346 
     72 H72        17.8724  -31.6921  -41.2196 H         1 UNK         0.1412 
     73 H73        16.5092  -28.6251  -43.8836 H         1 UNK         0.1426 
     74 H74        16.3649  -30.0385  -40.3811 H         1 UNK         0.0716 
     75 H75        15.1224  -30.1423  -41.6043 H         1 UNK         0.0716 
     76 H76        17.8681  -28.0756  -40.0202 H         1 UNK         0.0695 
     77 H77        17.2095  -26.4678  -39.8988 H         1 UNK         0.0695 
     78 H78        18.6552  -27.6519  -42.3158 H         1 UNK         0.0983 
     79 H79        17.7668  -26.1294  -43.6195 H         1 UNK         0.3095 
     80 H80        15.8377  -23.7783  -43.6274 H         1 UNK         0.0454 
     81 H81        18.3964  -22.1167  -43.3306 H         1 UNK         0.0851 
     82 H82        16.8608  -21.8164  -42.5314 H         1 UNK         0.0851 
     83 H83        16.9849  -21.6388  -44.2720 H         1 UNK         0.0851 
     84 H84        16.6595  -24.3884  -45.5912 H         1 UNK         0.2976 
     85 H85        20.0695  -25.1189  -42.7892 H         1 UNK         0.3116 
     86 H86        21.7411  -24.5618  -40.5132 H         1 UNK         0.0646 
     87 H87        21.3987  -22.9262  -42.3617 H         1 UNK         0.0847 
     88 H88        23.1031  -23.3154  -42.1795 H         1 UNK         0.0847 
     89 H89        22.1812  -24.0208  -43.4995 H         1 UNK         0.0847 
     90 H90        23.2527  -25.8336  -39.7120 H         1 UNK         0.3040 
     91 H91        24.7330  -27.4348  -39.3263 H         1 UNK         0.1015 
     92 H92        25.5600  -27.1844  -42.2659 H         1 UNK         0.0786 
     93 H93        26.5188  -27.8699  -40.9646 H         1 UNK         0.0786 
     94 H94        26.1420  -26.1556  -40.9573 H         1 UNK         0.0786 
     95 H95        22.1328  -28.3189  -39.7673 H         1 UNK         0.3172 
     96 H96        21.7678  -30.4967  -41.4483 H         1 UNK         0.0595 
     97 H97        20.5398  -29.9013  -38.7073 H         1 UNK         0.0839 
     98 H98        19.9378  -31.1303  -39.8100 H         1 UNK         0.0839 
     99 H99        19.9037  -29.4462  -40.2900 H         1 UNK         0.0839 
    100 H100       23.7730  -30.4911  -38.6194 H         1 UNK         0.2998 
    101 H101       23.8537  -33.2973  -38.0597 H         1 UNK         0.0822 
    102 H102       26.0139  -32.7151  -36.9394 H         1 UNK         0.0787 
    103 H103       25.9778  -31.1154  -37.6679 H         1 UNK         0.0787 
    104 H104       24.7477  -31.5846  -36.4925 H         1 UNK         0.0787 
    105 H105       25.2079  -31.3897  -40.7000 H         1 UNK         0.3055 
    106 H106       27.2407  -33.3037  -41.4840 H         1 UNK         0.1106 
    107 H107       27.4744  -31.8345  -43.4501 H         1 UNK         0.0828 
    108 H108       25.9781  -31.0000  -43.0646 H         1 UNK         0.0828 
    109 H109       27.3776  -30.8443  -42.0028 H         1 UNK         0.0828 
    110 H110       23.8093  -33.3394  -41.7915 H         1 UNK         0.2931 
    111 H111       23.6119  -34.7358  -44.2975 H         1 UNK         0.0412 
    112 H112       24.5797  -37.6052  -41.5868 H         1 UNK         0.3472 
    113 H113       24.7551  -35.9114  -41.1957 H         1 UNK         0.3472 
    114 H114       21.2838  -35.2510  -43.6047 H         1 UNK         0.0970 
    115 H115       21.6143  -34.6718  -41.9929 H         1 UNK         0.0970 
    116 H116       19.1698  -33.7108  -43.1426 H         1 UNK         0.0612 
    117 H117       19.8502  -32.9367  -41.7290 H         1 UNK         0.0612 
@<TRIPOS>BOND
     1    1    2 1    
     2    1   62 1    
     3    1   63 1    
     4    1   64 1    
     5    2    3 2    
     6    2    4 am   BACKBONE|DICT|INTERRES
     7    4    5 1    
     8    4   65 1    
     9    5    6 1    
    10    5   25 1    
    11    5   66 1    
    12    6    7 1    
    13    6   67 1    
    14    6   68 1    
    15    7    8 1    
    16    8    9 1    
    17    8   69 1    
    18    8   70 1    
    19    9   10 ar   
    20    9   14 ar   
    21   10   11 ar   
    22   10   71 1    
    23   11   12 ar   
    24   11   61 1    
    25   12   13 ar   
    26   12   72 1    
    27   13   14 ar   
    28   13   15 1    
    29   14   73 1    
    30   15   16 1    
    31   15   74 1    
    32   15   75 1    
    33   16   17 1    
    34   17   18 1    
    35   17   76 1    
    36   17   77 1    
    37   18   19 1    
    38   18   27 1    
    39   18   78 1    
    40   19   20 am   BACKBONE|DICT|INTERRES
    41   19   79 1    
    42   20   21 2    
    43   20   22 1    
    44   22   23 1    
    45   22   24 1    
    46   22   80 1    
    47   23   81 1    
    48   23   82 1    
    49   23   83 1    
    50   24   25 am   BACKBONE|DICT|INTERRES
    51   24   84 1    
    52   25   26 2    
    53   27   28 2    
    54   27   29 am   BACKBONE|DICT|INTERRES
    55   29   30 1    
    56   29   85 1    
    57   30   31 1    
    58   30   32 1    
    59   30   86 1    
    60   31   87 1    
    61   31   88 1    
    62   31   89 1    
    63   32   33 2    
    64   32   34 am   BACKBONE|DICT|INTERRES
    65   34   35 1    
    66   34   90 1    
    67   35   36 1    
    68   35   37 1    
    69   35   91 1    
    70   36   92 1    
    71   36   93 1    
    72   36   94 1    
    73   37   38 2    
    74   37   39 am   BACKBONE|DICT|INTERRES
    75   39   40 1    
    76   39   95 1    
    77   40   41 1    
    78   40   42 1    
    79   40   96 1    
    80   41   97 1    
    81   41   98 1    
    82   41   99 1    
    83   42   43 2    
    84   42   44 am   BACKBONE|DICT|INTERRES
    85   44   45 1    
    86   44  100 1    
    87   45   46 1    
    88   45   47 1    
    89   45  101 1    
    90   46  102 1    
    91   46  103 1    
    92   46  104 1    
    93   47   48 2    
    94   47   49 am   BACKBONE|DICT|INTERRES
    95   49   50 1    
    96   49  105 1    
    97   50   51 1    
    98   50   52 1    
    99   50  106 1    
   100   51  107 1    
   101   51  108 1    
   102   51  109 1    
   103   52   53 2    
   104   52   54 am   BACKBONE|DICT|INTERRES
   105   54   55 1    
   106   54  110 1    
   107   55   56 1    
   108   55   59 1    
   109   55  111 1    
   110   56   57 am   BACKBONE|DICT|INTERRES
   111   56   58 2    
   112   57  112 1    
   113   57  113 1    
   114   59   60 1    
   115   59  114 1    
   116   59  115 1    
   117   60   61 1    
   118   61  116 1    
   119   61  117 1    
@<TRIPOS>SUBSTRUCTURE
     1 UNK         1 GROUP             0       ****    0 ROOT    
