@<TRIPOS>MOLECULE
3R8
117   119    1
SMALL
USER_CHARGES


@<TRIPOS>ATOM
      1 CA         16.7453  -26.9347  -48.9746 C.3       0 UNK        -0.2013 
      2 C          17.4667  -27.0292  -47.6390 C.2       0 UNK         0.4866 
      3 O          18.6838  -26.8610  -47.5871 O.2       0 UNK        -0.5176 
      4 N          16.7227  -27.2714  -46.5518 N.am      1 UNK        -0.4884 
      5 CA         17.2317  -27.4745  -45.1840 C.3       1 UNK         0.0853 
      6 C6         16.2486  -28.3240  -44.3376 C.3       10 UNK        -0.0849 
      7 S7         16.1971  -30.0391  -44.9713 S.3       10 UNK        -0.2776 
      8 C8         16.9118  -31.0334  -43.6124 C.3       10 UNK         0.0316 
      9 C9         18.1421  -30.4127  -42.9569 C.ar      10 UNK        -0.0863 
     10 C10        18.1474  -30.1889  -41.5770 C.ar      10 UNK        -0.1009 
     11 C11        19.2645  -29.6320  -40.9518 C.ar      10 UNK        -0.0712 
     12 C12        20.3716  -29.2666  -41.7219 C.ar      10 UNK        -0.0894 
     13 C13        20.3789  -29.4663  -43.1038 C.ar      10 UNK        -0.0745 
     14 C14        19.2686  -30.0663  -43.7116 C.ar      10 UNK        -0.0972 
     15 C15        21.5894  -29.0329  -43.9246 C.3       10 UNK         0.0209 
     16 S16        21.1070  -27.8973  -45.2634 S.3       10 UNK        -0.2568 
     17 C17        22.3780  -26.5819  -45.2181 C.3       10 UNK        -0.0983 
     18 CA         21.9148  -25.2538  -44.5524 C.3       3 UNK         0.0876 
     19 N          20.5252  -24.9113  -44.8781 N.am      3 UNK        -0.4424 
     20 C          19.8465  -23.8234  -44.4817 C.2       2 UNK         0.4918 
     21 O          20.3592  -22.8754  -43.8868 O.2       2 UNK        -0.4875 
     22 CA         18.3337  -23.7786  -44.7886 C.3       2 UNK         0.0481 
     23 CB         18.0342  -22.7219  -45.8641 C.3       2 UNK        -0.1831 
     24 N          17.7710  -25.0634  -45.2175 N.am      2 UNK        -0.4498 
     25 C          17.6733  -26.1736  -44.4709 C.2       1 UNK         0.5027 
     26 O          17.9713  -26.2028  -43.2762 O.2       1 UNK        -0.4969 
     27 C          22.1954  -25.2429  -43.0358 C.2       3 UNK         0.5005 
     28 O          23.1906  -24.6459  -42.6223 O.2       3 UNK        -0.5279 
     29 N          21.3001  -25.8606  -42.2472 N.am      4 UNK        -0.4463 
     30 CA         21.1987  -25.8756  -40.7769 C.3       4 UNK         0.0283 
     31 CB         20.8601  -24.4688  -40.2504 C.3       4 UNK        -0.1875 
     32 C          22.3912  -26.4655  -39.9929 C.2       4 UNK         0.4949 
     33 O          22.1705  -27.1615  -39.0016 O.2       4 UNK        -0.5039 
     34 N          23.6247  -26.1785  -40.4167 N.am      5 UNK        -0.4663 
     35 CA         24.8824  -26.5639  -39.7758 C.3       5 UNK         0.0242 
     36 CB         25.9930  -25.6201  -40.2741 C.3       5 UNK        -0.1982 
     37 C          25.2248  -28.0489  -39.9986 C.2       5 UNK         0.5017 
     38 O          26.1916  -28.3589  -40.6979 O.2       5 UNK        -0.5012 
     39 N          24.4234  -28.9327  -39.3885 N.am      6 UNK        -0.4439 
     40 CA         24.5258  -30.3951  -39.4191 C.3       6 UNK         0.0297 
     41 CB         25.7984  -30.8748  -38.6829 C.3       6 UNK        -0.2006 
     42 C          24.3684  -30.9386  -40.8524 C.2       6 UNK         0.4892 
     43 O          23.3422  -30.6635  -41.4752 O.2       6 UNK        -0.5089 
     44 N          25.3561  -31.7026  -41.3422 N.am      7 UNK        -0.4243 
     45 CA         25.4106  -32.3375  -42.6633 C.3       7 UNK         0.0196 
     46 CB         25.5342  -31.2751  -43.7809 C.3       7 UNK        -0.2007 
     47 C          24.2435  -33.3204  -42.8673 C.2       7 UNK         0.5020 
     48 O          24.3232  -34.4544  -42.3952 O.2       7 UNK        -0.5147 
     49 N          23.1844  -32.8704  -43.5504 N.am      8 UNK        -0.4734 
     50 CA         21.9656  -33.6386  -43.8107 C.3       8 UNK         0.0238 
     51 CB         21.2537  -33.0464  -45.0386 C.3       8 UNK        -0.1912 
     52 C          21.0075  -33.7259  -42.6064 C.2       8 UNK         0.5038 
     53 O          20.0669  -34.5195  -42.6710 O.2       8 UNK        -0.5046 
     54 N          21.2355  -32.9280  -41.5506 N.am      9 UNK        -0.4200 
     55 CA         20.4397  -32.9399  -40.3107 C.3       9 UNK         0.0839 
     56 C          20.4421  -34.3150  -39.5850 C.2       9 UNK         0.5513 
     57 N          19.3212  -34.7097  -38.9969 N.am      9 UNK        -0.7519 
     58 O          21.4610  -34.9988  -39.5110 O.2       9 UNK        -0.4960 
     59 C59        20.8573  -31.7998  -39.3384 C.3       10 UNK        -0.0876 
     60 S60        19.4068  -31.0265  -38.5444 S.3       10 UNK        -0.2414 
     61 C61        19.2844  -29.4429  -39.4410 C.3       10 UNK         0.0169 
     62 H62        17.1300  -27.6885  -49.6610 H         1 UNK         0.0903 
     63 H63        15.6713  -27.0878  -48.8706 H         1 UNK         0.0903 
     64 H64        16.9072  -25.9537  -49.4207 H         1 UNK         0.0903 
     65 H65        15.7247  -27.3894  -46.6585 H         1 UNK         0.3096 
     66 H66        18.1555  -28.0476  -45.2731 H         1 UNK         0.1121 
     67 H67        16.5251  -28.3360  -43.2825 H         1 UNK         0.0849 
     68 H68        15.2439  -27.8998  -44.3727 H         1 UNK         0.0849 
     69 H69        16.1293  -31.2035  -42.8713 H         1 UNK         0.0865 
     70 H70        17.1792  -32.0176  -43.9993 H         1 UNK         0.0865 
     71 H71        17.2899  -30.4652  -40.9788 H         1 UNK         0.1346 
     72 H72        21.2411  -28.8433  -41.2400 H         1 UNK         0.1412 
     73 H73        19.2675  -30.2353  -44.7796 H         1 UNK         0.1426 
     74 H74        22.0722  -29.9101  -44.3547 H         1 UNK         0.0716 
     75 H75        22.3336  -28.5566  -43.2843 H         1 UNK         0.0716 
     76 H76        22.6339  -26.3737  -46.2581 H         1 UNK         0.0695 
     77 H77        23.3001  -26.9616  -44.7729 H         1 UNK         0.0695 
     78 H78        22.5272  -24.4522  -44.9711 H         1 UNK         0.0983 
     79 H79        20.0214  -25.6233  -45.3888 H         1 UNK         0.3095 
     80 H80        17.8263  -23.4837  -43.8681 H         1 UNK         0.0454 
     81 H81        18.5063  -22.9692  -46.8158 H         1 UNK         0.0851 
     82 H82        18.4042  -21.7408  -45.5628 H         1 UNK         0.0851 
     83 H83        16.9624  -22.6211  -46.0356 H         1 UNK         0.0851 
     84 H84        17.5318  -25.1479  -46.1953 H         1 UNK         0.2976 
     85 H85        20.5343  -26.3246  -42.7204 H         1 UNK         0.3116 
     86 H86        20.3420  -26.5141  -40.5562 H         1 UNK         0.0646 
     87 H87        20.6968  -24.4832  -39.1719 H         1 UNK         0.0847 
     88 H88        19.9506  -24.0828  -40.7109 H         1 UNK         0.0847 
     89 H89        21.6625  -23.7573  -40.4483 H         1 UNK         0.0847 
     90 H90        23.6923  -25.5937  -41.2498 H         1 UNK         0.3040 
     91 H91        24.7816  -26.4145  -38.6983 H         1 UNK         0.1015 
     92 H92        25.7676  -24.5811  -40.0328 H         1 UNK         0.0786 
     93 H93        26.1272  -25.6903  -41.3544 H         1 UNK         0.0786 
     94 H94        26.9498  -25.8597  -39.8080 H         1 UNK         0.0786 
     95 H95        23.5986  -28.5516  -38.9331 H         1 UNK         0.3172 
     96 H96        23.6693  -30.7689  -38.8580 H         1 UNK         0.0595 
     97 H97        26.7139  -30.5489  -39.1781 H         1 UNK         0.0839 
     98 H98        25.8266  -31.9628  -38.6085 H         1 UNK         0.0839 
     99 H99        25.8253  -30.4900  -37.6634 H         1 UNK         0.0839 
    100 H100       26.1461  -31.8856  -40.7398 H         1 UNK         0.2998 
    101 H101       26.3221  -32.9373  -42.6829 H         1 UNK         0.0822 
    102 H102       24.7059  -30.5661  -43.7835 H         1 UNK         0.0787 
    103 H103       26.4520  -30.6983  -43.6659 H         1 UNK         0.0787 
    104 H104       25.5719  -31.7437  -44.7653 H         1 UNK         0.0787 
    105 H105       23.1916  -31.9055  -43.8476 H         1 UNK         0.3055 
    106 H106       22.2531  -34.6643  -44.0533 H         1 UNK         0.1106 
    107 H107       20.9568  -32.0124  -44.8733 H         1 UNK         0.0828 
    108 H108       21.8936  -33.0751  -45.9207 H         1 UNK         0.0828 
    109 H109       20.3503  -33.6091  -45.2783 H         1 UNK         0.0828 
    110 H110       22.0132  -32.2798  -41.5901 H         1 UNK         0.2931 
    111 H111       19.4175  -32.7516  -40.6461 H         1 UNK         0.0412 
    112 H112       19.3051  -35.5899  -38.5056 H         1 UNK         0.3472 
    113 H113       18.4924  -34.1358  -39.0277 H         1 UNK         0.3472 
    114 H114       21.5411  -32.1524  -38.5637 H         1 UNK         0.0970 
    115 H115       21.4069  -31.0202  -39.8604 H         1 UNK         0.0970 
    116 H116       18.3765  -28.9259  -39.1279 H         1 UNK         0.0612 
    117 H117       20.1173  -28.8071  -39.1417 H         1 UNK         0.0612 
@<TRIPOS>BOND
     1    1    2 1    
     2    1   62 1    
     3    1   63 1    
     4    1   64 1    
     5    2    3 2    
     6    2    4 am   BACKBONE|DICT|INTERRES
     7    4    5 1    
     8    4   65 1    
     9    5    6 1    
    10    5   25 1    
    11    5   66 1    
    12    6    7 1    
    13    6   67 1    
    14    6   68 1    
    15    7    8 1    
    16    8    9 1    
    17    8   69 1    
    18    8   70 1    
    19    9   10 ar   
    20    9   14 ar   
    21   10   11 ar   
    22   10   71 1    
    23   11   12 ar   
    24   11   61 1    
    25   12   13 ar   
    26   12   72 1    
    27   13   14 ar   
    28   13   15 1    
    29   14   73 1    
    30   15   16 1    
    31   15   74 1    
    32   15   75 1    
    33   16   17 1    
    34   17   18 1    
    35   17   76 1    
    36   17   77 1    
    37   18   19 1    
    38   18   27 1    
    39   18   78 1    
    40   19   20 am   BACKBONE|DICT|INTERRES
    41   19   79 1    
    42   20   21 2    
    43   20   22 1    
    44   22   23 1    
    45   22   24 1    
    46   22   80 1    
    47   23   81 1    
    48   23   82 1    
    49   23   83 1    
    50   24   25 am   BACKBONE|DICT|INTERRES
    51   24   84 1    
    52   25   26 2    
    53   27   28 2    
    54   27   29 am   BACKBONE|DICT|INTERRES
    55   29   30 1    
    56   29   85 1    
    57   30   31 1    
    58   30   32 1    
    59   30   86 1    
    60   31   87 1    
    61   31   88 1    
    62   31   89 1    
    63   32   33 2    
    64   32   34 am   BACKBONE|DICT|INTERRES
    65   34   35 1    
    66   34   90 1    
    67   35   36 1    
    68   35   37 1    
    69   35   91 1    
    70   36   92 1    
    71   36   93 1    
    72   36   94 1    
    73   37   38 2    
    74   37   39 am   BACKBONE|DICT|INTERRES
    75   39   40 1    
    76   39   95 1    
    77   40   41 1    
    78   40   42 1    
    79   40   96 1    
    80   41   97 1    
    81   41   98 1    
    82   41   99 1    
    83   42   43 2    
    84   42   44 am   BACKBONE|DICT|INTERRES
    85   44   45 1    
    86   44  100 1    
    87   45   46 1    
    88   45   47 1    
    89   45  101 1    
    90   46  102 1    
    91   46  103 1    
    92   46  104 1    
    93   47   48 2    
    94   47   49 am   BACKBONE|DICT|INTERRES
    95   49   50 1    
    96   49  105 1    
    97   50   51 1    
    98   50   52 1    
    99   50  106 1    
   100   51  107 1    
   101   51  108 1    
   102   51  109 1    
   103   52   53 2    
   104   52   54 am   BACKBONE|DICT|INTERRES
   105   54   55 1    
   106   54  110 1    
   107   55   56 1    
   108   55   59 1    
   109   55  111 1    
   110   56   57 am   BACKBONE|DICT|INTERRES
   111   56   58 2    
   112   57  112 1    
   113   57  113 1    
   114   59   60 1    
   115   59  114 1    
   116   59  115 1    
   117   60   61 1    
   118   61  116 1    
   119   61  117 1    
@<TRIPOS>SUBSTRUCTURE
     1 UNK         1 GROUP             0       ****    0 ROOT    
