@<TRIPOS>MOLECULE
3R8
117   119    1
SMALL
USER_CHARGES


@<TRIPOS>ATOM
      1 CA         15.3515  -28.0908  -41.8089 C.3       0 UNK        -0.2013 
      2 C          15.4051  -26.8986  -42.7524 C.2       0 UNK         0.4866 
      3 O          14.4290  -26.1544  -42.8494 O.2       0 UNK        -0.5176 
      4 N          16.5346  -26.7066  -43.4422 N.am      1 UNK        -0.4884 
      5 CA         16.7926  -25.5752  -44.3313 C.3       1 UNK         0.0853 
      6 C6         16.0715  -25.6891  -45.7065 C.3       10 UNK        -0.0849 
      7 S7         16.8137  -26.8063  -46.9447 S.3       10 UNK        -0.2776 
      8 C8         16.3082  -28.4647  -46.3696 C.3       10 UNK         0.0316 
      9 C9         17.4662  -29.2216  -45.7275 C.ar      10 UNK        -0.0863 
     10 C10        17.3179  -29.8465  -44.4866 C.ar      10 UNK        -0.1009 
     11 C11        18.3794  -30.5452  -43.8993 C.ar      10 UNK        -0.0712 
     12 C12        19.6064  -30.6069  -44.5779 C.ar      10 UNK        -0.0894 
     13 C13        19.7733  -29.9859  -45.8197 C.ar      10 UNK        -0.0745 
     14 C14        18.6876  -29.3211  -46.3952 C.ar      10 UNK        -0.0972 
     15 C15        21.1112  -30.0695  -46.5517 C.3       10 UNK         0.0209 
     16 S16        21.5491  -28.5207  -47.4185 S.3       10 UNK        -0.2568 
     17 C17        22.8890  -27.8282  -46.3931 C.3       10 UNK        -0.0983 
     18 CA         22.4488  -27.0012  -45.1524 C.3       3 UNK         0.0876 
     19 N          21.3451  -26.0765  -45.4378 N.am      3 UNK        -0.4424 
     20 C          21.3309  -24.7848  -45.0868 C.2       2 UNK         0.4918 
     21 O          22.2342  -24.2385  -44.4526 O.2       2 UNK        -0.4875 
     22 CA         20.1071  -23.9464  -45.5051 C.3       2 UNK         0.0481 
     23 CB         20.2953  -23.4195  -46.9369 C.3       2 UNK        -0.1831 
     24 N          18.7890  -24.5883  -45.3980 N.am      2 UNK        -0.4498 
     25 C          18.3058  -25.2677  -44.3477 C.2       1 UNK         0.5027 
     26 O          18.9973  -25.6174  -43.3885 O.2       1 UNK        -0.4969 
     27 C          22.2120  -27.8743  -43.9031 C.2       3 UNK         0.5005 
     28 O          23.0316  -28.7572  -43.6447 O.2       3 UNK        -0.5279 
     29 N          21.1550  -27.6206  -43.1136 N.am      4 UNK        -0.4463 
     30 CA         20.8214  -28.4108  -41.9188 C.3       4 UNK         0.0283 
     31 CB         19.4775  -27.9546  -41.3362 C.3       4 UNK        -0.1875 
     32 C          21.9017  -28.4117  -40.8262 C.2       4 UNK         0.4949 
     33 O          22.0680  -29.4237  -40.1449 O.2       4 UNK        -0.5039 
     34 N          22.6315  -27.2959  -40.6984 N.am      5 UNK        -0.4663 
     35 CA         23.7660  -27.1542  -39.7831 C.3       5 UNK         0.0242 
     36 CB         24.0549  -25.6603  -39.5655 C.3       5 UNK        -0.1982 
     37 C          25.0306  -27.8793  -40.2771 C.2       5 UNK         0.5017 
     38 O          25.8338  -28.3104  -39.4502 O.2       5 UNK        -0.5012 
     39 N          25.1864  -28.0000  -41.6033 N.am      6 UNK        -0.4439 
     40 CA         26.3052  -28.6887  -42.2507 C.3       6 UNK         0.0297 
     41 CB         26.4988  -28.1422  -43.6753 C.3       6 UNK        -0.2006 
     42 C          26.0884  -30.2085  -42.2714 C.2       6 UNK         0.4892 
     43 O          27.0192  -30.9597  -41.9796 O.2       6 UNK        -0.5089 
     44 N          24.8567  -30.6274  -42.5921 N.am      7 UNK        -0.4243 
     45 CA         24.4088  -32.0208  -42.5658 C.3       7 UNK         0.0196 
     46 CB         23.0865  -32.1235  -43.3387 C.3       7 UNK        -0.2007 
     47 C          24.2345  -32.5760  -41.1409 C.2       7 UNK         0.5020 
     48 O          24.2712  -33.7945  -40.9694 O.2       7 UNK        -0.5147 
     49 N          24.0448  -31.6784  -40.1617 N.am      8 UNK        -0.4734 
     50 CA         23.7796  -31.9353  -38.7427 C.3       8 UNK         0.0238 
     51 CB         24.9821  -32.6274  -38.0655 C.3       8 UNK        -0.1912 
     52 C          22.4486  -32.6821  -38.5447 C.2       8 UNK         0.5038 
     53 O          22.4221  -33.7541  -37.9359 O.2       8 UNK        -0.5046 
     54 N          21.3697  -32.0989  -39.0847 N.am      9 UNK        -0.4200 
     55 CA         20.0006  -32.6401  -39.0155 C.3       9 UNK         0.0839 
     56 C          19.3789  -32.6673  -37.5877 C.2       9 UNK         0.5513 
     57 N          19.8974  -31.9205  -36.6198 N.am      9 UNK        -0.7519 
     58 O          18.4058  -33.3805  -37.3574 O.2       9 UNK        -0.4960 
     59 C59        19.0378  -31.9236  -39.9972 C.3       10 UNK        -0.0876 
     60 S60        19.5775  -31.9885  -41.7370 S.3       10 UNK        -0.2414 
     61 C61        18.1350  -31.2009  -42.5362 C.3       10 UNK         0.0169 
     62 H62        14.6834  -28.8547  -42.2053 H         1 UNK         0.0903 
     63 H63        16.3329  -28.5359  -41.6579 H         1 UNK         0.0903 
     64 H64        14.9733  -27.7810  -40.8349 H         1 UNK         0.0903 
     65 H65        17.3341  -27.3096  -43.3055 H         1 UNK         0.3096 
     66 H66        16.3677  -24.6979  -43.8374 H         1 UNK         0.1121 
     67 H67        15.0291  -25.9765  -45.5616 H         1 UNK         0.0849 
     68 H68        16.0185  -24.6999  -46.1640 H         1 UNK         0.0849 
     69 H69        15.4625  -28.3826  -45.6855 H         1 UNK         0.0865 
     70 H70        15.9537  -29.0385  -47.2268 H         1 UNK         0.0865 
     71 H71        16.3661  -29.7973  -43.9765 H         1 UNK         0.1346 
     72 H72        20.4411  -31.1395  -44.1504 H         1 UNK         0.1412 
     73 H73        18.7933  -28.8627  -47.3686 H         1 UNK         0.1426 
     74 H74        21.0495  -30.8724  -47.2871 H         1 UNK         0.0716 
     75 H75        21.9115  -30.3432  -45.8632 H         1 UNK         0.0716 
     76 H76        23.5932  -28.6207  -46.1323 H         1 UNK         0.0695 
     77 H77        23.4542  -27.1681  -47.0527 H         1 UNK         0.0695 
     78 H78        23.3283  -26.4140  -44.8793 H         1 UNK         0.0983 
     79 H79        20.5636  -26.4598  -45.9510 H         1 UNK         0.3095 
     80 H80        20.0779  -23.0833  -44.8373 H         1 UNK         0.0454 
     81 H81        21.2574  -22.9167  -47.0471 H         1 UNK         0.0851 
     82 H82        20.2639  -24.2262  -47.6705 H         1 UNK         0.0851 
     83 H83        19.5246  -22.6952  -47.2004 H         1 UNK         0.0851 
     84 H84        18.1519  -24.4035  -46.1597 H         1 UNK         0.2976 
     85 H85        20.5201  -26.8640  -43.3536 H         1 UNK         0.3116 
     86 H86        20.7157  -29.4431  -42.2472 H         1 UNK         0.0646 
     87 H87        19.2071  -28.5450  -40.4603 H         1 UNK         0.0847 
     88 H88        18.6800  -28.0740  -42.0658 H         1 UNK         0.0847 
     89 H89        19.5032  -26.9083  -41.0296 H         1 UNK         0.0847 
     90 H90        22.4088  -26.5068  -41.2883 H         1 UNK         0.3040 
     91 H91        23.4917  -27.5933  -38.8208 H         1 UNK         0.1015 
     92 H92        23.1898  -25.1461  -39.1462 H         1 UNK         0.0786 
     93 H93        24.3258  -25.1596  -40.4960 H         1 UNK         0.0786 
     94 H94        24.8819  -25.5207  -38.8676 H         1 UNK         0.0786 
     95 H95        24.4373  -27.6855  -42.2041 H         1 UNK         0.3172 
     96 H96        27.2183  -28.4851  -41.6868 H         1 UNK         0.0595 
     97 H97        27.3504  -28.6206  -44.1610 H         1 UNK         0.0839 
     98 H98        26.6937  -27.0698  -43.6655 H         1 UNK         0.0839 
     99 H99        25.6264  -28.3190  -44.3050 H         1 UNK         0.0839 
    100 H100       24.1662  -29.9352  -42.8811 H         1 UNK         0.2998 
    101 H101       25.1569  -32.6344  -43.0721 H         1 UNK         0.0822 
    102 H102       23.2102  -31.8197  -44.3779 H         1 UNK         0.0787 
    103 H103       22.7047  -33.1453  -43.3388 H         1 UNK         0.0787 
    104 H104       22.3241  -31.4871  -42.8896 H         1 UNK         0.0787 
    105 H105       23.9627  -30.7094  -40.4406 H         1 UNK         0.3055 
    106 H106       23.6568  -30.9589  -38.2705 H         1 UNK         0.1106 
    107 H107       25.1491  -33.6323  -38.4541 H         1 UNK         0.0828 
    108 H108       25.8991  -32.0557  -38.2087 H         1 UNK         0.0828 
    109 H109       24.8217  -32.7196  -36.9907 H         1 UNK         0.0828 
    110 H110       21.4874  -31.2134  -39.5684 H         1 UNK         0.2931 
    111 H111       20.0647  -33.6829  -39.3326 H         1 UNK         0.0412 
    112 H112       19.4872  -31.9493  -35.6994 H         1 UNK         0.3472 
    113 H113       20.6917  -31.3281  -36.8004 H         1 UNK         0.3472 
    114 H114       18.0421  -32.3692  -39.9435 H         1 UNK         0.0970 
    115 H115       18.9207  -30.8776  -39.7089 H         1 UNK         0.0970 
    116 H116       17.3511  -31.9521  -42.6409 H         1 UNK         0.0612 
    117 H117       17.7441  -30.4399  -41.8612 H         1 UNK         0.0612 
@<TRIPOS>BOND
     1    1    2 1    
     2    1   62 1    
     3    1   63 1    
     4    1   64 1    
     5    2    3 2    
     6    2    4 am   BACKBONE|DICT|INTERRES
     7    4    5 1    
     8    4   65 1    
     9    5    6 1    
    10    5   25 1    
    11    5   66 1    
    12    6    7 1    
    13    6   67 1    
    14    6   68 1    
    15    7    8 1    
    16    8    9 1    
    17    8   69 1    
    18    8   70 1    
    19    9   10 ar   
    20    9   14 ar   
    21   10   11 ar   
    22   10   71 1    
    23   11   12 ar   
    24   11   61 1    
    25   12   13 ar   
    26   12   72 1    
    27   13   14 ar   
    28   13   15 1    
    29   14   73 1    
    30   15   16 1    
    31   15   74 1    
    32   15   75 1    
    33   16   17 1    
    34   17   18 1    
    35   17   76 1    
    36   17   77 1    
    37   18   19 1    
    38   18   27 1    
    39   18   78 1    
    40   19   20 am   BACKBONE|DICT|INTERRES
    41   19   79 1    
    42   20   21 2    
    43   20   22 1    
    44   22   23 1    
    45   22   24 1    
    46   22   80 1    
    47   23   81 1    
    48   23   82 1    
    49   23   83 1    
    50   24   25 am   BACKBONE|DICT|INTERRES
    51   24   84 1    
    52   25   26 2    
    53   27   28 2    
    54   27   29 am   BACKBONE|DICT|INTERRES
    55   29   30 1    
    56   29   85 1    
    57   30   31 1    
    58   30   32 1    
    59   30   86 1    
    60   31   87 1    
    61   31   88 1    
    62   31   89 1    
    63   32   33 2    
    64   32   34 am   BACKBONE|DICT|INTERRES
    65   34   35 1    
    66   34   90 1    
    67   35   36 1    
    68   35   37 1    
    69   35   91 1    
    70   36   92 1    
    71   36   93 1    
    72   36   94 1    
    73   37   38 2    
    74   37   39 am   BACKBONE|DICT|INTERRES
    75   39   40 1    
    76   39   95 1    
    77   40   41 1    
    78   40   42 1    
    79   40   96 1    
    80   41   97 1    
    81   41   98 1    
    82   41   99 1    
    83   42   43 2    
    84   42   44 am   BACKBONE|DICT|INTERRES
    85   44   45 1    
    86   44  100 1    
    87   45   46 1    
    88   45   47 1    
    89   45  101 1    
    90   46  102 1    
    91   46  103 1    
    92   46  104 1    
    93   47   48 2    
    94   47   49 am   BACKBONE|DICT|INTERRES
    95   49   50 1    
    96   49  105 1    
    97   50   51 1    
    98   50   52 1    
    99   50  106 1    
   100   51  107 1    
   101   51  108 1    
   102   51  109 1    
   103   52   53 2    
   104   52   54 am   BACKBONE|DICT|INTERRES
   105   54   55 1    
   106   54  110 1    
   107   55   56 1    
   108   55   59 1    
   109   55  111 1    
   110   56   57 am   BACKBONE|DICT|INTERRES
   111   56   58 2    
   112   57  112 1    
   113   57  113 1    
   114   59   60 1    
   115   59  114 1    
   116   59  115 1    
   117   60   61 1    
   118   61  116 1    
   119   61  117 1    
@<TRIPOS>SUBSTRUCTURE
     1 UNK         1 GROUP             0       ****    0 ROOT    
