@<TRIPOS>MOLECULE
3R8
117   119    1
SMALL
USER_CHARGES


@<TRIPOS>ATOM
      1 CA         12.0934  -24.4685  -46.4922 C.3       0 UNK        -0.2013 
      2 C          13.5251  -24.9346  -46.7113 C.2       0 UNK         0.4866 
      3 O          14.0920  -24.6913  -47.7774 O.2       0 UNK        -0.5176 
      4 N          14.1105  -25.6109  -45.7155 N.am      1 UNK        -0.4884 
      5 CA         15.4960  -26.0902  -45.7343 C.3       1 UNK         0.0853 
      6 C6         15.7769  -27.0829  -44.5802 C.3       10 UNK        -0.0849 
      7 S7         14.9121  -28.6743  -44.7607 S.3       10 UNK        -0.2776 
      8 C8         14.9220  -29.2727  -43.0373 C.3       10 UNK         0.0316 
      9 C9         16.3233  -29.3036  -42.4356 C.ar      10 UNK        -0.0863 
     10 C10        17.2004  -30.3519  -42.7298 C.ar      10 UNK        -0.1009 
     11 C11        18.4778  -30.3911  -42.1594 C.ar      10 UNK        -0.0712 
     12 C12        18.8821  -29.3630  -41.3018 C.ar      10 UNK        -0.0894 
     13 C13        18.0159  -28.3071  -41.0051 C.ar      10 UNK        -0.0745 
     14 C14        16.7368  -28.2879  -41.5680 C.ar      10 UNK        -0.0972 
     15 C15        18.4390  -27.1990  -40.0531 C.3       10 UNK         0.0209 
     16 S16        18.8182  -25.6558  -40.9412 S.3       10 UNK        -0.2568 
     17 C17        20.5334  -25.9379  -41.4971 C.3       10 UNK        -0.0983 
     18 CA         20.6480  -26.3135  -42.9960 C.3       3 UNK         0.0876 
     19 N          19.9729  -25.3457  -43.8671 N.am      3 UNK        -0.4424 
     20 C          19.7793  -25.5101  -45.1803 C.2       2 UNK         0.4918 
     21 O          20.1687  -26.4896  -45.8204 O.2       2 UNK        -0.4875 
     22 CA         18.9220  -24.4544  -45.8874 C.3       2 UNK         0.0481 
     23 CB         19.5973  -23.9367  -47.1687 C.3       2 UNK        -0.1831 
     24 N          17.6807  -25.1398  -46.2263 N.am      2 UNK        -0.4498 
     25 C          16.5042  -24.9296  -45.6274 C.2       1 UNK         0.5027 
     26 O          16.2420  -23.9407  -44.9373 O.2       1 UNK        -0.4969 
     27 C          22.1327  -26.4696  -43.3821 C.2       3 UNK         0.5005 
     28 O          22.8101  -25.4635  -43.6134 O.2       3 UNK        -0.5279 
     29 N          22.6166  -27.7168  -43.4178 N.am      4 UNK        -0.4463 
     30 CA         24.0273  -28.0426  -43.6279 C.3       4 UNK         0.0283 
     31 CB         24.1412  -29.5278  -44.0025 C.3       4 UNK        -0.1875 
     32 C          24.8522  -27.7645  -42.3625 C.2       4 UNK         0.4949 
     33 O          24.3197  -27.8476  -41.2536 O.2       4 UNK        -0.5039 
     34 N          26.1592  -27.5295  -42.5419 N.am      5 UNK        -0.4663 
     35 CA         27.1321  -27.3321  -41.4561 C.3       5 UNK         0.0242 
     36 CB         28.4875  -26.9278  -42.0583 C.3       5 UNK        -0.1982 
     37 C          27.2957  -28.5562  -40.5328 C.2       5 UNK         0.5017 
     38 O          27.6784  -28.3953  -39.3740 O.2       5 UNK        -0.5012 
     39 N          26.9716  -29.7473  -41.0552 N.am      6 UNK        -0.4439 
     40 CA         26.9001  -31.0111  -40.3198 C.3       6 UNK         0.0297 
     41 CB         26.9005  -32.1703  -41.3320 C.3       6 UNK        -0.2006 
     42 C          25.6774  -31.1239  -39.3863 C.2       6 UNK         0.4892 
     43 O          25.6306  -32.0670  -38.5959 O.2       6 UNK        -0.5089 
     44 N          24.6964  -30.2139  -39.5155 N.am      7 UNK        -0.4243 
     45 CA         23.4177  -30.1132  -38.7924 C.3       7 UNK         0.0196 
     46 CB         23.6314  -29.9495  -37.2752 C.3       7 UNK        -0.2007 
     47 C          22.4177  -31.2435  -39.0956 C.2       7 UNK         0.5020 
     48 O          21.2368  -30.9641  -39.2922 O.2       7 UNK        -0.5147 
     49 N          22.8987  -32.4899  -39.1501 N.am      8 UNK        -0.4734 
     50 CA         22.1262  -33.6829  -39.5084 C.3       8 UNK         0.0238 
     51 CB         22.8108  -34.9149  -38.8931 C.3       8 UNK        -0.1912 
     52 C          21.9565  -33.8652  -41.0285 C.2       8 UNK         0.5038 
     53 O          21.1505  -34.7003  -41.4396 O.2       8 UNK        -0.5046 
     54 N          22.7196  -33.1032  -41.8263 N.am      9 UNK        -0.4200 
     55 CA         22.7707  -33.1491  -43.2997 C.3       9 UNK         0.0839 
     56 C          23.3744  -34.4637  -43.8845 C.2       9 UNK         0.5513 
     57 N          24.0986  -35.2610  -43.1079 N.am      9 UNK        -0.7519 
     58 O          23.2156  -34.7529  -45.0678 O.2       9 UNK        -0.4960 
     59 C59        21.4281  -32.7519  -43.9822 C.3       10 UNK        -0.0876 
     60 S60        20.8037  -31.1023  -43.4989 S.3       10 UNK        -0.2414 
     61 C61        19.4029  -31.5666  -42.4344 C.3       10 UNK         0.0169 
     62 H62        11.4395  -24.8941  -47.2529 H         1 UNK         0.0903 
     63 H63        11.7130  -24.7641  -45.5145 H         1 UNK         0.0903 
     64 H64        12.0378  -23.3826  -46.5633 H         1 UNK         0.0903 
     65 H65        13.6027  -25.7757  -44.8583 H         1 UNK         0.3096 
     66 H66        15.6613  -26.6002  -46.6865 H         1 UNK         0.1121 
     67 H67        15.5059  -26.6302  -43.6244 H         1 UNK         0.0849 
     68 H68        16.8427  -27.3155  -44.5127 H         1 UNK         0.0849 
     69 H69        14.2626  -28.6435  -42.4372 H         1 UNK         0.0865 
     70 H70        14.4900  -30.2741  -43.0078 H         1 UNK         0.0865 
     71 H71        16.8813  -31.1430  -43.3948 H         1 UNK         0.1346 
     72 H72        19.8673  -29.3949  -40.8575 H         1 UNK         0.1412 
     73 H73        16.0646  -27.4747  -41.3297 H         1 UNK         0.1426 
     74 H74        19.2924  -27.5047  -39.4458 H         1 UNK         0.0716 
     75 H75        17.6264  -27.0044  -39.3515 H         1 UNK         0.0716 
     76 H76        21.0925  -25.0224  -41.2926 H         1 UNK         0.0695 
     77 H77        20.9915  -26.7105  -40.8764 H         1 UNK         0.0695 
     78 H78        20.1499  -27.2749  -43.1433 H         1 UNK         0.0983 
     79 H79        19.6047  -24.5244  -43.4102 H         1 UNK         0.3095 
     80 H80        18.7466  -23.6102  -45.2170 H         1 UNK         0.0454 
     81 H81        20.5451  -23.4491  -46.9377 H         1 UNK         0.0851 
     82 H82        19.8074  -24.7404  -47.8756 H         1 UNK         0.0851 
     83 H83        18.9697  -23.2037  -47.6755 H         1 UNK         0.0851 
     84 H84        17.8078  -25.9990  -46.7448 H         1 UNK         0.2976 
     85 H85        22.0061  -28.4898  -43.1931 H         1 UNK         0.3116 
     86 H86        24.4127  -27.4365  -44.4508 H         1 UNK         0.0646 
     87 H87        25.1686  -29.7968  -44.2501 H         1 UNK         0.0847 
     88 H88        23.5270  -29.7704  -44.8702 H         1 UNK         0.0847 
     89 H89        23.8248  -30.1655  -43.1770 H         1 UNK         0.0847 
     90 H90        26.5205  -27.4847  -43.4849 H         1 UNK         0.3040 
     91 H91        26.7722  -26.5093  -40.8342 H         1 UNK         0.1015 
     92 H92        28.4061  -26.0088  -42.6393 H         1 UNK         0.0786 
     93 H93        28.8887  -27.7047  -42.7103 H         1 UNK         0.0786 
     94 H94        29.2248  -26.7476  -41.2744 H         1 UNK         0.0786 
     95 H95        26.6958  -29.7692  -42.0256 H         1 UNK         0.3172 
     96 H96        27.7933  -31.0977  -39.6975 H         1 UNK         0.0595 
     97 H97        27.7951  -32.1531  -41.9549 H         1 UNK         0.0839 
     98 H98        26.0318  -32.1367  -41.9907 H         1 UNK         0.0839 
     99 H99        26.8853  -33.1355  -40.8233 H         1 UNK         0.0839 
    100 H100       24.8264  -29.4793  -40.2046 H         1 UNK         0.2998 
    101 H101       22.9568  -29.1924  -39.1545 H         1 UNK         0.0822 
    102 H102       22.6834  -29.7643  -36.7684 H         1 UNK         0.0787 
    103 H103       24.0696  -30.8398  -36.8234 H         1 UNK         0.0787 
    104 H104       24.2860  -29.1056  -37.0572 H         1 UNK         0.0787 
    105 H105       23.8860  -32.6136  -38.9339 H         1 UNK         0.3055 
    106 H106       21.1243  -33.5959  -39.0816 H         1 UNK         0.1106 
    107 H107       23.8237  -35.0483  -39.2751 H         1 UNK         0.0828 
    108 H108       22.8704  -34.8335  -37.8077 H         1 UNK         0.0828 
    109 H109       22.2543  -35.8262  -39.1170 H         1 UNK         0.0828 
    110 H110       23.3437  -32.4476  -41.3830 H         1 UNK         0.2931 
    111 H111       23.5002  -32.3905  -43.5785 H         1 UNK         0.0412 
    112 H112       24.4937  -36.1022  -43.4985 H         1 UNK         0.3472 
    113 H113       24.2474  -35.0372  -42.1378 H         1 UNK         0.3472 
    114 H114       20.6683  -33.5124  -43.7978 H         1 UNK         0.0970 
    115 H115       21.5544  -32.7265  -45.0660 H         1 UNK         0.0970 
    116 H116       19.7813  -31.9550  -41.4888 H         1 UNK         0.0612 
    117 H117       18.8447  -32.3795  -42.9010 H         1 UNK         0.0612 
@<TRIPOS>BOND
     1    1    2 1    
     2    1   62 1    
     3    1   63 1    
     4    1   64 1    
     5    2    3 2    
     6    2    4 am   BACKBONE|DICT|INTERRES
     7    4    5 1    
     8    4   65 1    
     9    5    6 1    
    10    5   25 1    
    11    5   66 1    
    12    6    7 1    
    13    6   67 1    
    14    6   68 1    
    15    7    8 1    
    16    8    9 1    
    17    8   69 1    
    18    8   70 1    
    19    9   10 ar   
    20    9   14 ar   
    21   10   11 ar   
    22   10   71 1    
    23   11   12 ar   
    24   11   61 1    
    25   12   13 ar   
    26   12   72 1    
    27   13   14 ar   
    28   13   15 1    
    29   14   73 1    
    30   15   16 1    
    31   15   74 1    
    32   15   75 1    
    33   16   17 1    
    34   17   18 1    
    35   17   76 1    
    36   17   77 1    
    37   18   19 1    
    38   18   27 1    
    39   18   78 1    
    40   19   20 am   BACKBONE|DICT|INTERRES
    41   19   79 1    
    42   20   21 2    
    43   20   22 1    
    44   22   23 1    
    45   22   24 1    
    46   22   80 1    
    47   23   81 1    
    48   23   82 1    
    49   23   83 1    
    50   24   25 am   BACKBONE|DICT|INTERRES
    51   24   84 1    
    52   25   26 2    
    53   27   28 2    
    54   27   29 am   BACKBONE|DICT|INTERRES
    55   29   30 1    
    56   29   85 1    
    57   30   31 1    
    58   30   32 1    
    59   30   86 1    
    60   31   87 1    
    61   31   88 1    
    62   31   89 1    
    63   32   33 2    
    64   32   34 am   BACKBONE|DICT|INTERRES
    65   34   35 1    
    66   34   90 1    
    67   35   36 1    
    68   35   37 1    
    69   35   91 1    
    70   36   92 1    
    71   36   93 1    
    72   36   94 1    
    73   37   38 2    
    74   37   39 am   BACKBONE|DICT|INTERRES
    75   39   40 1    
    76   39   95 1    
    77   40   41 1    
    78   40   42 1    
    79   40   96 1    
    80   41   97 1    
    81   41   98 1    
    82   41   99 1    
    83   42   43 2    
    84   42   44 am   BACKBONE|DICT|INTERRES
    85   44   45 1    
    86   44  100 1    
    87   45   46 1    
    88   45   47 1    
    89   45  101 1    
    90   46  102 1    
    91   46  103 1    
    92   46  104 1    
    93   47   48 2    
    94   47   49 am   BACKBONE|DICT|INTERRES
    95   49   50 1    
    96   49  105 1    
    97   50   51 1    
    98   50   52 1    
    99   50  106 1    
   100   51  107 1    
   101   51  108 1    
   102   51  109 1    
   103   52   53 2    
   104   52   54 am   BACKBONE|DICT|INTERRES
   105   54   55 1    
   106   54  110 1    
   107   55   56 1    
   108   55   59 1    
   109   55  111 1    
   110   56   57 am   BACKBONE|DICT|INTERRES
   111   56   58 2    
   112   57  112 1    
   113   57  113 1    
   114   59   60 1    
   115   59  114 1    
   116   59  115 1    
   117   60   61 1    
   118   61  116 1    
   119   61  117 1    
@<TRIPOS>SUBSTRUCTURE
     1 UNK         1 GROUP             0       ****    0 ROOT    
