@<TRIPOS>MOLECULE
3R8
117   119    1
SMALL
USER_CHARGES


@<TRIPOS>ATOM
      1 CA         15.0968  -21.9854  -42.9796 C.3       0 UNK        -0.2013 
      2 C          15.6136  -23.1552  -43.8039 C.2       0 UNK         0.4866 
      3 O          15.1545  -23.3629  -44.9277 O.2       0 UNK        -0.5176 
      4 N          16.5578  -23.9268  -43.2516 N.am      1 UNK        -0.4884 
      5 CA         17.2042  -25.0627  -43.9168 C.3       1 UNK         0.0853 
      6 C6         17.9873  -25.9448  -42.9119 C.3       10 UNK        -0.0849 
      7 S7         16.8998  -26.7955  -41.7173 S.3       10 UNK        -0.2776 
      8 C8         16.2968  -28.2292  -42.6741 C.3       10 UNK         0.0316 
      9 C9         17.4141  -29.1926  -43.0517 C.ar      10 UNK        -0.0863 
     10 C10        17.8625  -30.1472  -42.1336 C.ar      10 UNK        -0.1009 
     11 C11        18.8894  -31.0308  -42.4784 C.ar      10 UNK        -0.0712 
     12 C12        19.4729  -30.9500  -43.7457 C.ar      10 UNK        -0.0894 
     13 C13        19.0404  -29.9946  -44.6692 C.ar      10 UNK        -0.0745 
     14 C14        17.9956  -29.1333  -44.3225 C.ar      10 UNK        -0.0972 
     15 C15        19.7026  -29.8801  -46.0374 C.3       10 UNK         0.0209 
     16 S16        21.5243  -29.7488  -45.9642 S.3       10 UNK        -0.2568 
     17 C17        21.8213  -28.4168  -44.7494 C.3       10 UNK        -0.0983 
     18 CA         21.9682  -27.0258  -45.4099 C.3       3 UNK         0.0876 
     19 N          20.7011  -26.5679  -45.9799 N.am      3 UNK        -0.4424 
     20 C          20.5695  -25.6031  -46.8990 C.2       2 UNK         0.4918 
     21 O          21.5182  -25.0557  -47.4618 O.2       2 UNK        -0.4875 
     22 CA         19.1316  -25.1761  -47.2505 C.3       2 UNK         0.0481 
     23 CB         18.6306  -25.9516  -48.4795 C.3       2 UNK        -0.1831 
     24 N          18.1938  -25.3694  -46.1386 N.am      2 UNK        -0.4498 
     25 C          18.1426  -24.5912  -45.0467 C.2       1 UNK         0.5027 
     26 O          18.8215  -23.5724  -44.8956 O.2       1 UNK        -0.4969 
     27 C          22.4808  -25.9978  -44.3821 C.2       3 UNK         0.5005 
     28 O          21.6773  -25.3165  -43.7396 O.2       3 UNK        -0.5279 
     29 N          23.8100  -25.9279  -44.2242 N.am      4 UNK        -0.4463 
     30 CA         24.4944  -25.0055  -43.3108 C.3       4 UNK         0.0283 
     31 CB         26.0035  -25.0282  -43.6046 C.3       4 UNK        -0.1875 
     32 C          24.2376  -25.2862  -41.8184 C.2       4 UNK         0.4949 
     33 O          24.3263  -24.3595  -41.0122 O.2       4 UNK        -0.5039 
     34 N          23.9288  -26.5415  -41.4744 N.am      5 UNK        -0.4663 
     35 CA         23.6050  -26.9931  -40.1257 C.3       5 UNK         0.0242 
     36 CB         24.8997  -27.2031  -39.3158 C.3       5 UNK        -0.1982 
     37 C          22.8075  -28.2974  -40.2155 C.2       5 UNK         0.5017 
     38 O          22.9068  -29.0103  -41.2184 O.2       5 UNK        -0.5012 
     39 N          22.0868  -28.6208  -39.1327 N.am      6 UNK        -0.4439 
     40 CA         21.3327  -29.8700  -38.9653 C.3       6 UNK         0.0297 
     41 CB         20.4326  -29.7613  -37.7246 C.3       6 UNK        -0.2006 
     42 C          22.2184  -31.1295  -38.8827 C.2       6 UNK         0.4892 
     43 O          21.7143  -32.2334  -39.0845 O.2       6 UNK        -0.5089 
     44 N          23.5252  -30.9459  -38.6403 N.am      7 UNK        -0.4243 
     45 CA         24.5645  -31.9807  -38.6681 C.3       7 UNK         0.0196 
     46 CB         25.8939  -31.3579  -38.2103 C.3       7 UNK        -0.2007 
     47 C          24.7362  -32.6740  -40.0357 C.2       7 UNK         0.5020 
     48 O          25.3540  -33.7370  -40.0932 O.2       7 UNK        -0.5147 
     49 N          24.1819  -32.0839  -41.1059 N.am      8 UNK        -0.4734 
     50 CA         24.0770  -32.6874  -42.4365 C.3       8 UNK         0.0238 
     51 CB         23.5834  -31.6199  -43.4265 C.3       8 UNK        -0.1912 
     52 C          23.1605  -33.9272  -42.4827 C.2       8 UNK         0.5038 
     53 O          23.3465  -34.7705  -43.3609 O.2       8 UNK        -0.5046 
     54 N          22.1994  -34.0182  -41.5539 N.am      9 UNK        -0.4200 
     55 CA         21.3002  -35.1653  -41.3857 C.3       9 UNK         0.0839 
     56 C          21.9685  -36.2455  -40.4983 C.2       9 UNK         0.5513 
     57 N          21.8953  -37.5085  -40.8949 N.am      9 UNK        -0.7519 
     58 O          22.5120  -35.9553  -39.4349 O.2       9 UNK        -0.4960 
     59 C59        19.9324  -34.7322  -40.7968 C.3       10 UNK        -0.0876 
     60 S60        18.9561  -33.7466  -41.9809 S.3       10 UNK        -0.2414 
     61 C61        19.3989  -32.0559  -41.4811 C.3       10 UNK         0.0169 
     62 H62        14.0229  -22.0825  -42.8223 H         1 UNK         0.0903 
     63 H63        15.5785  -21.9295  -42.0036 H         1 UNK         0.0903 
     64 H64        15.2814  -21.0476  -43.5029 H         1 UNK         0.0903 
     65 H65        16.9059  -23.7065  -42.3294 H         1 UNK         0.3096 
     66 H66        16.4156  -25.6664  -44.3709 H         1 UNK         0.1121 
     67 H67        18.6943  -25.3327  -42.3480 H         1 UNK         0.0849 
     68 H68        18.6043  -26.6857  -43.4195 H         1 UNK         0.0849 
     69 H69        15.5514  -28.7571  -42.0773 H         1 UNK         0.0865 
     70 H70        15.7709  -27.8822  -43.5644 H         1 UNK         0.0865 
     71 H71        17.4157  -30.1965  -41.1499 H         1 UNK         0.1346 
     72 H72        20.2745  -31.6265  -44.0091 H         1 UNK         0.1412 
     73 H73        17.6420  -28.4041  -45.0372 H         1 UNK         0.1426 
     74 H74        19.3151  -29.0214  -46.5867 H         1 UNK         0.0716 
     75 H75        19.4410  -30.7598  -46.6268 H         1 UNK         0.0716 
     76 H76        21.0444  -28.4069  -43.9835 H         1 UNK         0.0695 
     77 H77        22.7397  -28.6855  -44.2238 H         1 UNK         0.0695 
     78 H78        22.7018  -27.0950  -46.2167 H         1 UNK         0.0983 
     79 H79        19.8695  -26.9299  -45.5446 H         1 UNK         0.3095 
     80 H80        19.1524  -24.1143  -47.5054 H         1 UNK         0.0454 
     81 H81        19.2958  -25.8020  -49.3312 H         1 UNK         0.0851 
     82 H82        18.5806  -27.0248  -48.2920 H         1 UNK         0.0851 
     83 H83        17.6392  -25.6161  -48.7843 H         1 UNK         0.0851 
     84 H84        17.5660  -26.1566  -46.2128 H         1 UNK         0.2976 
     85 H85        24.4007  -26.5304  -44.7803 H         1 UNK         0.3116 
     86 H86        24.1242  -23.9991  -43.5184 H         1 UNK         0.0646 
     87 H87        26.5365  -24.3277  -42.9599 H         1 UNK         0.0847 
     88 H88        26.2139  -24.7394  -44.6345 H         1 UNK         0.0847 
     89 H89        26.4339  -26.0161  -43.4356 H         1 UNK         0.0847 
     90 H90        23.8322  -27.2520  -42.1889 H         1 UNK         0.3040 
     91 H91        22.9810  -26.2396  -39.6393 H         1 UNK         0.1015 
     92 H92        25.4713  -26.2787  -39.2311 H         1 UNK         0.0786 
     93 H93        25.5452  -27.9515  -39.7777 H         1 UNK         0.0786 
     94 H94        24.6835  -27.5371  -38.3004 H         1 UNK         0.0786 
     95 H95        22.0698  -27.9791  -38.3521 H         1 UNK         0.3172 
     96 H96        20.6904  -29.9834  -39.8405 H         1 UNK         0.0595 
     97 H97        19.7371  -28.9261  -37.8096 H         1 UNK         0.0839 
     98 H98        21.0145  -29.6258  -36.8122 H         1 UNK         0.0839 
     99 H99        19.8342  -30.6648  -37.5975 H         1 UNK         0.0839 
    100 H100       23.8404  -30.0011  -38.4812 H         1 UNK         0.2998 
    101 H101       24.2782  -32.7541  -37.9522 H         1 UNK         0.0822 
    102 H102       26.2192  -30.5628  -38.8826 H         1 UNK         0.0787 
    103 H103       25.8131  -30.9395  -37.2068 H         1 UNK         0.0787 
    104 H104       26.6874  -32.1062  -38.1831 H         1 UNK         0.0787 
    105 H105       23.7250  -31.1889  -40.9801 H         1 UNK         0.3055 
    106 H106       25.0748  -33.0100  -42.7419 H         1 UNK         0.1106 
    107 H107       22.6058  -31.2275  -43.1430 H         1 UNK         0.0828 
    108 H108       24.2746  -30.7788  -43.4813 H         1 UNK         0.0828 
    109 H109       23.4911  -32.0283  -44.4339 H         1 UNK         0.0828 
    110 H110       22.1567  -33.3199  -40.8206 H         1 UNK         0.2931 
    111 H111       21.1104  -35.6039  -42.3681 H         1 UNK         0.0412 
    112 H112       22.3096  -38.2278  -40.3224 H         1 UNK         0.3472 
    113 H113       21.4426  -37.7570  -41.7614 H         1 UNK         0.3472 
    114 H114       20.0592  -34.1826  -39.8623 H         1 UNK         0.0970 
    115 H115       19.3335  -35.6102  -40.5473 H         1 UNK         0.0970 
    116 H116       19.0107  -31.8604  -40.4803 H         1 UNK         0.0612 
    117 H117       20.4820  -31.9610  -41.4225 H         1 UNK         0.0612 
@<TRIPOS>BOND
     1    1    2 1    
     2    1   62 1    
     3    1   63 1    
     4    1   64 1    
     5    2    3 2    
     6    2    4 am   BACKBONE|DICT|INTERRES
     7    4    5 1    
     8    4   65 1    
     9    5    6 1    
    10    5   25 1    
    11    5   66 1    
    12    6    7 1    
    13    6   67 1    
    14    6   68 1    
    15    7    8 1    
    16    8    9 1    
    17    8   69 1    
    18    8   70 1    
    19    9   10 ar   
    20    9   14 ar   
    21   10   11 ar   
    22   10   71 1    
    23   11   12 ar   
    24   11   61 1    
    25   12   13 ar   
    26   12   72 1    
    27   13   14 ar   
    28   13   15 1    
    29   14   73 1    
    30   15   16 1    
    31   15   74 1    
    32   15   75 1    
    33   16   17 1    
    34   17   18 1    
    35   17   76 1    
    36   17   77 1    
    37   18   19 1    
    38   18   27 1    
    39   18   78 1    
    40   19   20 am   BACKBONE|DICT|INTERRES
    41   19   79 1    
    42   20   21 2    
    43   20   22 1    
    44   22   23 1    
    45   22   24 1    
    46   22   80 1    
    47   23   81 1    
    48   23   82 1    
    49   23   83 1    
    50   24   25 am   BACKBONE|DICT|INTERRES
    51   24   84 1    
    52   25   26 2    
    53   27   28 2    
    54   27   29 am   BACKBONE|DICT|INTERRES
    55   29   30 1    
    56   29   85 1    
    57   30   31 1    
    58   30   32 1    
    59   30   86 1    
    60   31   87 1    
    61   31   88 1    
    62   31   89 1    
    63   32   33 2    
    64   32   34 am   BACKBONE|DICT|INTERRES
    65   34   35 1    
    66   34   90 1    
    67   35   36 1    
    68   35   37 1    
    69   35   91 1    
    70   36   92 1    
    71   36   93 1    
    72   36   94 1    
    73   37   38 2    
    74   37   39 am   BACKBONE|DICT|INTERRES
    75   39   40 1    
    76   39   95 1    
    77   40   41 1    
    78   40   42 1    
    79   40   96 1    
    80   41   97 1    
    81   41   98 1    
    82   41   99 1    
    83   42   43 2    
    84   42   44 am   BACKBONE|DICT|INTERRES
    85   44   45 1    
    86   44  100 1    
    87   45   46 1    
    88   45   47 1    
    89   45  101 1    
    90   46  102 1    
    91   46  103 1    
    92   46  104 1    
    93   47   48 2    
    94   47   49 am   BACKBONE|DICT|INTERRES
    95   49   50 1    
    96   49  105 1    
    97   50   51 1    
    98   50   52 1    
    99   50  106 1    
   100   51  107 1    
   101   51  108 1    
   102   51  109 1    
   103   52   53 2    
   104   52   54 am   BACKBONE|DICT|INTERRES
   105   54   55 1    
   106   54  110 1    
   107   55   56 1    
   108   55   59 1    
   109   55  111 1    
   110   56   57 am   BACKBONE|DICT|INTERRES
   111   56   58 2    
   112   57  112 1    
   113   57  113 1    
   114   59   60 1    
   115   59  114 1    
   116   59  115 1    
   117   60   61 1    
   118   61  116 1    
   119   61  117 1    
@<TRIPOS>SUBSTRUCTURE
     1 UNK         1 GROUP             0       ****    0 ROOT    
