@<TRIPOS>MOLECULE
3R8
117   119    1
SMALL
USER_CHARGES


@<TRIPOS>ATOM
      1 CA         12.5399  -24.0671  -46.4037 C.3       0 UNK        -0.2013 
      2 C          13.8905  -24.7175  -46.6637 C.2       0 UNK         0.4866 
      3 O          14.4659  -24.5285  -47.7361 O.2       0 UNK        -0.5176 
      4 N          14.3971  -25.4896  -45.6952 N.am      1 UNK        -0.4884 
      5 CA         15.7151  -26.1302  -45.7328 C.3       1 UNK         0.0853 
      6 C6         15.8275  -27.2805  -44.6964 C.3       10 UNK        -0.0849 
      7 S7         15.3696  -26.8001  -42.9932 S.3       10 UNK        -0.2776 
      8 C8         15.5278  -28.3874  -42.1183 C.3       10 UNK         0.0316 
      9 C9         16.9816  -28.7900  -41.9128 C.ar      10 UNK        -0.0863 
     10 C10        17.5016  -29.9212  -42.5481 C.ar      10 UNK        -0.1009 
     11 C11        18.8194  -30.3250  -42.3117 C.ar      10 UNK        -0.0712 
     12 C12        19.6236  -29.5832  -41.4397 C.ar      10 UNK        -0.0894 
     13 C13        19.1204  -28.4360  -40.8168 C.ar      10 UNK        -0.0745 
     14 C14        17.7978  -28.0497  -41.0530 C.ar      10 UNK        -0.0972 
     15 C15        19.9933  -27.6182  -39.8737 C.3       10 UNK         0.0209 
     16 S16        21.4161  -26.8469  -40.7105 S.3       10 UNK        -0.2568 
     17 C17        20.6354  -25.9200  -42.0811 C.3       10 UNK        -0.0983 
     18 CA         20.7866  -26.6288  -43.4573 C.3       3 UNK         0.0876 
     19 N          19.9807  -26.0239  -44.5258 N.am      3 UNK        -0.4424 
     20 C          20.0434  -24.7736  -45.0075 C.2       2 UNK         0.4918 
     21 O          20.7938  -23.9027  -44.5655 O.2       2 UNK        -0.4875 
     22 CA         19.1490  -24.4469  -46.2162 C.3       2 UNK         0.0481 
     23 CB         19.9533  -24.5870  -47.5188 C.3       2 UNK        -0.1831 
     24 N          17.9551  -25.2953  -46.2904 N.am      2 UNK        -0.4498 
     25 C          16.8461  -25.0918  -45.5656 C.2       1 UNK         0.5027 
     26 O          16.7052  -24.1469  -44.7841 O.2       1 UNK        -0.4969 
     27 C          22.2650  -26.8200  -43.8600 C.2       3 UNK         0.5005 
     28 O          22.7733  -27.9373  -43.7691 O.2       3 UNK        -0.5279 
     29 N          22.9372  -25.7272  -44.2530 N.am      4 UNK        -0.4463 
     30 CA         24.3717  -25.6252  -44.5609 C.3       4 UNK         0.0283 
     31 CB         24.7112  -26.4100  -45.8456 C.3       4 UNK        -0.1875 
     32 C          25.2777  -26.0123  -43.3708 C.2       4 UNK         0.4949 
     33 O          26.3992  -26.4766  -43.5788 O.2       4 UNK        -0.5039 
     34 N          24.7592  -25.8213  -42.1467 N.am      5 UNK        -0.4663 
     35 CA         25.3459  -26.1860  -40.8512 C.3       5 UNK         0.0242 
     36 CB         26.6098  -25.3461  -40.5660 C.3       5 UNK        -0.1982 
     37 C          25.5815  -27.7019  -40.6746 C.2       5 UNK         0.5017 
     38 O          26.4738  -28.0900  -39.9178 O.2       5 UNK        -0.5012 
     39 N          24.7863  -28.5366  -41.3617 N.am      6 UNK        -0.4439 
     40 CA         24.8334  -29.9955  -41.2599 C.3       6 UNK         0.0297 
     41 CB         23.9877  -30.6135  -42.3849 C.3       6 UNK        -0.2006 
     42 C          24.3426  -30.4766  -39.8842 C.2       6 UNK         0.4892 
     43 O          23.2228  -30.1455  -39.4893 O.2       6 UNK        -0.5089 
     44 N          25.1821  -31.2590  -39.1917 N.am      7 UNK        -0.4243 
     45 CA         24.8690  -31.8661  -37.8923 C.3       7 UNK         0.0196 
     46 CB         26.1695  -32.3496  -37.2302 C.3       7 UNK        -0.2007 
     47 C          23.8572  -33.0209  -38.0002 C.2       7 UNK         0.5020 
     48 O          23.1053  -33.2616  -37.0555 O.2       7 UNK        -0.5147 
     49 N          23.8493  -33.7004  -39.1506 N.am      8 UNK        -0.4734 
     50 CA         22.8797  -34.7135  -39.5468 C.3       8 UNK         0.0238 
     51 CB         23.3855  -36.1117  -39.1528 C.3       8 UNK        -0.1912 
     52 C          22.7011  -34.5889  -41.0625 C.2       8 UNK         0.5038 
     53 O          23.6684  -34.2640  -41.7570 O.2       8 UNK        -0.5046 
     54 N          21.4798  -34.8357  -41.5447 N.am      9 UNK        -0.4200 
     55 CA         21.0953  -34.6516  -42.9546 C.3       9 UNK         0.0839 
     56 C          21.5636  -35.7838  -43.9149 C.2       9 UNK         0.5513 
     57 N          22.1219  -36.8851  -43.4271 N.am      9 UNK        -0.7519 
     58 O          21.4209  -35.6563  -45.1281 O.2       9 UNK        -0.4960 
     59 C59        19.5752  -34.3789  -43.1101 C.3       10 UNK        -0.0876 
     60 S60        18.9594  -33.0539  -42.0152 S.3       10 UNK        -0.2414 
     61 C61        19.3621  -31.5730  -42.9885 C.3       10 UNK         0.0169 
     62 H62        11.8194  -24.3833  -47.1577 H         1 UNK         0.0903 
     63 H63        12.1425  -24.3304  -45.4236 H         1 UNK         0.0903 
     64 H64        12.6307  -22.9823  -46.4524 H         1 UNK         0.0903 
     65 H65        13.9067  -25.5822  -44.8161 H         1 UNK         0.3096 
     66 H66        15.8258  -26.5752  -46.7247 H         1 UNK         0.1121 
     67 H67        15.1720  -28.0983  -45.0002 H         1 UNK         0.0849 
     68 H68        16.8353  -27.7003  -44.6890 H         1 UNK         0.0849 
     69 H69        15.0456  -28.2995  -41.1436 H         1 UNK         0.0865 
     70 H70        14.9771  -29.1587  -42.6592 H         1 UNK         0.0865 
     71 H71        16.8758  -30.5036  -43.2107 H         1 UNK         0.1346 
     72 H72        20.6429  -29.8914  -41.2471 H         1 UNK         0.1412 
     73 H73        17.3961  -27.1720  -40.5649 H         1 UNK         0.1426 
     74 H74        20.3652  -28.2679  -39.0802 H         1 UNK         0.0716 
     75 H75        19.4108  -26.8371  -39.3827 H         1 UNK         0.0716 
     76 H76        21.0757  -24.9223  -42.1056 H         1 UNK         0.0695 
     77 H77        19.5790  -25.7698  -41.8542 H         1 UNK         0.0695 
     78 H78        20.3773  -27.6337  -43.3460 H         1 UNK         0.0983 
     79 H79        19.3456  -26.6591  -44.9853 H         1 UNK         0.3095 
     80 H80        18.8377  -23.4039  -46.1257 H         1 UNK         0.0454 
     81 H81        20.3005  -25.6090  -47.6759 H         1 UNK         0.0851 
     82 H82        20.8345  -23.9438  -47.5041 H         1 UNK         0.0851 
     83 H83        19.3590  -24.2966  -48.3853 H         1 UNK         0.0851 
     84 H84        17.9899  -26.0743  -46.9333 H         1 UNK         0.2976 
     85 H85        22.4028  -24.8624  -44.3084 H         1 UNK         0.3116 
     86 H86        24.5660  -24.5699  -44.7574 H         1 UNK         0.0646 
     87 H87        24.6097  -27.4861  -45.7012 H         1 UNK         0.0847 
     88 H88        25.7383  -26.2213  -46.1601 H         1 UNK         0.0847 
     89 H89        24.0628  -26.1193  -46.6720 H         1 UNK         0.0847 
     90 H90        23.8241  -25.4404  -42.1022 H         1 UNK         0.3040 
     91 H91        24.6012  -25.9197  -40.0991 H         1 UNK         0.1015 
     92 H92        26.4130  -24.2803  -40.6817 H         1 UNK         0.0786 
     93 H93        27.4310  -25.6106  -41.2329 H         1 UNK         0.0786 
     94 H94        26.9602  -25.4988  -39.5445 H         1 UNK         0.0786 
     95 H95        24.0735  -28.1486  -41.9689 H         1 UNK         0.3172 
     96 H96        25.8692  -30.3101  -41.4039 H         1 UNK         0.0595 
     97 H97        22.9366  -30.3343  -42.3001 H         1 UNK         0.0839 
     98 H98        24.0391  -31.7018  -42.3610 H         1 UNK         0.0839 
     99 H99        24.3383  -30.2946  -43.3667 H         1 UNK         0.0839 
    100 H100       26.0919  -31.4621  -39.5811 H         1 UNK         0.2998 
    101 H101       24.4252  -31.0982  -37.2545 H         1 UNK         0.0822 
    102 H102       26.8698  -31.5270  -37.0830 H         1 UNK         0.0787 
    103 H103       25.9692  -32.7820  -36.2487 H         1 UNK         0.0787 
    104 H104       26.6681  -33.1144  -37.8272 H         1 UNK         0.0787 
    105 H105       24.4717  -33.4142  -39.8962 H         1 UNK         0.3055 
    106 H106       21.9223  -34.5152  -39.0585 H         1 UNK         0.1106 
    107 H107       22.6705  -36.8827  -39.4421 H         1 UNK         0.0828 
    108 H108       24.3354  -36.3472  -39.6346 H         1 UNK         0.0828 
    109 H109       23.5288  -36.1912  -38.0750 H         1 UNK         0.0828 
    110 H110       20.7387  -35.1092  -40.9163 H         1 UNK         0.2931 
    111 H111       21.6062  -33.7527  -43.3062 H         1 UNK         0.0412 
    112 H112       22.2504  -36.9961  -42.4343 H         1 UNK         0.3472 
    113 H113       22.4242  -37.6090  -44.0605 H         1 UNK         0.3472 
    114 H114       19.0074  -35.2840  -42.8866 H         1 UNK         0.0970 
    115 H115       19.3328  -34.1229  -44.1434 H         1 UNK         0.0970 
    116 H116       18.9407  -31.6657  -43.9906 H         1 UNK         0.0612 
    117 H117       20.4442  -31.4994  -43.1088 H         1 UNK         0.0612 
@<TRIPOS>BOND
     1    1    2 1    
     2    1   62 1    
     3    1   63 1    
     4    1   64 1    
     5    2    3 2    
     6    2    4 am   BACKBONE|DICT|INTERRES
     7    4    5 1    
     8    4   65 1    
     9    5    6 1    
    10    5   25 1    
    11    5   66 1    
    12    6    7 1    
    13    6   67 1    
    14    6   68 1    
    15    7    8 1    
    16    8    9 1    
    17    8   69 1    
    18    8   70 1    
    19    9   10 ar   
    20    9   14 ar   
    21   10   11 ar   
    22   10   71 1    
    23   11   12 ar   
    24   11   61 1    
    25   12   13 ar   
    26   12   72 1    
    27   13   14 ar   
    28   13   15 1    
    29   14   73 1    
    30   15   16 1    
    31   15   74 1    
    32   15   75 1    
    33   16   17 1    
    34   17   18 1    
    35   17   76 1    
    36   17   77 1    
    37   18   19 1    
    38   18   27 1    
    39   18   78 1    
    40   19   20 am   BACKBONE|DICT|INTERRES
    41   19   79 1    
    42   20   21 2    
    43   20   22 1    
    44   22   23 1    
    45   22   24 1    
    46   22   80 1    
    47   23   81 1    
    48   23   82 1    
    49   23   83 1    
    50   24   25 am   BACKBONE|DICT|INTERRES
    51   24   84 1    
    52   25   26 2    
    53   27   28 2    
    54   27   29 am   BACKBONE|DICT|INTERRES
    55   29   30 1    
    56   29   85 1    
    57   30   31 1    
    58   30   32 1    
    59   30   86 1    
    60   31   87 1    
    61   31   88 1    
    62   31   89 1    
    63   32   33 2    
    64   32   34 am   BACKBONE|DICT|INTERRES
    65   34   35 1    
    66   34   90 1    
    67   35   36 1    
    68   35   37 1    
    69   35   91 1    
    70   36   92 1    
    71   36   93 1    
    72   36   94 1    
    73   37   38 2    
    74   37   39 am   BACKBONE|DICT|INTERRES
    75   39   40 1    
    76   39   95 1    
    77   40   41 1    
    78   40   42 1    
    79   40   96 1    
    80   41   97 1    
    81   41   98 1    
    82   41   99 1    
    83   42   43 2    
    84   42   44 am   BACKBONE|DICT|INTERRES
    85   44   45 1    
    86   44  100 1    
    87   45   46 1    
    88   45   47 1    
    89   45  101 1    
    90   46  102 1    
    91   46  103 1    
    92   46  104 1    
    93   47   48 2    
    94   47   49 am   BACKBONE|DICT|INTERRES
    95   49   50 1    
    96   49  105 1    
    97   50   51 1    
    98   50   52 1    
    99   50  106 1    
   100   51  107 1    
   101   51  108 1    
   102   51  109 1    
   103   52   53 2    
   104   52   54 am   BACKBONE|DICT|INTERRES
   105   54   55 1    
   106   54  110 1    
   107   55   56 1    
   108   55   59 1    
   109   55  111 1    
   110   56   57 am   BACKBONE|DICT|INTERRES
   111   56   58 2    
   112   57  112 1    
   113   57  113 1    
   114   59   60 1    
   115   59  114 1    
   116   59  115 1    
   117   60   61 1    
   118   61  116 1    
   119   61  117 1    
@<TRIPOS>SUBSTRUCTURE
     1 UNK         1 GROUP             0       ****    0 ROOT    
