@<TRIPOS>MOLECULE
3R8
117   119    1
SMALL
USER_CHARGES


@<TRIPOS>ATOM
      1 CA         17.2079  -24.3874  -47.6741 C.3       0 UNK        -0.2013 
      2 C          17.1456  -25.3839  -46.5206 C.2       0 UNK         0.4866 
      3 O          16.0529  -25.7086  -46.0621 O.2       0 UNK        -0.5176 
      4 N          18.2747  -25.8965  -46.0160 N.am      1 UNK        -0.4884 
      5 CA         19.6495  -25.6123  -46.4417 C.3       1 UNK         0.0853 
      6 C6         20.1295  -26.5666  -47.5747 C.3       10 UNK        -0.0849 
      7 S7         20.3501  -28.3188  -47.0990 S.3       10 UNK        -0.2776 
      8 C8         18.7221  -29.0652  -47.4187 C.3       10 UNK         0.0316 
      9 C9         18.2302  -29.8067  -46.1840 C.ar      10 UNK        -0.0863 
     10 C10        18.7307  -31.0751  -45.8705 C.ar      10 UNK        -0.1009 
     11 C11        18.3006  -31.7565  -44.7256 C.ar      10 UNK        -0.0712 
     12 C12        17.3558  -31.1436  -43.8900 C.ar      10 UNK        -0.0894 
     13 C13        16.8537  -29.8753  -44.1898 C.ar      10 UNK        -0.0745 
     14 C14        17.2816  -29.2199  -45.3451 C.ar      10 UNK        -0.0972 
     15 C15        15.8465  -29.2062  -43.2690 C.3       10 UNK         0.0209 
     16 S16        16.5810  -27.7898  -42.3937 S.3       10 UNK        -0.2568 
     17 C17        17.7456  -28.5987  -41.2398 C.3       10 UNK        -0.0983 
     18 CA         19.2403  -28.3938  -41.6129 C.3       3 UNK         0.0876 
     19 N          19.5315  -26.9939  -41.9480 N.am      3 UNK        -0.4424 
     20 C          20.7135  -26.3929  -42.1481 C.2       2 UNK         0.4918 
     21 O          21.8154  -26.9019  -41.9306 O.2       2 UNK        -0.4875 
     22 CA         20.6045  -24.9752  -42.7392 C.3       2 UNK         0.0481 
     23 CB         21.9289  -24.1846  -42.7181 C.3       2 UNK        -0.1831 
     24 N          20.0219  -25.0294  -44.0873 N.am      2 UNK        -0.4498 
     25 C          20.5765  -25.5285  -45.2071 C.2       1 UNK         0.5027 
     26 O          21.7471  -25.9007  -45.2873 O.2       1 UNK        -0.4969 
     27 C          20.1483  -28.9820  -40.5136 C.2       3 UNK         0.5005 
     28 O          20.8374  -29.9746  -40.7476 O.2       3 UNK        -0.5279 
     29 N          20.1371  -28.3479  -39.3351 N.am      4 UNK        -0.4463 
     30 CA         20.8679  -28.7975  -38.1468 C.3       4 UNK         0.0283 
     31 CB         20.0856  -28.3579  -36.8970 C.3       4 UNK        -0.1875 
     32 C          22.3184  -28.2851  -38.0822 C.2       4 UNK         0.4949 
     33 O          23.0359  -28.6584  -37.1535 O.2       4 UNK        -0.5039 
     34 N          22.7173  -27.4264  -39.0284 N.am      5 UNK        -0.4663 
     35 CA         24.0280  -26.7865  -39.0805 C.3       5 UNK         0.0242 
     36 CB         23.8391  -25.2566  -39.1018 C.3       5 UNK        -0.1982 
     37 C          24.8073  -27.3474  -40.2770 C.2       5 UNK         0.5017 
     38 O          25.2385  -28.4985  -40.2137 O.2       5 UNK        -0.5012 
     39 N          24.9834  -26.5403  -41.3332 N.am      6 UNK        -0.4439 
     40 CA         25.8030  -26.8413  -42.5118 C.3       6 UNK         0.0297 
     41 CB         25.8497  -25.6113  -43.4328 C.3       6 UNK        -0.2006 
     42 C          25.3716  -28.0867  -43.3064 C.2       6 UNK         0.4892 
     43 O          26.2329  -28.7298  -43.9083 O.2       6 UNK        -0.5089 
     44 N          24.0715  -28.4144  -43.2958 N.am      7 UNK        -0.4243 
     45 CA         23.5408  -29.6211  -43.9365 C.3       7 UNK         0.0196 
     46 CB         22.0284  -29.4685  -44.1306 C.3       7 UNK        -0.2007 
     47 C          23.8404  -30.9026  -43.1400 C.2       7 UNK         0.5020 
     48 O          23.9033  -31.9747  -43.7423 O.2       7 UNK        -0.5147 
     49 N          24.0072  -30.7692  -41.8136 N.am      8 UNK        -0.4734 
     50 CA         24.2602  -31.8285  -40.8271 C.3       8 UNK         0.0238 
     51 CB         25.7052  -32.3506  -40.9700 C.3       8 UNK        -0.1912 
     52 C          23.2078  -32.9570  -40.8567 C.2       8 UNK         0.5038 
     53 O          23.5626  -34.1339  -40.7569 O.2       8 UNK        -0.5046 
     54 N          21.9358  -32.5767  -41.0268 N.am      9 UNK        -0.4200 
     55 CA         20.7911  -33.4863  -41.1363 C.3       9 UNK         0.0839 
     56 C          20.4463  -34.1824  -39.7908 C.2       9 UNK         0.5513 
     57 N          19.8933  -35.3863  -39.8410 N.am      9 UNK        -0.7519 
     58 O          20.6413  -33.6313  -38.7089 O.2       9 UNK        -0.4960 
     59 C59        19.5670  -32.7491  -41.7421 C.3       10 UNK        -0.0876 
     60 S60        18.5449  -33.8398  -42.7874 S.3       10 UNK        -0.2414 
     61 C61        18.8732  -33.1511  -44.4499 C.3       10 UNK         0.0169 
     62 H62        17.8183  -24.7637  -48.4936 H         1 UNK         0.0903 
     63 H63        16.2096  -24.2000  -48.0690 H         1 UNK         0.0903 
     64 H64        17.6160  -23.4350  -47.3371 H         1 UNK         0.0903 
     65 H65        18.2057  -26.5639  -45.2602 H         1 UNK         0.3096 
     66 H66        19.6892  -24.6001  -46.8478 H         1 UNK         0.1121 
     67 H67        19.4513  -26.5157  -48.4269 H         1 UNK         0.0849 
     68 H68        21.0893  -26.2148  -47.9570 H         1 UNK         0.0849 
     69 H69        18.0021  -28.3022  -47.7177 H         1 UNK         0.0865 
     70 H70        18.8023  -29.7554  -48.2597 H         1 UNK         0.0865 
     71 H71        19.4650  -31.5309  -46.5210 H         1 UNK         0.1346 
     72 H72        17.0004  -31.6446  -43.0016 H         1 UNK         0.1412 
     73 H73        16.8762  -28.2467  -45.5806 H         1 UNK         0.1426 
     74 H74        15.4398  -29.9134  -42.5443 H         1 UNK         0.0716 
     75 H75        15.0004  -28.8536  -43.8606 H         1 UNK         0.0716 
     76 H76        17.5144  -29.6638  -41.1774 H         1 UNK         0.0695 
     77 H77        17.5328  -28.1898  -40.2503 H         1 UNK         0.0695 
     78 H78        19.4213  -28.9667  -42.5236 H         1 UNK         0.0983 
     79 H79        18.7023  -26.4561  -42.1555 H         1 UNK         0.3095 
     80 H80        19.8934  -24.4248  -42.1211 H         1 UNK         0.0454 
     81 H81        22.2248  -23.9549  -41.6964 H         1 UNK         0.0851 
     82 H82        21.8318  -23.2342  -43.2423 H         1 UNK         0.0851 
     83 H83        22.7455  -24.7376  -43.1797 H         1 UNK         0.0851 
     84 H84        19.0604  -24.7242  -44.1547 H         1 UNK         0.2976 
     85 H85        19.5708  -27.5171  -39.2359 H         1 UNK         0.3116 
     86 H86        20.9131  -29.8891  -38.1472 H         1 UNK         0.0646 
     87 H87        19.0709  -28.7564  -36.9025 H         1 UNK         0.0847 
     88 H88        20.0211  -27.2717  -36.8212 H         1 UNK         0.0847 
     89 H89        20.5656  -28.7189  -35.9863 H         1 UNK         0.0847 
     90 H90        22.1046  -27.2522  -39.8163 H         1 UNK         0.3040 
     91 H91        24.6159  -27.0318  -38.1931 H         1 UNK         0.1015 
     92 H92        24.7938  -24.7373  -39.1979 H         1 UNK         0.0786 
     93 H93        23.3841  -24.9122  -38.1728 H         1 UNK         0.0786 
     94 H94        23.1928  -24.9352  -39.9161 H         1 UNK         0.0786 
     95 H95        24.5590  -25.6255  -41.3012 H         1 UNK         0.3172 
     96 H96        26.8165  -27.0280  -42.1506 H         1 UNK         0.0595 
     97 H97        26.5315  -25.7794  -44.2677 H         1 UNK         0.0839 
     98 H98        26.2019  -24.7254  -42.9042 H         1 UNK         0.0839 
     99 H99        24.8715  -25.3878  -43.8588 H         1 UNK         0.0839 
    100 H100       23.4120  -27.8272  -42.7936 H         1 UNK         0.2998 
    101 H101       24.0002  -29.7194  -44.9225 H         1 UNK         0.0822 
    102 H102       21.6257  -30.2715  -44.7491 H         1 UNK         0.0787 
    103 H103       21.7836  -28.5235  -44.6120 H         1 UNK         0.0787 
    104 H104       21.5078  -29.4985  -43.1784 H         1 UNK         0.0787 
    105 H105       23.9802  -29.8309  -41.4324 H         1 UNK         0.3055 
    106 H106       24.1729  -31.3596  -39.8454 H         1 UNK         0.1106 
    107 H107       26.4264  -31.5352  -40.9112 H         1 UNK         0.0828 
    108 H108       25.9489  -33.0553  -40.1740 H         1 UNK         0.0828 
    109 H109       25.8561  -32.8649  -41.9197 H         1 UNK         0.0828 
    110 H110       21.7117  -31.5839  -41.0259 H         1 UNK         0.2931 
    111 H111       21.1026  -34.2636  -41.8378 H         1 UNK         0.0412 
    112 H112       19.7005  -35.8283  -40.7269 H         1 UNK         0.3472 
    113 H113       19.6485  -35.8534  -38.9818 H         1 UNK         0.3472 
    114 H114       19.8987  -31.9128  -42.3597 H         1 UNK         0.0970 
    115 H115       18.9435  -32.2994  -40.9668 H         1 UNK         0.0970 
    116 H116       18.4605  -33.8403  -45.1876 H         1 UNK         0.0612 
    117 H117       19.9529  -33.1387  -44.6087 H         1 UNK         0.0612 
@<TRIPOS>BOND
     1    1    2 1    
     2    1   62 1    
     3    1   63 1    
     4    1   64 1    
     5    2    3 2    
     6    2    4 am   BACKBONE|DICT|INTERRES
     7    4    5 1    
     8    4   65 1    
     9    5    6 1    
    10    5   25 1    
    11    5   66 1    
    12    6    7 1    
    13    6   67 1    
    14    6   68 1    
    15    7    8 1    
    16    8    9 1    
    17    8   69 1    
    18    8   70 1    
    19    9   10 ar   
    20    9   14 ar   
    21   10   11 ar   
    22   10   71 1    
    23   11   12 ar   
    24   11   61 1    
    25   12   13 ar   
    26   12   72 1    
    27   13   14 ar   
    28   13   15 1    
    29   14   73 1    
    30   15   16 1    
    31   15   74 1    
    32   15   75 1    
    33   16   17 1    
    34   17   18 1    
    35   17   76 1    
    36   17   77 1    
    37   18   19 1    
    38   18   27 1    
    39   18   78 1    
    40   19   20 am   BACKBONE|DICT|INTERRES
    41   19   79 1    
    42   20   21 2    
    43   20   22 1    
    44   22   23 1    
    45   22   24 1    
    46   22   80 1    
    47   23   81 1    
    48   23   82 1    
    49   23   83 1    
    50   24   25 am   BACKBONE|DICT|INTERRES
    51   24   84 1    
    52   25   26 2    
    53   27   28 2    
    54   27   29 am   BACKBONE|DICT|INTERRES
    55   29   30 1    
    56   29   85 1    
    57   30   31 1    
    58   30   32 1    
    59   30   86 1    
    60   31   87 1    
    61   31   88 1    
    62   31   89 1    
    63   32   33 2    
    64   32   34 am   BACKBONE|DICT|INTERRES
    65   34   35 1    
    66   34   90 1    
    67   35   36 1    
    68   35   37 1    
    69   35   91 1    
    70   36   92 1    
    71   36   93 1    
    72   36   94 1    
    73   37   38 2    
    74   37   39 am   BACKBONE|DICT|INTERRES
    75   39   40 1    
    76   39   95 1    
    77   40   41 1    
    78   40   42 1    
    79   40   96 1    
    80   41   97 1    
    81   41   98 1    
    82   41   99 1    
    83   42   43 2    
    84   42   44 am   BACKBONE|DICT|INTERRES
    85   44   45 1    
    86   44  100 1    
    87   45   46 1    
    88   45   47 1    
    89   45  101 1    
    90   46  102 1    
    91   46  103 1    
    92   46  104 1    
    93   47   48 2    
    94   47   49 am   BACKBONE|DICT|INTERRES
    95   49   50 1    
    96   49  105 1    
    97   50   51 1    
    98   50   52 1    
    99   50  106 1    
   100   51  107 1    
   101   51  108 1    
   102   51  109 1    
   103   52   53 2    
   104   52   54 am   BACKBONE|DICT|INTERRES
   105   54   55 1    
   106   54  110 1    
   107   55   56 1    
   108   55   59 1    
   109   55  111 1    
   110   56   57 am   BACKBONE|DICT|INTERRES
   111   56   58 2    
   112   57  112 1    
   113   57  113 1    
   114   59   60 1    
   115   59  114 1    
   116   59  115 1    
   117   60   61 1    
   118   61  116 1    
   119   61  117 1    
@<TRIPOS>SUBSTRUCTURE
     1 UNK         1 GROUP             0       ****    0 ROOT    
