@<TRIPOS>MOLECULE
3R8
117   119    1
SMALL
USER_CHARGES


@<TRIPOS>ATOM
      1 CA         18.6331  -28.6919  -42.1506 C.3       0 UNK        -0.2013 
      2 C          17.5494  -27.7496  -42.6351 C.2       0 UNK         0.4866 
      3 O          17.0294  -26.9566  -41.8501 O.2       0 UNK        -0.5176 
      4 N          17.2027  -27.8351  -43.9239 N.am      1 UNK        -0.4884 
      5 CA         16.1517  -27.0313  -44.5568 C.3       1 UNK         0.0853 
      6 C6         15.7240  -27.5975  -45.9341 C.3       10 UNK        -0.0849 
      7 S7         15.2651  -29.3658  -45.8689 S.3       10 UNK        -0.2776 
      8 C8         16.5222  -30.1340  -46.9434 C.3       10 UNK         0.0316 
      9 C9         17.8749  -30.2774  -46.2560 C.ar      10 UNK        -0.0863 
     10 C10        18.1874  -31.4473  -45.5544 C.ar      10 UNK        -0.1009 
     11 C11        19.4503  -31.6132  -44.9760 C.ar      10 UNK        -0.0712 
     12 C12        20.3944  -30.5888  -45.0792 C.ar      10 UNK        -0.0894 
     13 C13        20.0889  -29.4089  -45.7630 C.ar      10 UNK        -0.0745 
     14 C14        18.8337  -29.2645  -46.3613 C.ar      10 UNK        -0.0972 
     15 C15        21.1231  -28.3010  -45.8741 C.3       10 UNK         0.0209 
     16 S16        21.4750  -27.5642  -44.2508 S.3       10 UNK        -0.2568 
     17 C17        22.4280  -26.0863  -44.7430 C.3       10 UNK        -0.0983 
     18 CA         21.9994  -24.7898  -43.9946 C.3       3 UNK         0.0876 
     19 N          20.5673  -24.5098  -44.1008 N.am      3 UNK        -0.4424 
     20 C          19.9482  -24.1093  -45.2146 C.2       2 UNK         0.4918 
     21 O          20.5297  -23.9119  -46.2831 O.2       2 UNK        -0.4875 
     22 CA         18.4229  -23.9524  -45.1298 C.3       2 UNK         0.0481 
     23 CB         17.8417  -23.2453  -46.3761 C.3       2 UNK        -0.1831 
     24 N          17.8319  -25.2792  -44.9497 N.am      2 UNK        -0.4498 
     25 C          16.5446  -25.5440  -44.6823 C.2       1 UNK         0.5027 
     26 O          15.6801  -24.6791  -44.5333 O.2       1 UNK        -0.4969 
     27 C          22.4112  -24.8059  -42.5113 C.2       3 UNK         0.5005 
     28 O          21.5553  -24.7032  -41.6272 O.2       3 UNK        -0.5279 
     29 N          23.7182  -24.9577  -42.2788 N.am      4 UNK        -0.4463 
     30 CA         24.3522  -25.2283  -40.9934 C.3       4 UNK         0.0283 
     31 CB         25.0049  -23.9431  -40.4589 C.3       4 UNK        -0.1875 
     32 C          25.3994  -26.3251  -41.2313 C.2       4 UNK         0.4949 
     33 O          25.8133  -26.5281  -42.3769 O.2       4 UNK        -0.5039 
     34 N          25.7872  -27.0335  -40.1613 N.am      5 UNK        -0.4663 
     35 CA         26.7051  -28.1887  -40.1114 C.3       5 UNK         0.0242 
     36 CB         28.1111  -27.8367  -40.6372 C.3       5 UNK        -0.1982 
     37 C          26.1440  -29.4510  -40.7930 C.2       5 UNK         0.5017 
     38 O          26.0612  -30.4993  -40.1533 O.2       5 UNK        -0.5012 
     39 N          25.6916  -29.3109  -42.0465 N.am      6 UNK        -0.4439 
     40 CA         24.8992  -30.3002  -42.7878 C.3       6 UNK         0.0297 
     41 CB         24.7832  -29.8552  -44.2545 C.3       6 UNK        -0.2006 
     42 C          23.4978  -30.5193  -42.1842 C.2       6 UNK         0.4892 
     43 O          22.8817  -31.5533  -42.4371 O.2       6 UNK        -0.5089 
     44 N          23.0446  -29.5584  -41.3667 N.am      7 UNK        -0.4243 
     45 CA         21.7852  -29.5495  -40.6232 C.3       7 UNK         0.0196 
     46 CB         21.5607  -28.1284  -40.0777 C.3       7 UNK        -0.2007 
     47 C          21.6853  -30.5895  -39.4904 C.2       7 UNK         0.5020 
     48 O          20.6431  -30.6642  -38.8407 O.2       7 UNK        -0.5147 
     49 N          22.7453  -31.3785  -39.2669 N.am      8 UNK        -0.4734 
     50 CA         22.7857  -32.5012  -38.3246 C.3       8 UNK         0.0238 
     51 CB         24.2482  -32.9457  -38.1549 C.3       8 UNK        -0.1912 
     52 C          21.8969  -33.6979  -38.7273 C.2       8 UNK         0.5038 
     53 O          21.7092  -34.5978  -37.9068 O.2       8 UNK        -0.5046 
     54 N          21.3852  -33.7036  -39.9665 N.am      9 UNK        -0.4200 
     55 CA         20.4284  -34.6838  -40.4974 C.3       9 UNK         0.0839 
     56 C          19.0867  -34.7643  -39.7119 C.2       9 UNK         0.5513 
     57 N          18.4128  -35.9058  -39.7638 N.am      9 UNK        -0.7519 
     58 O          18.6365  -33.8070  -39.0858 O.2       9 UNK        -0.4960 
     59 C59        20.1985  -34.4777  -42.0183 C.3       10 UNK        -0.0876 
     60 S60        19.5722  -32.8231  -42.4828 S.3       10 UNK        -0.2414 
     61 C61        19.8188  -32.9138  -44.2805 C.3       10 UNK         0.0169 
     62 H62        19.5550  -28.1284  -42.0291 H         1 UNK         0.0903 
     63 H63        18.3634  -29.1297  -41.1898 H         1 UNK         0.0903 
     64 H64        18.8153  -29.5033  -42.8549 H         1 UNK         0.0903 
     65 H65        17.6348  -28.5363  -44.5122 H         1 UNK         0.3096 
     66 H66        15.2788  -27.0699  -43.9007 H         1 UNK         0.1121 
     67 H67        14.8562  -27.0490  -46.3060 H         1 UNK         0.0849 
     68 H68        16.5059  -27.4449  -46.6787 H         1 UNK         0.0849 
     69 H69        16.1618  -31.1187  -47.2452 H         1 UNK         0.0865 
     70 H70        16.6209  -29.5617  -47.8672 H         1 UNK         0.0865 
     71 H71        17.4558  -32.2404  -45.4793 H         1 UNK         0.1346 
     72 H72        21.3692  -30.7099  -44.6256 H         1 UNK         0.1412 
     73 H73        18.6086  -28.3663  -46.9193 H         1 UNK         0.1426 
     74 H74        20.7754  -27.5243  -46.5571 H         1 UNK         0.0716 
     75 H75        22.0458  -28.7009  -46.2969 H         1 UNK         0.0716 
     76 H76        22.3159  -25.9281  -45.8161 H         1 UNK         0.0695 
     77 H77        23.4888  -26.2996  -44.6033 H         1 UNK         0.0695 
     78 H78        22.5303  -23.9464  -44.4422 H         1 UNK         0.0983 
     79 H79        20.0581  -24.6272  -43.2334 H         1 UNK         0.3095 
     80 H80        18.2006  -23.3473  -44.2488 H         1 UNK         0.0454 
     81 H81        18.3443  -22.2939  -46.5548 H         1 UNK         0.0851 
     82 H82        16.7814  -23.0229  -46.2616 H         1 UNK         0.0851 
     83 H83        17.9611  -23.8515  -47.2747 H         1 UNK         0.0851 
     84 H84        18.4763  -26.0561  -45.0138 H         1 UNK         0.2976 
     85 H85        24.3416  -25.1046  -43.0639 H         1 UNK         0.3116 
     86 H86        23.6141  -25.5961  -40.2774 H         1 UNK         0.0646 
     87 H87        25.4838  -24.1165  -39.4945 H         1 UNK         0.0847 
     88 H88        24.2651  -23.1554  -40.3155 H         1 UNK         0.0847 
     89 H89        25.7685  -23.5644  -41.1397 H         1 UNK         0.0847 
     90 H90        25.3793  -26.7853  -39.2694 H         1 UNK         0.3040 
     91 H91        26.8121  -28.4341  -39.0530 H         1 UNK         0.1015 
     92 H92        28.7990  -28.6702  -40.4887 H         1 UNK         0.0786 
     93 H93        28.5262  -26.9774  -40.1104 H         1 UNK         0.0786 
     94 H94        28.1112  -27.6072  -41.7030 H         1 UNK         0.0786 
     95 H95        25.7937  -28.3879  -42.4647 H         1 UNK         0.3172 
     96 H96        25.4270  -31.2553  -42.7539 H         1 UNK         0.0595 
     97 H97        24.2888  -28.8873  -44.3447 H         1 UNK         0.0839 
     98 H98        24.2024  -30.5724  -44.8363 H         1 UNK         0.0839 
     99 H99        25.7636  -29.7761  -44.7243 H         1 UNK         0.0839 
    100 H100       23.6423  -28.7582  -41.2308 H         1 UNK         0.2998 
    101 H101       20.9954  -29.7949  -41.3332 H         1 UNK         0.0822 
    102 H102       21.5783  -27.3878  -40.8772 H         1 UNK         0.0787 
    103 H103       22.3220  -27.8520  -39.3474 H         1 UNK         0.0787 
    104 H104       20.5911  -28.0442  -39.5848 H         1 UNK         0.0787 
    105 H105       23.5694  -31.2390  -39.8358 H         1 UNK         0.3055 
    106 H106       22.4183  -32.1448  -37.3597 H         1 UNK         0.1106 
    107 H107       24.6718  -33.3043  -39.0939 H         1 UNK         0.0828 
    108 H108       24.8736  -32.1271  -37.7976 H         1 UNK         0.0828 
    109 H109       24.3313  -33.7553  -37.4285 H         1 UNK         0.0828 
    110 H110       21.5850  -32.9180  -40.5698 H         1 UNK         0.2931 
    111 H111       20.9118  -35.6557  -40.3781 H         1 UNK         0.0412 
    112 H112       18.7664  -36.6993  -40.2760 H         1 UNK         0.3472 
    113 H113       17.5351  -35.9787  -39.2727 H         1 UNK         0.3472 
    114 H114       21.1423  -34.6428  -42.5407 H         1 UNK         0.0970 
    115 H115       19.5136  -35.2326  -42.4090 H         1 UNK         0.0970 
    116 H116       19.2278  -33.7379  -44.6832 H         1 UNK         0.0612 
    117 H117       20.8633  -33.1527  -44.4875 H         1 UNK         0.0612 
@<TRIPOS>BOND
     1    1    2 1    
     2    1   62 1    
     3    1   63 1    
     4    1   64 1    
     5    2    3 2    
     6    2    4 am   BACKBONE|DICT|INTERRES
     7    4    5 1    
     8    4   65 1    
     9    5    6 1    
    10    5   25 1    
    11    5   66 1    
    12    6    7 1    
    13    6   67 1    
    14    6   68 1    
    15    7    8 1    
    16    8    9 1    
    17    8   69 1    
    18    8   70 1    
    19    9   10 ar   
    20    9   14 ar   
    21   10   11 ar   
    22   10   71 1    
    23   11   12 ar   
    24   11   61 1    
    25   12   13 ar   
    26   12   72 1    
    27   13   14 ar   
    28   13   15 1    
    29   14   73 1    
    30   15   16 1    
    31   15   74 1    
    32   15   75 1    
    33   16   17 1    
    34   17   18 1    
    35   17   76 1    
    36   17   77 1    
    37   18   19 1    
    38   18   27 1    
    39   18   78 1    
    40   19   20 am   BACKBONE|DICT|INTERRES
    41   19   79 1    
    42   20   21 2    
    43   20   22 1    
    44   22   23 1    
    45   22   24 1    
    46   22   80 1    
    47   23   81 1    
    48   23   82 1    
    49   23   83 1    
    50   24   25 am   BACKBONE|DICT|INTERRES
    51   24   84 1    
    52   25   26 2    
    53   27   28 2    
    54   27   29 am   BACKBONE|DICT|INTERRES
    55   29   30 1    
    56   29   85 1    
    57   30   31 1    
    58   30   32 1    
    59   30   86 1    
    60   31   87 1    
    61   31   88 1    
    62   31   89 1    
    63   32   33 2    
    64   32   34 am   BACKBONE|DICT|INTERRES
    65   34   35 1    
    66   34   90 1    
    67   35   36 1    
    68   35   37 1    
    69   35   91 1    
    70   36   92 1    
    71   36   93 1    
    72   36   94 1    
    73   37   38 2    
    74   37   39 am   BACKBONE|DICT|INTERRES
    75   39   40 1    
    76   39   95 1    
    77   40   41 1    
    78   40   42 1    
    79   40   96 1    
    80   41   97 1    
    81   41   98 1    
    82   41   99 1    
    83   42   43 2    
    84   42   44 am   BACKBONE|DICT|INTERRES
    85   44   45 1    
    86   44  100 1    
    87   45   46 1    
    88   45   47 1    
    89   45  101 1    
    90   46  102 1    
    91   46  103 1    
    92   46  104 1    
    93   47   48 2    
    94   47   49 am   BACKBONE|DICT|INTERRES
    95   49   50 1    
    96   49  105 1    
    97   50   51 1    
    98   50   52 1    
    99   50  106 1    
   100   51  107 1    
   101   51  108 1    
   102   51  109 1    
   103   52   53 2    
   104   52   54 am   BACKBONE|DICT|INTERRES
   105   54   55 1    
   106   54  110 1    
   107   55   56 1    
   108   55   59 1    
   109   55  111 1    
   110   56   57 am   BACKBONE|DICT|INTERRES
   111   56   58 2    
   112   57  112 1    
   113   57  113 1    
   114   59   60 1    
   115   59  114 1    
   116   59  115 1    
   117   60   61 1    
   118   61  116 1    
   119   61  117 1    
@<TRIPOS>SUBSTRUCTURE
     1 UNK         1 GROUP             0       ****    0 ROOT    
