@<TRIPOS>MOLECULE
3R8
117   119    1
SMALL
USER_CHARGES


@<TRIPOS>ATOM
      1 CA         12.9306  -25.0073  -43.6570 C.3       0 UNK        -0.2013 
      2 C          14.0443  -25.4685  -44.5848 C.2       0 UNK         0.4866 
      3 O          14.1670  -24.9546  -45.6968 O.2       0 UNK        -0.5176 
      4 N          14.8551  -26.4364  -44.1376 N.am      1 UNK        -0.4884 
      5 CA         16.0032  -26.9834  -44.8737 C.3       1 UNK         0.0853 
      6 C6         16.4676  -28.3393  -44.2884 C.3       10 UNK        -0.0849 
      7 S7         16.8078  -28.3014  -42.4910 S.3       10 UNK        -0.2776 
      8 C8         17.0441  -30.0780  -42.1402 C.3       10 UNK         0.0316 
      9 C9         18.1289  -30.7037  -43.0097 C.ar      10 UNK        -0.0863 
     10 C10        17.8660  -31.8614  -43.7491 C.ar      10 UNK        -0.1009 
     11 C11        18.8443  -32.4011  -44.5907 C.ar      10 UNK        -0.0712 
     12 C12        20.0868  -31.7691  -44.6979 C.ar      10 UNK        -0.0894 
     13 C13        20.3632  -30.6150  -43.9603 C.ar      10 UNK        -0.0745 
     14 C14        19.3871  -30.1030  -43.1020 C.ar      10 UNK        -0.0972 
     15 C15        21.7134  -29.9253  -44.0882 C.3       10 UNK         0.0209 
     16 S16        21.5422  -28.2376  -44.7542 S.3       10 UNK        -0.2568 
     17 C17        21.8148  -27.2574  -43.2454 C.3       10 UNK        -0.0983 
     18 CA         21.5888  -25.7435  -43.4792 C.3       3 UNK         0.0876 
     19 N          20.1664  -25.3992  -43.5918 N.am      3 UNK        -0.4424 
     20 C          19.7201  -24.2458  -44.1067 C.2       2 UNK         0.4918 
     21 O          20.4561  -23.4240  -44.6575 O.2       2 UNK        -0.4875 
     22 CA         18.2149  -23.9367  -43.9548 C.3       2 UNK         0.0481 
     23 CB         17.7275  -22.8626  -44.9509 C.3       2 UNK        -0.1831 
     24 N          17.3286  -25.1066  -43.9981 N.am      2 UNK        -0.4498 
     25 C          17.1669  -25.9748  -45.0100 C.2       1 UNK         0.5027 
     26 O          17.8536  -25.9803  -46.0326 O.2       1 UNK        -0.4969 
     27 C          22.2555  -24.9386  -42.3453 C.2       3 UNK         0.5005 
     28 O          21.6018  -24.5907  -41.3575 O.2       3 UNK        -0.5279 
     29 N          23.5642  -24.7173  -42.4911 N.am      4 UNK        -0.4463 
     30 CA         24.4670  -24.1984  -41.4712 C.3       4 UNK         0.0283 
     31 CB         24.6857  -22.6910  -41.6803 C.3       4 UNK        -0.1875 
     32 C          25.7793  -24.9758  -41.6110 C.2       4 UNK         0.4949 
     33 O          26.1269  -25.3693  -42.7284 O.2       4 UNK        -0.5039 
     34 N          26.4662  -25.2065  -40.4844 N.am      5 UNK        -0.4663 
     35 CA         27.7130  -25.9738  -40.3071 C.3       5 UNK         0.0242 
     36 CB         28.8802  -25.3488  -41.0972 C.3       5 UNK        -0.1982 
     37 C          27.5927  -27.4848  -40.5960 C.2       5 UNK         0.5017 
     38 O          28.0995  -28.2870  -39.8107 O.2       5 UNK        -0.5012 
     39 N          26.9268  -27.8475  -41.6984 N.am      6 UNK        -0.4439 
     40 CA         26.5877  -29.2160  -42.0880 C.3       6 UNK         0.0297 
     41 CB         26.0434  -29.2043  -43.5262 C.3       6 UNK        -0.2006 
     42 C          25.5533  -29.8397  -41.1362 C.2       6 UNK         0.4892 
     43 O          24.6662  -29.1349  -40.6473 O.2       6 UNK        -0.5089 
     44 N          25.6719  -31.1555  -40.9196 N.am      7 UNK        -0.4243 
     45 CA         24.7306  -31.9514  -40.1307 C.3       7 UNK         0.0196 
     46 CB         25.3644  -33.3145  -39.8082 C.3       7 UNK        -0.2007 
     47 C          23.3993  -32.1392  -40.8757 C.2       7 UNK         0.5020 
     48 O          23.4017  -32.3221  -42.0954 O.2       7 UNK        -0.5147 
     49 N          22.2932  -32.1087  -40.1256 N.am      8 UNK        -0.4734 
     50 CA         20.9426  -32.3093  -40.6494 C.3       8 UNK         0.0238 
     51 CB         19.9352  -31.6228  -39.7121 C.3       8 UNK        -0.1912 
     52 C          20.6028  -33.7980  -40.8123 C.2       8 UNK         0.5038 
     53 O          21.1711  -34.6389  -40.1107 O.2       8 UNK        -0.5046 
     54 N          19.6453  -34.0840  -41.7029 N.am      9 UNK        -0.4200 
     55 CA         19.0972  -35.4298  -41.9429 C.3       9 UNK         0.0839 
     56 C          18.2204  -35.9933  -40.7852 C.2       9 UNK         0.5513 
     57 N          17.7920  -35.1915  -39.8171 N.am      9 UNK        -0.7519 
     58 O          17.9253  -37.1855  -40.7665 O.2       9 UNK        -0.4960 
     59 C59        18.3308  -35.5103  -43.2894 C.3       10 UNK        -0.0876 
     60 S60        19.3792  -35.1212  -44.7320 S.3       10 UNK        -0.2414 
     61 C61        18.5572  -33.6472  -45.4148 C.3       10 UNK         0.0169 
     62 H62        13.0398  -23.9451  -43.4395 H         1 UNK         0.0903 
     63 H63        11.9609  -25.1605  -44.1299 H         1 UNK         0.0903 
     64 H64        12.9360  -25.5494  -42.7116 H         1 UNK         0.0903 
     65 H65        14.7094  -26.8300  -43.2176 H         1 UNK         0.3096 
     66 H66        15.6629  -27.1780  -45.8937 H         1 UNK         0.1121 
     67 H67        17.3544  -28.6977  -44.8158 H         1 UNK         0.0849 
     68 H68        15.6966  -29.0901  -44.4690 H         1 UNK         0.0849 
     69 H69        17.3117  -30.1975  -41.0901 H         1 UNK         0.0865 
     70 H70        16.0915  -30.5923  -42.2771 H         1 UNK         0.0865 
     71 H71        16.8942  -32.3322  -43.6857 H         1 UNK         0.1346 
     72 H72        20.8377  -32.1799  -45.3592 H         1 UNK         0.1412 
     73 H73        19.5914  -29.2111  -42.5285 H         1 UNK         0.1426 
     74 H74        22.2074  -29.9075  -43.1154 H         1 UNK         0.0716 
     75 H75        22.3720  -30.4909  -44.7491 H         1 UNK         0.0716 
     76 H76        22.8414  -27.4578  -42.9296 H         1 UNK         0.0695 
     77 H77        21.1776  -27.6213  -42.4387 H         1 UNK         0.0695 
     78 H78        22.0798  -25.4616  -44.4141 H         1 UNK         0.0983 
     79 H79        19.5102  -26.0169  -43.1387 H         1 UNK         0.3095 
     80 H80        18.1030  -23.5208  -42.9526 H         1 UNK         0.0454 
     81 H81        16.6709  -22.6369  -44.8067 H         1 UNK         0.0851 
     82 H82        18.2757  -21.9284  -44.8233 H         1 UNK         0.0851 
     83 H83        17.8633  -23.1808  -45.9850 H         1 UNK         0.0851 
     84 H84        16.7187  -25.2221  -43.2005 H         1 UNK         0.2976 
     85 H85        24.0468  -25.0820  -43.3044 H         1 UNK         0.3116 
     86 H86        24.0528  -24.3770  -40.4763 H         1 UNK         0.0646 
     87 H87        23.7478  -22.1409  -41.6011 H         1 UNK         0.0847 
     88 H88        25.1171  -22.4776  -42.6592 H         1 UNK         0.0847 
     89 H89        25.3642  -22.2863  -40.9284 H         1 UNK         0.0847 
     90 H90        26.0671  -24.8564  -39.6233 H         1 UNK         0.3040 
     91 H91        27.9597  -25.8870  -39.2472 H         1 UNK         0.1015 
     92 H92        29.8171  -25.8614  -40.8748 H         1 UNK         0.0786 
     93 H93        29.0166  -24.2988  -40.8382 H         1 UNK         0.0786 
     94 H94        28.7277  -25.4112  -42.1750 H         1 UNK         0.0786 
     95 H95        26.5478  -27.0936  -42.2666 H         1 UNK         0.3172 
     96 H96        27.5022  -29.8123  -42.0615 H         1 UNK         0.0595 
     97 H97        25.1354  -28.6049  -43.6088 H         1 UNK         0.0839 
     98 H98        25.7966  -30.2132  -43.8602 H         1 UNK         0.0839 
     99 H99        26.7758  -28.8015  -44.2260 H         1 UNK         0.0839 
    100 H100       26.4016  -31.6643  -41.3973 H         1 UNK         0.2998 
    101 H101       24.5419  -31.4248  -39.1922 H         1 UNK         0.0822 
    102 H102       26.2916  -33.1995  -39.2463 H         1 UNK         0.0787 
    103 H103       24.6918  -33.9233  -39.2020 H         1 UNK         0.0787 
    104 H104       25.5867  -33.8806  -40.7138 H         1 UNK         0.0787 
    105 H105       22.3802  -32.0114  -39.1241 H         1 UNK         0.3055 
    106 H106       20.8839  -31.8431  -41.6314 H         1 UNK         0.1106 
    107 H107       20.1261  -30.5517  -39.6430 H         1 UNK         0.0828 
    108 H108       18.9145  -31.7433  -40.0754 H         1 UNK         0.0828 
    109 H109       19.9722  -32.0378  -38.7040 H         1 UNK         0.0828 
    110 H110       19.2436  -33.3398  -42.2558 H         1 UNK         0.2931 
    111 H111       19.9506  -36.1067  -42.0191 H         1 UNK         0.0412 
    112 H112       17.2280  -35.5741  -39.0742 H         1 UNK         0.3472 
    113 H113       18.0279  -34.2131  -39.8184 H         1 UNK         0.3472 
    114 H114       17.4579  -34.8559  -43.2706 H         1 UNK         0.0970 
    115 H115       17.9416  -36.5185  -43.4451 H         1 UNK         0.0970 
    116 H116       17.4840  -33.8273  -45.4949 H         1 UNK         0.0612 
    117 H117       18.9140  -33.4911  -46.4339 H         1 UNK         0.0612 
@<TRIPOS>BOND
     1    1    2 1    
     2    1   62 1    
     3    1   63 1    
     4    1   64 1    
     5    2    3 2    
     6    2    4 am   BACKBONE|DICT|INTERRES
     7    4    5 1    
     8    4   65 1    
     9    5    6 1    
    10    5   25 1    
    11    5   66 1    
    12    6    7 1    
    13    6   67 1    
    14    6   68 1    
    15    7    8 1    
    16    8    9 1    
    17    8   69 1    
    18    8   70 1    
    19    9   10 ar   
    20    9   14 ar   
    21   10   11 ar   
    22   10   71 1    
    23   11   12 ar   
    24   11   61 1    
    25   12   13 ar   
    26   12   72 1    
    27   13   14 ar   
    28   13   15 1    
    29   14   73 1    
    30   15   16 1    
    31   15   74 1    
    32   15   75 1    
    33   16   17 1    
    34   17   18 1    
    35   17   76 1    
    36   17   77 1    
    37   18   19 1    
    38   18   27 1    
    39   18   78 1    
    40   19   20 am   BACKBONE|DICT|INTERRES
    41   19   79 1    
    42   20   21 2    
    43   20   22 1    
    44   22   23 1    
    45   22   24 1    
    46   22   80 1    
    47   23   81 1    
    48   23   82 1    
    49   23   83 1    
    50   24   25 am   BACKBONE|DICT|INTERRES
    51   24   84 1    
    52   25   26 2    
    53   27   28 2    
    54   27   29 am   BACKBONE|DICT|INTERRES
    55   29   30 1    
    56   29   85 1    
    57   30   31 1    
    58   30   32 1    
    59   30   86 1    
    60   31   87 1    
    61   31   88 1    
    62   31   89 1    
    63   32   33 2    
    64   32   34 am   BACKBONE|DICT|INTERRES
    65   34   35 1    
    66   34   90 1    
    67   35   36 1    
    68   35   37 1    
    69   35   91 1    
    70   36   92 1    
    71   36   93 1    
    72   36   94 1    
    73   37   38 2    
    74   37   39 am   BACKBONE|DICT|INTERRES
    75   39   40 1    
    76   39   95 1    
    77   40   41 1    
    78   40   42 1    
    79   40   96 1    
    80   41   97 1    
    81   41   98 1    
    82   41   99 1    
    83   42   43 2    
    84   42   44 am   BACKBONE|DICT|INTERRES
    85   44   45 1    
    86   44  100 1    
    87   45   46 1    
    88   45   47 1    
    89   45  101 1    
    90   46  102 1    
    91   46  103 1    
    92   46  104 1    
    93   47   48 2    
    94   47   49 am   BACKBONE|DICT|INTERRES
    95   49   50 1    
    96   49  105 1    
    97   50   51 1    
    98   50   52 1    
    99   50  106 1    
   100   51  107 1    
   101   51  108 1    
   102   51  109 1    
   103   52   53 2    
   104   52   54 am   BACKBONE|DICT|INTERRES
   105   54   55 1    
   106   54  110 1    
   107   55   56 1    
   108   55   59 1    
   109   55  111 1    
   110   56   57 am   BACKBONE|DICT|INTERRES
   111   56   58 2    
   112   57  112 1    
   113   57  113 1    
   114   59   60 1    
   115   59  114 1    
   116   59  115 1    
   117   60   61 1    
   118   61  116 1    
   119   61  117 1    
@<TRIPOS>SUBSTRUCTURE
     1 UNK         1 GROUP             0       ****    0 ROOT    
