@<TRIPOS>MOLECULE
3R8
117   119    1
SMALL
USER_CHARGES


@<TRIPOS>ATOM
      1 CA         19.9869  -29.2112  -42.4591 C.3       0 UNK        -0.2013 
      2 C          18.7024  -28.4482  -42.2019 C.2       0 UNK         0.4866 
      3 O          18.5368  -27.8842  -41.1218 O.2       0 UNK        -0.5176 
      4 N          17.8012  -28.4139  -43.1919 N.am      1 UNK        -0.4884 
      5 CA         16.5101  -27.7125  -43.1270 C.3       1 UNK         0.0853 
      6 C6         15.5912  -28.0760  -44.3171 C.3       10 UNK        -0.0849 
      7 S7         15.2654  -29.8698  -44.4080 S.3       10 UNK        -0.2776 
      8 C8         16.0119  -30.3167  -46.0087 C.3       10 UNK         0.0316 
      9 C9         17.5357  -30.3141  -45.9742 C.ar      10 UNK        -0.0863 
     10 C10        18.2234  -31.3579  -45.3451 C.ar      10 UNK        -0.1009 
     11 C11        19.6241  -31.4151  -45.3759 C.ar      10 UNK        -0.0712 
     12 C12        20.3256  -30.4016  -46.0392 C.ar      10 UNK        -0.0894 
     13 C13        19.6532  -29.3500  -46.6688 C.ar      10 UNK        -0.0745 
     14 C14        18.2565  -29.3092  -46.6277 C.ar      10 UNK        -0.0972 
     15 C15        20.4316  -28.3036  -47.4597 C.3       10 UNK         0.0209 
     16 S16        20.4560  -26.6693  -46.6572 S.3       10 UNK        -0.2568 
     17 C17        21.6235  -26.9500  -45.2839 C.3       10 UNK        -0.0983 
     18 CA         21.6945  -25.7707  -44.2693 C.3       3 UNK         0.0876 
     19 N          20.3756  -25.4090  -43.7566 N.am      3 UNK        -0.4424 
     20 C          19.6833  -24.3114  -44.0858 C.2       2 UNK         0.4918 
     21 O          20.1506  -23.3744  -44.7327 O.2       2 UNK        -0.4875 
     22 CA         18.2020  -24.3004  -43.6673 C.3       2 UNK         0.0481 
     23 CB         17.3404  -23.3424  -44.5132 C.3       2 UNK        -0.1831 
     24 N          17.6795  -25.6637  -43.7542 N.am      2 UNK        -0.4498 
     25 C          16.6899  -26.1837  -43.0202 C.2       1 UNK         0.5027 
     26 O          15.9732  -25.5293  -42.2619 O.2       1 UNK        -0.4969 
     27 C          22.5651  -26.1126  -43.0508 C.2       3 UNK         0.5005 
     28 O          22.7796  -27.2911  -42.7665 O.2       3 UNK        -0.5279 
     29 N          23.0146  -25.0866  -42.3128 N.am      4 UNK        -0.4463 
     30 CA         23.7405  -25.2137  -41.0376 C.3       4 UNK         0.0283 
     31 CB         24.1154  -23.8163  -40.5194 C.3       4 UNK        -0.1875 
     32 C          24.9865  -26.1199  -41.0836 C.2       4 UNK         0.4949 
     33 O          25.2701  -26.8125  -40.1059 O.2       4 UNK        -0.5039 
     34 N          25.6704  -26.1446  -42.2358 N.am      5 UNK        -0.4663 
     35 CA         26.8105  -27.0201  -42.5225 C.3       5 UNK         0.0242 
     36 CB         27.4563  -26.5783  -43.8458 C.3       5 UNK        -0.1982 
     37 C          26.4615  -28.5216  -42.5714 C.2       5 UNK         0.5017 
     38 O          27.3650  -29.3430  -42.4132 O.2       5 UNK        -0.5012 
     39 N          25.1793  -28.8603  -42.7770 N.am      6 UNK        -0.4439 
     40 CA         24.6698  -30.2340  -42.8004 C.3       6 UNK         0.0297 
     41 CB         23.5380  -30.3373  -43.8358 C.3       6 UNK        -0.2006 
     42 C          24.2127  -30.7295  -41.4134 C.2       6 UNK         0.4892 
     43 O          23.6928  -31.8428  -41.3268 O.2       6 UNK        -0.5089 
     44 N          24.4113  -29.9154  -40.3618 N.am      7 UNK        -0.4243 
     45 CA         24.2429  -30.2382  -38.9375 C.3       7 UNK         0.0196 
     46 CB         25.3829  -31.1706  -38.4756 C.3       7 UNK        -0.2007 
     47 C          22.8466  -30.7828  -38.5745 C.2       7 UNK         0.5020 
     48 O          22.7389  -31.7779  -37.8569 O.2       7 UNK        -0.5147 
     49 N          21.8046  -30.1187  -39.0950 N.am      8 UNK        -0.4734 
     50 CA         20.3757  -30.4303  -38.9264 C.3       8 UNK         0.0238 
     51 CB         19.9545  -30.3703  -37.4417 C.3       8 UNK        -0.1912 
     52 C          19.9099  -31.7309  -39.6178 C.2       8 UNK         0.5038 
     53 O          18.7892  -32.1737  -39.3606 O.2       8 UNK        -0.5046 
     54 N          20.7312  -32.2796  -40.5251 N.am      9 UNK        -0.4200 
     55 CA         20.4448  -33.4609  -41.3529 C.3       9 UNK         0.0839 
     56 C          20.3877  -34.7963  -40.5512 C.2       9 UNK         0.5513 
     57 N          19.9540  -35.8822  -41.1772 N.am      9 UNK        -0.7519 
     58 O          20.7682  -34.8758  -39.3848 O.2       9 UNK        -0.4960 
     59 C59        19.2242  -33.2375  -42.3053 C.3       10 UNK        -0.0876 
     60 S60        19.5018  -33.9173  -43.9738 S.3       10 UNK        -0.2414 
     61 C61        20.4383  -32.5522  -44.7499 C.3       10 UNK         0.0169 
     62 H62        20.8280  -28.7137  -41.9798 H         1 UNK         0.0903 
     63 H63        19.9150  -30.2126  -42.0525 H         1 UNK         0.0903 
     64 H64        20.1941  -29.2960  -43.5218 H         1 UNK         0.0903 
     65 H65        17.9672  -28.9406  -44.0404 H         1 UNK         0.3096 
     66 H66        16.0132  -28.0337  -42.2084 H         1 UNK         0.1121 
     67 H67        16.0190  -27.7275  -45.2589 H         1 UNK         0.0849 
     68 H68        14.6279  -27.5714  -44.2191 H         1 UNK         0.0849 
     69 H69        15.6674  -31.3145  -46.2847 H         1 UNK         0.0865 
     70 H70        15.6366  -29.6483  -46.7855 H         1 UNK         0.0865 
     71 H71        17.6517  -32.1330  -44.8550 H         1 UNK         0.1346 
     72 H72        21.4055  -30.4443  -46.0840 H         1 UNK         0.1412 
     73 H73        17.7334  -28.5099  -47.1355 H         1 UNK         0.1426 
     74 H74        21.4574  -28.6314  -47.6364 H         1 UNK         0.0716 
     75 H75        19.9766  -28.1976  -48.4456 H         1 UNK         0.0716 
     76 H76        22.6115  -27.1405  -45.7070 H         1 UNK         0.0695 
     77 H77        21.3257  -27.8722  -44.7887 H         1 UNK         0.0695 
     78 H78        22.1560  -24.9189  -44.7737 H         1 UNK         0.0983 
     79 H79        19.9497  -26.0810  -43.1366 H         1 UNK         0.3095 
     80 H80        18.1716  -23.9726  -42.6263 H         1 UNK         0.0454 
     81 H81        16.3018  -23.3431  -44.1829 H         1 UNK         0.0851 
     82 H82        17.3569  -23.6161  -45.5687 H         1 UNK         0.0851 
     83 H83        17.7015  -22.3163  -44.4345 H         1 UNK         0.0851 
     84 H84        18.1894  -26.2833  -44.3699 H         1 UNK         0.2976 
     85 H85        22.7776  -24.1482  -42.6039 H         1 UNK         0.3116 
     86 H86        23.0482  -25.6641  -40.3232 H         1 UNK         0.0646 
     87 H87        23.2308  -23.1995  -40.3601 H         1 UNK         0.0847 
     88 H88        24.6368  -23.8813  -39.5632 H         1 UNK         0.0847 
     89 H89        24.7728  -23.2905  -41.2131 H         1 UNK         0.0847 
     90 H90        25.3563  -25.5461  -42.9859 H         1 UNK         0.3040 
     91 H91        27.5417  -26.8882  -41.7217 H         1 UNK         0.1015 
     92 H92        26.7644  -26.6726  -44.6839 H         1 UNK         0.0786 
     93 H93        28.3316  -27.1875  -44.0763 H         1 UNK         0.0786 
     94 H94        27.7903  -25.5416  -43.7989 H         1 UNK         0.0786 
     95 H95        24.4746  -28.1289  -42.8492 H         1 UNK         0.3172 
     96 H96        25.4684  -30.9034  -43.1265 H         1 UNK         0.0595 
     97 H97        22.6361  -29.8245  -43.5049 H         1 UNK         0.0839 
     98 H98        23.2793  -31.3810  -44.0120 H         1 UNK         0.0839 
     99 H99        23.8329  -29.9137  -44.7958 H         1 UNK         0.0839 
    100 H100       24.7993  -28.9987  -40.5497 H         1 UNK         0.2998 
    101 H101       24.3498  -29.2964  -38.3967 H         1 UNK         0.0822 
    102 H102       25.3440  -31.3357  -37.3981 H         1 UNK         0.0787 
    103 H103       25.3246  -32.1471  -38.9581 H         1 UNK         0.0787 
    104 H104       26.3602  -30.7434  -38.7009 H         1 UNK         0.0787 
    105 H105       22.0115  -29.3228  -39.6833 H         1 UNK         0.3055 
    106 H106       19.8396  -29.6283  -39.4353 H         1 UNK         0.1106 
    107 H107       20.2809  -29.4424  -36.9723 H         1 UNK         0.0828 
    108 H108       18.8694  -30.4160  -37.3416 H         1 UNK         0.0828 
    109 H109       20.3642  -31.2015  -36.8675 H         1 UNK         0.0828 
    110 H110       21.6672  -31.9038  -40.6240 H         1 UNK         0.2931 
    111 H111       21.3445  -33.5501  -41.9627 H         1 UNK         0.0412 
    112 H112       19.9237  -36.7606  -40.6831 H         1 UNK         0.3472 
    113 H113       19.6624  -35.8328  -42.1422 H         1 UNK         0.3472 
    114 H114       18.3134  -33.6713  -41.8874 H         1 UNK         0.0970 
    115 H115       18.9944  -32.1800  -42.4226 H         1 UNK         0.0970 
    116 H116       21.0695  -32.9881  -45.5260 H         1 UNK         0.0612 
    117 H117       21.1132  -32.1305  -44.0055 H         1 UNK         0.0612 
@<TRIPOS>BOND
     1    1    2 1    
     2    1   62 1    
     3    1   63 1    
     4    1   64 1    
     5    2    3 2    
     6    2    4 am   BACKBONE|DICT|INTERRES
     7    4    5 1    
     8    4   65 1    
     9    5    6 1    
    10    5   25 1    
    11    5   66 1    
    12    6    7 1    
    13    6   67 1    
    14    6   68 1    
    15    7    8 1    
    16    8    9 1    
    17    8   69 1    
    18    8   70 1    
    19    9   10 ar   
    20    9   14 ar   
    21   10   11 ar   
    22   10   71 1    
    23   11   12 ar   
    24   11   61 1    
    25   12   13 ar   
    26   12   72 1    
    27   13   14 ar   
    28   13   15 1    
    29   14   73 1    
    30   15   16 1    
    31   15   74 1    
    32   15   75 1    
    33   16   17 1    
    34   17   18 1    
    35   17   76 1    
    36   17   77 1    
    37   18   19 1    
    38   18   27 1    
    39   18   78 1    
    40   19   20 am   BACKBONE|DICT|INTERRES
    41   19   79 1    
    42   20   21 2    
    43   20   22 1    
    44   22   23 1    
    45   22   24 1    
    46   22   80 1    
    47   23   81 1    
    48   23   82 1    
    49   23   83 1    
    50   24   25 am   BACKBONE|DICT|INTERRES
    51   24   84 1    
    52   25   26 2    
    53   27   28 2    
    54   27   29 am   BACKBONE|DICT|INTERRES
    55   29   30 1    
    56   29   85 1    
    57   30   31 1    
    58   30   32 1    
    59   30   86 1    
    60   31   87 1    
    61   31   88 1    
    62   31   89 1    
    63   32   33 2    
    64   32   34 am   BACKBONE|DICT|INTERRES
    65   34   35 1    
    66   34   90 1    
    67   35   36 1    
    68   35   37 1    
    69   35   91 1    
    70   36   92 1    
    71   36   93 1    
    72   36   94 1    
    73   37   38 2    
    74   37   39 am   BACKBONE|DICT|INTERRES
    75   39   40 1    
    76   39   95 1    
    77   40   41 1    
    78   40   42 1    
    79   40   96 1    
    80   41   97 1    
    81   41   98 1    
    82   41   99 1    
    83   42   43 2    
    84   42   44 am   BACKBONE|DICT|INTERRES
    85   44   45 1    
    86   44  100 1    
    87   45   46 1    
    88   45   47 1    
    89   45  101 1    
    90   46  102 1    
    91   46  103 1    
    92   46  104 1    
    93   47   48 2    
    94   47   49 am   BACKBONE|DICT|INTERRES
    95   49   50 1    
    96   49  105 1    
    97   50   51 1    
    98   50   52 1    
    99   50  106 1    
   100   51  107 1    
   101   51  108 1    
   102   51  109 1    
   103   52   53 2    
   104   52   54 am   BACKBONE|DICT|INTERRES
   105   54   55 1    
   106   54  110 1    
   107   55   56 1    
   108   55   59 1    
   109   55  111 1    
   110   56   57 am   BACKBONE|DICT|INTERRES
   111   56   58 2    
   112   57  112 1    
   113   57  113 1    
   114   59   60 1    
   115   59  114 1    
   116   59  115 1    
   117   60   61 1    
   118   61  116 1    
   119   61  117 1    
@<TRIPOS>SUBSTRUCTURE
     1 UNK         1 GROUP             0       ****    0 ROOT    
