@<TRIPOS>MOLECULE
3R8
117   119    1
SMALL
USER_CHARGES


@<TRIPOS>ATOM
      1 CA         17.4115  -22.5635  -41.6260 C.3       0 UNK        -0.2013 
      2 C          17.7753  -23.7113  -42.5550 C.2       0 UNK         0.4866 
      3 O          17.2200  -23.8165  -43.6493 O.2       0 UNK        -0.5176 
      4 N          18.7154  -24.5691  -42.1395 N.am      1 UNK        -0.4884 
      5 CA         19.1805  -25.7580  -42.8670 C.3       1 UNK         0.0853 
      6 C6         19.8207  -26.7984  -41.9100 C.3       10 UNK        -0.0849 
      7 S7         18.7463  -27.3492  -40.5383 S.3       10 UNK        -0.2776 
      8 C8         17.4667  -28.3389  -41.3839 C.3       10 UNK         0.0316 
      9 C9         18.0524  -29.3650  -42.3443 C.ar      10 UNK        -0.0863 
     10 C10        18.7515  -30.4712  -41.8580 C.ar      10 UNK        -0.1009 
     11 C11        19.3018  -31.4060  -42.7395 C.ar      10 UNK        -0.0712 
     12 C12        19.1599  -31.2165  -44.1179 C.ar      10 UNK        -0.0894 
     13 C13        18.4834  -30.1022  -44.6249 C.ar      10 UNK        -0.0745 
     14 C14        17.9095  -29.1947  -43.7238 C.ar      10 UNK        -0.0972 
     15 C15        18.4111  -29.9183  -46.1437 C.3       10 UNK         0.0209 
     16 S16        17.9942  -28.2245  -46.6876 S.3       10 UNK        -0.2568 
     17 C17        18.9933  -28.0296  -48.2068 C.3       10 UNK        -0.0983 
     18 CA         20.3213  -27.2491  -47.9945 C.3       3 UNK         0.0876 
     19 N          20.1113  -26.0643  -47.1603 N.am      3 UNK        -0.4424 
     20 C          20.9018  -24.9893  -47.0830 C.2       2 UNK         0.4918 
     21 O          21.8962  -24.8166  -47.7874 O.2       2 UNK        -0.4875 
     22 CA         20.5232  -23.9348  -46.0234 C.3       2 UNK         0.0481 
     23 CB         19.7576  -22.7726  -46.6747 C.3       2 UNK        -0.1831 
     24 N          19.7356  -24.4568  -44.8959 N.am      2 UNK        -0.4498 
     25 C          20.1382  -25.3972  -44.0291 C.2       1 UNK         0.5027 
     26 O          21.2226  -25.9707  -44.1299 O.2       1 UNK        -0.4969 
     27 C          21.4551  -28.1735  -47.4896 C.2       3 UNK         0.5005 
     28 O          21.8716  -29.0558  -48.2430 O.2       3 UNK        -0.5279 
     29 N          21.9350  -27.9851  -46.2522 N.am      4 UNK        -0.4463 
     30 CA         22.9934  -28.7814  -45.6344 C.3       4 UNK         0.0283 
     31 CB         22.3921  -30.0642  -45.0160 C.3       4 UNK        -0.1875 
     32 C          23.7493  -27.8877  -44.6399 C.2       4 UNK         0.4949 
     33 O          24.3554  -26.8997  -45.0572 O.2       4 UNK        -0.5039 
     34 N          23.6861  -28.2324  -43.3519 N.am      5 UNK        -0.4663 
     35 CA         24.1394  -27.4403  -42.2157 C.3       5 UNK         0.0242 
     36 CB         25.6223  -27.7282  -41.9212 C.3       5 UNK        -0.1982 
     37 C          23.2307  -27.7886  -41.0294 C.2       5 UNK         0.5017 
     38 O          22.5387  -28.8104  -41.0845 O.2       5 UNK        -0.5012 
     39 N          23.2324  -26.9224  -40.0055 N.am      6 UNK        -0.4439 
     40 CA         22.3531  -26.9286  -38.8274 C.3       6 UNK         0.0297 
     41 CB         22.8327  -25.8472  -37.8428 C.3       6 UNK        -0.2006 
     42 C          22.2272  -28.2986  -38.1342 C.2       6 UNK         0.4892 
     43 O          23.0899  -28.6577  -37.3307 O.2       6 UNK        -0.5089 
     44 N          21.1606  -29.0316  -38.4900 N.am      7 UNK        -0.4243 
     45 CA         20.8099  -30.3867  -38.0445 C.3       7 UNK         0.0196 
     46 CB         20.4219  -30.3810  -36.5509 C.3       7 UNK        -0.2007 
     47 C          21.8705  -31.4603  -38.3721 C.2       7 UNK         0.5020 
     48 O          21.8934  -32.5084  -37.7246 O.2       7 UNK        -0.5147 
     49 N          22.7196  -31.2163  -39.3802 N.am      8 UNK        -0.4734 
     50 CA         23.8381  -32.0817  -39.7762 C.3       8 UNK         0.0238 
     51 CB         24.9151  -31.2139  -40.4507 C.3       8 UNK        -0.1912 
     52 C          23.3939  -33.2606  -40.6658 C.2       8 UNK         0.5038 
     53 O          24.0107  -33.5188  -41.7011 O.2       8 UNK        -0.5046 
     54 N          22.3096  -33.9338  -40.2662 N.am      9 UNK        -0.4200 
     55 CA         21.6706  -35.0270  -41.0133 C.3       9 UNK         0.0839 
     56 C          22.3511  -36.4133  -40.8152 C.2       9 UNK         0.5513 
     57 N          23.3202  -36.5626  -39.9198 N.am      9 UNK        -0.7519 
     58 O          21.9966  -37.3724  -41.4959 O.2       9 UNK        -0.4960 
     59 C59        20.1470  -35.1045  -40.7165 C.3       10 UNK        -0.0876 
     60 S60        19.1268  -33.6164  -41.0549 S.3       10 UNK        -0.2414 
     61 C61        20.0982  -32.5882  -42.2079 C.3       10 UNK         0.0169 
     62 H62        16.3530  -22.6094  -41.3713 H         1 UNK         0.0903 
     63 H63        17.9847  -22.5912  -40.6994 H         1 UNK         0.0903 
     64 H64        17.6034  -21.6092  -42.1158 H         1 UNK         0.0903 
     65 H65        19.1432  -24.4272  -41.2353 H         1 UNK         0.3096 
     66 H66        18.3124  -26.2280  -43.3323 H         1 UNK         0.1121 
     67 H67        20.7180  -26.3697  -41.4640 H         1 UNK         0.0849 
     68 H68        20.1613  -27.6800  -42.4570 H         1 UNK         0.0849 
     69 H69        16.7854  -27.6643  -41.9046 H         1 UNK         0.0865 
     70 H70        16.8646  -28.8524  -40.6329 H         1 UNK         0.0865 
     71 H71        18.8734  -30.6013  -40.7921 H         1 UNK         0.1346 
     72 H72        19.6018  -31.9273  -44.8029 H         1 UNK         0.1412 
     73 H73        17.3596  -28.3392  -44.0868 H         1 UNK         0.1426 
     74 H74        17.6737  -30.6099  -46.5527 H         1 UNK         0.0716 
     75 H75        19.3734  -30.1992  -46.5739 H         1 UNK         0.0716 
     76 H76        18.3753  -27.4767  -48.9159 H         1 UNK         0.0695 
     77 H77        19.1612  -29.0012  -48.6758 H         1 UNK         0.0695 
     78 H78        20.6509  -26.8985  -48.9752 H         1 UNK         0.0983 
     79 H79        19.3073  -26.1111  -46.5509 H         1 UNK         0.3095 
     80 H80        21.4555  -23.5411  -45.6139 H         1 UNK         0.0454 
     81 H81        18.7971  -23.0972  -47.0767 H         1 UNK         0.0851 
     82 H82        20.3275  -22.3415  -47.4991 H         1 UNK         0.0851 
     83 H83        19.5691  -21.9710  -45.9604 H         1 UNK         0.0851 
     84 H84        18.8217  -24.0423  -44.7325 H         1 UNK         0.2976 
     85 H85        21.5962  -27.2076  -45.6919 H         1 UNK         0.3116 
     86 H86        23.7192  -29.0730  -46.3964 H         1 UNK         0.0646 
     87 H87        21.9163  -30.6816  -45.7777 H         1 UNK         0.0847 
     88 H88        21.6384  -29.8346  -44.2617 H         1 UNK         0.0847 
     89 H89        23.1617  -30.6790  -44.5471 H         1 UNK         0.0847 
     90 H90        23.1111  -29.0208  -43.0792 H         1 UNK         0.3040 
     91 H91        24.0060  -26.3802  -42.4446 H         1 UNK         0.1015 
     92 H92        26.2528  -27.4315  -42.7595 H         1 UNK         0.0786 
     93 H93        25.9676  -27.1749  -41.0472 H         1 UNK         0.0786 
     94 H94        25.8021  -28.7855  -41.7319 H         1 UNK         0.0786 
     95 H95        23.8690  -26.1406  -40.0613 H         1 UNK         0.3172 
     96 H96        21.3589  -26.6336  -39.1652 H         1 UNK         0.0595 
     97 H97        23.8580  -26.0245  -37.5153 H         1 UNK         0.0839 
     98 H98        22.2059  -25.8268  -36.9501 H         1 UNK         0.0839 
     99 H99        22.7887  -24.8531  -38.2882 H         1 UNK         0.0839 
    100 H100       20.5545  -28.6450  -39.2030 H         1 UNK         0.2998 
    101 H101       19.9221  -30.6689  -38.6113 H         1 UNK         0.0822 
    102 H102       19.6550  -29.6347  -36.3431 H         1 UNK         0.0787 
    103 H103       20.0204  -31.3479  -36.2448 H         1 UNK         0.0787 
    104 H104       21.2796  -30.1685  -35.9119 H         1 UNK         0.0787 
    105 H105       22.6069  -30.3531  -39.9070 H         1 UNK         0.3055 
    106 H106       24.2795  -32.5149  -38.8757 H         1 UNK         0.1106 
    107 H107       25.8106  -31.7970  -40.6697 H         1 UNK         0.0828 
    108 H108       25.2172  -30.3858  -39.8092 H         1 UNK         0.0828 
    109 H109       24.5566  -30.7991  -41.3934 H         1 UNK         0.0828 
    110 H110       21.8832  -33.6671  -39.3857 H         1 UNK         0.2931 
    111 H111       21.7841  -34.8156  -42.0773 H         1 UNK         0.0412 
    112 H112       23.6193  -35.7834  -39.3558 H         1 UNK         0.3472 
    113 H113       23.7543  -37.4655  -39.8062 H         1 UNK         0.3472 
    114 H114       19.7018  -35.9163  -41.2953 H         1 UNK         0.0970 
    115 H115       19.9901  -35.3751  -39.6708 H         1 UNK         0.0970 
    116 H116       20.4537  -33.2081  -43.0316 H         1 UNK         0.0612 
    117 H117       20.9741  -32.1852  -41.7039 H         1 UNK         0.0612 
@<TRIPOS>BOND
     1    1    2 1    
     2    1   62 1    
     3    1   63 1    
     4    1   64 1    
     5    2    3 2    
     6    2    4 am   BACKBONE|DICT|INTERRES
     7    4    5 1    
     8    4   65 1    
     9    5    6 1    
    10    5   25 1    
    11    5   66 1    
    12    6    7 1    
    13    6   67 1    
    14    6   68 1    
    15    7    8 1    
    16    8    9 1    
    17    8   69 1    
    18    8   70 1    
    19    9   10 ar   
    20    9   14 ar   
    21   10   11 ar   
    22   10   71 1    
    23   11   12 ar   
    24   11   61 1    
    25   12   13 ar   
    26   12   72 1    
    27   13   14 ar   
    28   13   15 1    
    29   14   73 1    
    30   15   16 1    
    31   15   74 1    
    32   15   75 1    
    33   16   17 1    
    34   17   18 1    
    35   17   76 1    
    36   17   77 1    
    37   18   19 1    
    38   18   27 1    
    39   18   78 1    
    40   19   20 am   BACKBONE|DICT|INTERRES
    41   19   79 1    
    42   20   21 2    
    43   20   22 1    
    44   22   23 1    
    45   22   24 1    
    46   22   80 1    
    47   23   81 1    
    48   23   82 1    
    49   23   83 1    
    50   24   25 am   BACKBONE|DICT|INTERRES
    51   24   84 1    
    52   25   26 2    
    53   27   28 2    
    54   27   29 am   BACKBONE|DICT|INTERRES
    55   29   30 1    
    56   29   85 1    
    57   30   31 1    
    58   30   32 1    
    59   30   86 1    
    60   31   87 1    
    61   31   88 1    
    62   31   89 1    
    63   32   33 2    
    64   32   34 am   BACKBONE|DICT|INTERRES
    65   34   35 1    
    66   34   90 1    
    67   35   36 1    
    68   35   37 1    
    69   35   91 1    
    70   36   92 1    
    71   36   93 1    
    72   36   94 1    
    73   37   38 2    
    74   37   39 am   BACKBONE|DICT|INTERRES
    75   39   40 1    
    76   39   95 1    
    77   40   41 1    
    78   40   42 1    
    79   40   96 1    
    80   41   97 1    
    81   41   98 1    
    82   41   99 1    
    83   42   43 2    
    84   42   44 am   BACKBONE|DICT|INTERRES
    85   44   45 1    
    86   44  100 1    
    87   45   46 1    
    88   45   47 1    
    89   45  101 1    
    90   46  102 1    
    91   46  103 1    
    92   46  104 1    
    93   47   48 2    
    94   47   49 am   BACKBONE|DICT|INTERRES
    95   49   50 1    
    96   49  105 1    
    97   50   51 1    
    98   50   52 1    
    99   50  106 1    
   100   51  107 1    
   101   51  108 1    
   102   51  109 1    
   103   52   53 2    
   104   52   54 am   BACKBONE|DICT|INTERRES
   105   54   55 1    
   106   54  110 1    
   107   55   56 1    
   108   55   59 1    
   109   55  111 1    
   110   56   57 am   BACKBONE|DICT|INTERRES
   111   56   58 2    
   112   57  112 1    
   113   57  113 1    
   114   59   60 1    
   115   59  114 1    
   116   59  115 1    
   117   60   61 1    
   118   61  116 1    
   119   61  117 1    
@<TRIPOS>SUBSTRUCTURE
     1 UNK         1 GROUP             0       ****    0 ROOT    
