@<TRIPOS>MOLECULE
3R8
117   119    1
SMALL
USER_CHARGES


@<TRIPOS>ATOM
      1 CA         18.8174  -29.4909  -49.1767 C.3       0 UNK        -0.2013 
      2 C          17.9812  -28.9820  -48.0123 C.2       0 UNK         0.4866 
      3 O          16.8402  -29.4111  -47.8502 O.2       0 UNK        -0.5176 
      4 N          18.5445  -28.0734  -47.2106 N.am      1 UNK        -0.4884 
      5 CA         17.9914  -27.5126  -45.9779 C.3       1 UNK         0.0853 
      6 C6         16.7302  -26.6253  -46.2141 C.3       10 UNK        -0.0849 
      7 S7         15.7723  -26.1931  -44.7118 S.3       10 UNK        -0.2776 
      8 C8         14.6306  -27.5994  -44.5112 C.3       10 UNK         0.0316 
      9 C9         15.3211  -28.7906  -43.8637 C.ar      10 UNK        -0.0863 
     10 C10        15.7441  -29.8654  -44.6486 C.ar      10 UNK        -0.1009 
     11 C11        16.4342  -30.9364  -44.0771 C.ar      10 UNK        -0.0712 
     12 C12        16.6372  -30.9618  -42.6953 C.ar      10 UNK        -0.0894 
     13 C13        16.2171  -29.8950  -41.8951 C.ar      10 UNK        -0.0745 
     14 C14        15.5567  -28.8117  -42.4845 C.ar      10 UNK        -0.0972 
     15 C15        16.4872  -29.9142  -40.3962 C.3       10 UNK         0.0209 
     16 S16        17.8638  -28.8170  -39.9184 S.3       10 UNK        -0.2568 
     17 C17        19.3053  -29.6066  -40.7250 C.3       10 UNK        -0.0983 
     18 CA         20.4120  -28.6071  -41.1473 C.3       3 UNK         0.0876 
     19 N          19.8688  -27.4732  -41.9094 N.am      3 UNK        -0.4424 
     20 C          20.5646  -26.4587  -42.4423 C.2       2 UNK         0.4918 
     21 O          21.7822  -26.3310  -42.3254 O.2       2 UNK        -0.4875 
     22 CA         19.7456  -25.4198  -43.2278 C.3       2 UNK         0.0481 
     23 CB         20.6225  -24.3510  -43.9145 C.3       2 UNK        -0.1831 
     24 N          18.8331  -26.0627  -44.1792 N.am      2 UNK        -0.4498 
     25 C          19.1551  -26.8225  -45.2350 C.2       1 UNK         0.5027 
     26 O          20.3144  -27.0105  -45.6173 O.2       1 UNK        -0.4969 
     27 C          21.3106  -28.2106  -39.9554 C.2       3 UNK         0.5005 
     28 O          22.2564  -28.9379  -39.6490 O.2       3 UNK        -0.5279 
     29 N          21.0408  -27.0460  -39.3482 N.am      4 UNK        -0.4463 
     30 CA         21.8427  -26.4356  -38.2855 C.3       4 UNK         0.0283 
     31 CB         21.1073  -25.1967  -37.7504 C.3       4 UNK        -0.1875 
     32 C          23.2792  -26.0639  -38.7040 C.2       4 UNK         0.4949 
     33 O          24.1434  -25.9663  -37.8314 O.2       4 UNK        -0.5039 
     34 N          23.5362  -25.8831  -40.0090 N.am      5 UNK        -0.4663 
     35 CA         24.8574  -25.5912  -40.5732 C.3       5 UNK         0.0242 
     36 CB         24.6878  -24.8942  -41.9366 C.3       5 UNK        -0.1982 
     37 C          25.7292  -26.8600  -40.6584 C.2       5 UNK         0.5017 
     38 O          26.1061  -27.2802  -41.7534 O.2       5 UNK        -0.5012 
     39 N          26.0257  -27.4395  -39.4867 N.am      6 UNK        -0.4439 
     40 CA         26.8826  -28.6064  -39.2502 C.3       6 UNK         0.0297 
     41 CB         28.3564  -28.2625  -39.5571 C.3       6 UNK        -0.2006 
     42 C          26.3997  -29.8823  -39.9697 C.2       6 UNK         0.4892 
     43 O          27.2029  -30.5613  -40.6123 O.2       6 UNK        -0.5089 
     44 N          25.1003  -30.1881  -39.8241 N.am      7 UNK        -0.4243 
     45 CA         24.4024  -31.3607  -40.3666 C.3       7 UNK         0.0196 
     46 CB         24.9453  -32.6701  -39.7533 C.3       7 UNK        -0.2007 
     47 C          24.3924  -31.3699  -41.9050 C.2       7 UNK         0.5020 
     48 O          24.8992  -32.3051  -42.5270 O.2       7 UNK        -0.5147 
     49 N          23.8043  -30.3175  -42.4936 N.am      8 UNK        -0.4734 
     50 CA         23.6349  -30.1648  -43.9471 C.3       8 UNK         0.0238 
     51 CB         23.1161  -28.7532  -44.2627 C.3       8 UNK        -0.1912 
     52 C          22.7195  -31.2331  -44.5800 C.2       8 UNK         0.5038 
     53 O          22.9035  -31.5650  -45.7515 O.2       8 UNK        -0.5046 
     54 N          21.7860  -31.7652  -43.7830 N.am      9 UNK        -0.4200 
     55 CA         21.0155  -32.9821  -44.0568 C.3       9 UNK         0.0839 
     56 C          21.4989  -34.0895  -43.0873 C.2       9 UNK         0.5513 
     57 N          21.6780  -35.3094  -43.5735 N.am      9 UNK        -0.7519 
     58 O          21.6706  -33.8582  -41.8916 O.2       9 UNK        -0.4960 
     59 C59        19.4937  -32.7465  -43.8845 C.3       10 UNK        -0.0876 
     60 S60        18.7722  -31.8035  -45.2680 S.3       10 UNK        -0.2414 
     61 C61        16.9896  -32.0412  -44.9622 C.3       10 UNK         0.0169 
     62 H62        18.3046  -29.3006  -50.1190 H         1 UNK         0.0903 
     63 H63        19.7946  -29.0104  -49.2188 H         1 UNK         0.0903 
     64 H64        18.9719  -30.5655  -49.0829 H         1 UNK         0.0903 
     65 H65        19.5081  -27.7922  -47.3575 H         1 UNK         0.3096 
     66 H66        17.7219  -28.3597  -45.3507 H         1 UNK         0.1121 
     67 H67        17.0181  -25.6989  -46.7143 H         1 UNK         0.0849 
     68 H68        16.0430  -27.1181  -46.9019 H         1 UNK         0.0849 
     69 H69        14.1995  -27.8710  -45.4762 H         1 UNK         0.0865 
     70 H70        13.7941  -27.2862  -43.8846 H         1 UNK         0.0865 
     71 H71        15.5745  -29.8465  -45.7159 H         1 UNK         0.1346 
     72 H72        17.1502  -31.7992  -42.2446 H         1 UNK         0.1412 
     73 H73        15.2392  -27.9789  -41.8714 H         1 UNK         0.1426 
     74 H74        16.7028  -30.9276  -40.0539 H         1 UNK         0.0716 
     75 H75        15.5876  -29.5997  -39.8653 H         1 UNK         0.0716 
     76 H76        18.9678  -30.1306  -41.6173 H         1 UNK         0.0695 
     77 H77        19.6996  -30.3831  -40.0663 H         1 UNK         0.0695 
     78 H78        21.0702  -29.1376  -41.8361 H         1 UNK         0.0983 
     79 H79        18.8673  -27.4860  -42.0384 H         1 UNK         0.3095 
     80 H80        19.1168  -24.9077  -42.4982 H         1 UNK         0.0454 
     81 H81        20.0155  -23.6298  -44.4612 H         1 UNK         0.0851 
     82 H82        21.3330  -24.7920  -44.6142 H         1 UNK         0.0851 
     83 H83        21.2031  -23.7943  -43.1778 H         1 UNK         0.0851 
     84 H84        17.8438  -25.9575  -43.9817 H         1 UNK         0.2976 
     85 H85        20.2377  -26.5251  -39.6692 H         1 UNK         0.3116 
     86 H86        21.9213  -27.1634  -37.4752 H         1 UNK         0.0646 
     87 H87        21.6631  -24.7358  -36.9325 H         1 UNK         0.0847 
     88 H88        20.1216  -25.4548  -37.3628 H         1 UNK         0.0847 
     89 H89        20.9784  -24.4381  -38.5235 H         1 UNK         0.0847 
     90 H90        22.7917  -26.0308  -40.6849 H         1 UNK         0.3040 
     91 H91        25.3725  -24.8897  -39.9127 H         1 UNK         0.1015 
     92 H92        24.0604  -24.0065  -41.8556 H         1 UNK         0.0786 
     93 H93        24.2388  -25.5550  -42.6786 H         1 UNK         0.0786 
     94 H94        25.6530  -24.5751  -42.3316 H         1 UNK         0.0786 
     95 H95        25.6032  -27.0215  -38.6615 H         1 UNK         0.3172 
     96 H96        26.8147  -28.8201  -38.1825 H         1 UNK         0.0595 
     97 H97        28.5139  -28.0667  -40.6184 H         1 UNK         0.0839 
     98 H98        29.0165  -29.0846  -39.2774 H         1 UNK         0.0839 
     99 H99        28.6838  -27.3837  -39.0016 H         1 UNK         0.0839 
    100 H100       24.5079  -29.5348  -39.3261 H         1 UNK         0.2998 
    101 H101       23.3606  -31.2772  -40.0548 H         1 UNK         0.0822 
    102 H102       25.9793  -32.8616  -40.0412 H         1 UNK         0.0787 
    103 H103       24.8982  -32.6475  -38.6646 H         1 UNK         0.0787 
    104 H104       24.3543  -33.5248  -40.0857 H         1 UNK         0.0787 
    105 H105       23.4703  -29.5661  -41.9060 H         1 UNK         0.3055 
    106 H106       24.6218  -30.2740  -44.4024 H         1 UNK         0.1106 
    107 H107       23.1122  -28.5732  -45.3385 H         1 UNK         0.0828 
    108 H108       22.0937  -28.6089  -43.9156 H         1 UNK         0.0828 
    109 H109       23.7397  -27.9825  -43.8084 H         1 UNK         0.0828 
    110 H110       21.7738  -31.4675  -42.8195 H         1 UNK         0.2931 
    111 H111       21.1999  -33.3222  -45.0782 H         1 UNK         0.0412 
    112 H112       21.9777  -36.0449  -42.9523 H         1 UNK         0.3472 
    113 H113       21.5271  -35.5099  -44.5504 H         1 UNK         0.3472 
    114 H114       18.9671  -33.7016  -43.8295 H         1 UNK         0.0970 
    115 H115       19.2919  -32.2301  -42.9459 H         1 UNK         0.0970 
    116 H116       16.4744  -32.0445  -45.9241 H         1 UNK         0.0612 
    117 H117       16.8011  -33.0175  -44.5139 H         1 UNK         0.0612 
@<TRIPOS>BOND
     1    1    2 1    
     2    1   62 1    
     3    1   63 1    
     4    1   64 1    
     5    2    3 2    
     6    2    4 am   BACKBONE|DICT|INTERRES
     7    4    5 1    
     8    4   65 1    
     9    5    6 1    
    10    5   25 1    
    11    5   66 1    
    12    6    7 1    
    13    6   67 1    
    14    6   68 1    
    15    7    8 1    
    16    8    9 1    
    17    8   69 1    
    18    8   70 1    
    19    9   10 ar   
    20    9   14 ar   
    21   10   11 ar   
    22   10   71 1    
    23   11   12 ar   
    24   11   61 1    
    25   12   13 ar   
    26   12   72 1    
    27   13   14 ar   
    28   13   15 1    
    29   14   73 1    
    30   15   16 1    
    31   15   74 1    
    32   15   75 1    
    33   16   17 1    
    34   17   18 1    
    35   17   76 1    
    36   17   77 1    
    37   18   19 1    
    38   18   27 1    
    39   18   78 1    
    40   19   20 am   BACKBONE|DICT|INTERRES
    41   19   79 1    
    42   20   21 2    
    43   20   22 1    
    44   22   23 1    
    45   22   24 1    
    46   22   80 1    
    47   23   81 1    
    48   23   82 1    
    49   23   83 1    
    50   24   25 am   BACKBONE|DICT|INTERRES
    51   24   84 1    
    52   25   26 2    
    53   27   28 2    
    54   27   29 am   BACKBONE|DICT|INTERRES
    55   29   30 1    
    56   29   85 1    
    57   30   31 1    
    58   30   32 1    
    59   30   86 1    
    60   31   87 1    
    61   31   88 1    
    62   31   89 1    
    63   32   33 2    
    64   32   34 am   BACKBONE|DICT|INTERRES
    65   34   35 1    
    66   34   90 1    
    67   35   36 1    
    68   35   37 1    
    69   35   91 1    
    70   36   92 1    
    71   36   93 1    
    72   36   94 1    
    73   37   38 2    
    74   37   39 am   BACKBONE|DICT|INTERRES
    75   39   40 1    
    76   39   95 1    
    77   40   41 1    
    78   40   42 1    
    79   40   96 1    
    80   41   97 1    
    81   41   98 1    
    82   41   99 1    
    83   42   43 2    
    84   42   44 am   BACKBONE|DICT|INTERRES
    85   44   45 1    
    86   44  100 1    
    87   45   46 1    
    88   45   47 1    
    89   45  101 1    
    90   46  102 1    
    91   46  103 1    
    92   46  104 1    
    93   47   48 2    
    94   47   49 am   BACKBONE|DICT|INTERRES
    95   49   50 1    
    96   49  105 1    
    97   50   51 1    
    98   50   52 1    
    99   50  106 1    
   100   51  107 1    
   101   51  108 1    
   102   51  109 1    
   103   52   53 2    
   104   52   54 am   BACKBONE|DICT|INTERRES
   105   54   55 1    
   106   54  110 1    
   107   55   56 1    
   108   55   59 1    
   109   55  111 1    
   110   56   57 am   BACKBONE|DICT|INTERRES
   111   56   58 2    
   112   57  112 1    
   113   57  113 1    
   114   59   60 1    
   115   59  114 1    
   116   59  115 1    
   117   60   61 1    
   118   61  116 1    
   119   61  117 1    
@<TRIPOS>SUBSTRUCTURE
     1 UNK         1 GROUP             0       ****    0 ROOT    
