@<TRIPOS>MOLECULE
3R8
117   119    1
SMALL
USER_CHARGES


@<TRIPOS>ATOM
      1 CA         17.4765  -25.2355  -40.7633 C.3       0 UNK        -0.2013 
      2 C          16.2857  -25.1226  -41.7113 C.2       0 UNK         0.4866 
      3 O          15.3939  -24.3179  -41.4485 O.2       0 UNK        -0.5176 
      4 N          16.1950  -25.8878  -42.8091 N.am      1 UNK        -0.4884 
      5 CA         17.1474  -26.8563  -43.3709 C.3       1 UNK         0.0853 
      6 C6         17.4963  -28.0673  -42.4563 C.3       10 UNK        -0.0849 
      7 S7         16.0487  -28.9254  -41.7463 S.3       10 UNK        -0.2776 
      8 C8         15.2594  -29.6932  -43.2019 C.3       10 UNK         0.0316 
      9 C9         16.2262  -30.5290  -44.0294 C.ar      10 UNK        -0.0863 
     10 C10        16.7660  -31.7092  -43.5092 C.ar      10 UNK        -0.1009 
     11 C11        17.6717  -32.4667  -44.2587 C.ar      10 UNK        -0.0712 
     12 C12        18.0229  -32.0423  -45.5450 C.ar      10 UNK        -0.0894 
     13 C13        17.4733  -30.8754  -46.0842 C.ar      10 UNK        -0.0745 
     14 C14        16.5762  -30.1236  -45.3210 C.ar      10 UNK        -0.0972 
     15 C15        17.8145  -30.4429  -47.5041 C.3       10 UNK         0.0209 
     16 S16        18.8140  -28.9226  -47.5468 S.3       10 UNK        -0.2568 
     17 C17        20.4493  -29.5539  -47.0487 C.3       10 UNK        -0.0983 
     18 CA         21.4245  -28.4072  -46.6889 C.3       3 UNK         0.0876 
     19 N          20.9423  -27.6176  -45.5560 N.am      3 UNK        -0.4424 
     20 C          21.3114  -26.3666  -45.2614 C.2       2 UNK         0.4918 
     21 O          21.9847  -25.6553  -46.0089 O.2       2 UNK        -0.4875 
     22 CA         20.8709  -25.8474  -43.8778 C.3       2 UNK         0.0481 
     23 CB         20.9221  -24.3094  -43.7564 C.3       2 UNK        -0.1831 
     24 N          19.5738  -26.3872  -43.4454 N.am      2 UNK        -0.4498 
     25 C          18.3675  -26.1293  -43.9764 C.2       1 UNK         0.5027 
     26 O          18.1810  -25.3477  -44.9102 O.2       1 UNK        -0.4969 
     27 C          22.8279  -28.9608  -46.3721 C.2       3 UNK         0.5005 
     28 O          23.7017  -28.9421  -47.2408 O.2       3 UNK        -0.5279 
     29 N          23.0209  -29.4053  -45.1224 N.am      4 UNK        -0.4463 
     30 CA         24.3159  -29.7260  -44.5259 C.3       4 UNK         0.0283 
     31 CB         24.1866  -31.0118  -43.6906 C.3       4 UNK        -0.1875 
     32 C          24.7649  -28.5518  -43.6434 C.2       4 UNK         0.4949 
     33 O          23.9337  -27.7409  -43.2209 O.2       4 UNK        -0.5039 
     34 N          26.0709  -28.4959  -43.3554 N.am      5 UNK        -0.4663 
     35 CA         26.7377  -27.4459  -42.5768 C.3       5 UNK         0.0242 
     36 CB         28.2523  -27.5191  -42.8482 C.3       5 UNK        -0.1982 
     37 C          26.4072  -27.5071  -41.0710 C.2       5 UNK         0.5017 
     38 O          27.2769  -27.8239  -40.2583 O.2       5 UNK        -0.5012 
     39 N          25.1413  -27.2189  -40.7401 N.am      6 UNK        -0.4439 
     40 CA         24.5369  -27.1410  -39.4018 C.3       6 UNK         0.0297 
     41 CB         25.2070  -26.0378  -38.5561 C.3       6 UNK        -0.2006 
     42 C          24.4553  -28.4804  -38.6407 C.2       6 UNK         0.4892 
     43 O          24.0971  -28.4817  -37.4615 O.2       6 UNK        -0.5089 
     44 N          24.7322  -29.6034  -39.3170 N.am      7 UNK        -0.4243 
     45 CA         24.6713  -30.9652  -38.7779 C.3       7 UNK         0.0196 
     46 CB         25.5979  -31.8653  -39.6171 C.3       7 UNK        -0.2007 
     47 C          23.2214  -31.4845  -38.7349 C.2       7 UNK         0.5020 
     48 O          22.8993  -32.4678  -39.4040 O.2       7 UNK        -0.5147 
     49 N          22.3572  -30.7675  -38.0005 N.am      8 UNK        -0.4734 
     50 CA         20.8937  -30.8983  -37.8856 C.3       8 UNK         0.0238 
     51 CB         20.4762  -32.2793  -37.3415 C.3       8 UNK        -0.1912 
     52 C          20.1567  -30.5538  -39.1925 C.2       8 UNK         0.5038 
     53 O          19.3106  -29.6602  -39.1982 O.2       8 UNK        -0.5046 
     54 N          20.5394  -31.2319  -40.2770 N.am      9 UNK        -0.4200 
     55 CA         20.1584  -30.9466  -41.6650 C.3       9 UNK         0.0839 
     56 C          20.8931  -29.7199  -42.2734 C.2       9 UNK         0.5513 
     57 N          21.8091  -29.0567  -41.5793 N.am      9 UNK        -0.7519 
     58 O          20.6353  -29.3630  -43.4173 O.2       9 UNK        -0.4960 
     59 C59        20.3544  -32.2023  -42.5546 C.3       10 UNK        -0.0876 
     60 S60        19.1613  -33.5143  -42.1237 S.3       10 UNK        -0.2414 
     61 C61        18.2626  -33.7540  -43.6933 C.3       10 UNK         0.0169 
     62 H62        17.4121  -26.1515  -40.1773 H         1 UNK         0.0903 
     63 H63        18.4282  -25.2089  -41.2878 H         1 UNK         0.0903 
     64 H64        17.4769  -24.4014  -40.0619 H         1 UNK         0.0903 
     65 H65        15.3827  -25.7426  -43.3923 H         1 UNK         0.3096 
     66 H66        16.6349  -27.2716  -44.2393 H         1 UNK         0.1121 
     67 H67        18.1357  -27.7778  -41.6229 H         1 UNK         0.0849 
     68 H68        18.0706  -28.8009  -43.0227 H         1 UNK         0.0849 
     69 H69        14.4402  -30.3284  -42.8622 H         1 UNK         0.0865 
     70 H70        14.8001  -28.9126  -43.8100 H         1 UNK         0.0865 
     71 H71        16.4943  -32.0296  -42.5125 H         1 UNK         0.1346 
     72 H72        18.7158  -32.6279  -46.1336 H         1 UNK         0.1412 
     73 H73        16.1514  -29.2221  -45.7410 H         1 UNK         0.1426 
     74 H74        18.3378  -31.2353  -48.0417 H         1 UNK         0.0716 
     75 H75        16.8875  -30.2660  -48.0514 H         1 UNK         0.0716 
     76 H76        20.3253  -30.2316  -46.2016 H         1 UNK         0.0695 
     77 H77        20.8448  -30.1520  -47.8719 H         1 UNK         0.0695 
     78 H78        21.5182  -27.7501  -47.5565 H         1 UNK         0.0983 
     79 H79        20.4445  -28.1424  -44.8437 H         1 UNK         0.3095 
     80 H80        21.6002  -26.2452  -43.1712 H         1 UNK         0.0454 
     81 H81        20.2863  -23.8198  -44.4941 H         1 UNK         0.0851 
     82 H82        20.6083  -23.9776  -42.7670 H         1 UNK         0.0851 
     83 H83        21.9369  -23.9420  -43.9129 H         1 UNK         0.0851 
     84 H84        19.6287  -27.0689  -42.7018 H         1 UNK         0.2976 
     85 H85        22.2444  -29.3279  -44.4722 H         1 UNK         0.3116 
     86 H86        25.0622  -29.8868  -45.3066 H         1 UNK         0.0646 
     87 H87        23.5369  -30.8796  -42.8262 H         1 UNK         0.0847 
     88 H88        23.7865  -31.8324  -44.2862 H         1 UNK         0.0847 
     89 H89        25.1587  -31.3325  -43.3148 H         1 UNK         0.0847 
     90 H90        26.6708  -29.2247  -43.7156 H         1 UNK         0.3040 
     91 H91        26.3864  -26.4771  -42.9400 H         1 UNK         0.1015 
     92 H92        28.6741  -28.4761  -42.5382 H         1 UNK         0.0786 
     93 H93        28.7850  -26.7369  -42.3053 H         1 UNK         0.0786 
     94 H94        28.4733  -27.3818  -43.9069 H         1 UNK         0.0786 
     95 H95        24.5067  -27.0705  -41.5215 H         1 UNK         0.3172 
     96 H96        23.5022  -26.8379  -39.5682 H         1 UNK         0.0595 
     97 H97        24.6649  -25.8734  -37.6240 H         1 UNK         0.0839 
     98 H98        25.2266  -25.0864  -39.0875 H         1 UNK         0.0839 
     99 H99        26.2326  -26.2961  -38.2910 H         1 UNK         0.0839 
    100 H100       25.0065  -29.5120  -40.2837 H         1 UNK         0.2998 
    101 H101       25.0476  -30.9603  -37.7525 H         1 UNK         0.0822 
    102 H102       25.6089  -32.8846  -39.2285 H         1 UNK         0.0787 
    103 H103       25.2787  -31.9165  -40.6589 H         1 UNK         0.0787 
    104 H104       26.6258  -31.5021  -39.5989 H         1 UNK         0.0787 
    105 H105       22.7517  -29.9541  -37.5341 H         1 UNK         0.3055 
    106 H106       20.5851  -30.1532  -37.1499 H         1 UNK         0.1106 
    107 H107       20.9561  -32.4889  -36.3857 H         1 UNK         0.0828 
    108 H108       19.3985  -32.3206  -37.1784 H         1 UNK         0.0828 
    109 H109       20.7280  -33.0891  -38.0266 H         1 UNK         0.0828 
    110 H110       21.2826  -31.9138  -40.1481 H         1 UNK         0.2931 
    111 H111       19.0983  -30.6867  -41.6745 H         1 UNK         0.0412 
    112 H112       22.3187  -28.3078  -42.0279 H         1 UNK         0.3472 
    113 H113       22.0147  -29.3198  -40.6312 H         1 UNK         0.3472 
    114 H114       20.2508  -31.9577  -43.6129 H         1 UNK         0.0970 
    115 H115       21.3657  -32.5978  -42.4436 H         1 UNK         0.0970 
    116 H116       18.9418  -34.2161  -44.4113 H         1 UNK         0.0612 
    117 H117       17.4564  -34.4700  -43.5292 H         1 UNK         0.0612 
@<TRIPOS>BOND
     1    1    2 1    
     2    1   62 1    
     3    1   63 1    
     4    1   64 1    
     5    2    3 2    
     6    2    4 am   BACKBONE|DICT|INTERRES
     7    4    5 1    
     8    4   65 1    
     9    5    6 1    
    10    5   25 1    
    11    5   66 1    
    12    6    7 1    
    13    6   67 1    
    14    6   68 1    
    15    7    8 1    
    16    8    9 1    
    17    8   69 1    
    18    8   70 1    
    19    9   10 ar   
    20    9   14 ar   
    21   10   11 ar   
    22   10   71 1    
    23   11   12 ar   
    24   11   61 1    
    25   12   13 ar   
    26   12   72 1    
    27   13   14 ar   
    28   13   15 1    
    29   14   73 1    
    30   15   16 1    
    31   15   74 1    
    32   15   75 1    
    33   16   17 1    
    34   17   18 1    
    35   17   76 1    
    36   17   77 1    
    37   18   19 1    
    38   18   27 1    
    39   18   78 1    
    40   19   20 am   BACKBONE|DICT|INTERRES
    41   19   79 1    
    42   20   21 2    
    43   20   22 1    
    44   22   23 1    
    45   22   24 1    
    46   22   80 1    
    47   23   81 1    
    48   23   82 1    
    49   23   83 1    
    50   24   25 am   BACKBONE|DICT|INTERRES
    51   24   84 1    
    52   25   26 2    
    53   27   28 2    
    54   27   29 am   BACKBONE|DICT|INTERRES
    55   29   30 1    
    56   29   85 1    
    57   30   31 1    
    58   30   32 1    
    59   30   86 1    
    60   31   87 1    
    61   31   88 1    
    62   31   89 1    
    63   32   33 2    
    64   32   34 am   BACKBONE|DICT|INTERRES
    65   34   35 1    
    66   34   90 1    
    67   35   36 1    
    68   35   37 1    
    69   35   91 1    
    70   36   92 1    
    71   36   93 1    
    72   36   94 1    
    73   37   38 2    
    74   37   39 am   BACKBONE|DICT|INTERRES
    75   39   40 1    
    76   39   95 1    
    77   40   41 1    
    78   40   42 1    
    79   40   96 1    
    80   41   97 1    
    81   41   98 1    
    82   41   99 1    
    83   42   43 2    
    84   42   44 am   BACKBONE|DICT|INTERRES
    85   44   45 1    
    86   44  100 1    
    87   45   46 1    
    88   45   47 1    
    89   45  101 1    
    90   46  102 1    
    91   46  103 1    
    92   46  104 1    
    93   47   48 2    
    94   47   49 am   BACKBONE|DICT|INTERRES
    95   49   50 1    
    96   49  105 1    
    97   50   51 1    
    98   50   52 1    
    99   50  106 1    
   100   51  107 1    
   101   51  108 1    
   102   51  109 1    
   103   52   53 2    
   104   52   54 am   BACKBONE|DICT|INTERRES
   105   54   55 1    
   106   54  110 1    
   107   55   56 1    
   108   55   59 1    
   109   55  111 1    
   110   56   57 am   BACKBONE|DICT|INTERRES
   111   56   58 2    
   112   57  112 1    
   113   57  113 1    
   114   59   60 1    
   115   59  114 1    
   116   59  115 1    
   117   60   61 1    
   118   61  116 1    
   119   61  117 1    
@<TRIPOS>SUBSTRUCTURE
     1 UNK         1 GROUP             0       ****    0 ROOT    
