@<TRIPOS>MOLECULE
3R8
117   119    1
SMALL
USER_CHARGES


@<TRIPOS>ATOM
      1 CA         11.1508  -25.8365  -42.1754 C.3       0 UNK        -0.2013 
      2 C          12.5361  -25.5513  -42.7364 C.2       0 UNK         0.4866 
      3 O          13.2673  -24.7342  -42.1757 O.2       0 UNK        -0.5176 
      4 N          12.8997  -26.2113  -43.8432 N.am      1 UNK        -0.4884 
      5 CA         14.2192  -26.1147  -44.4745 C.3       1 UNK         0.0853 
      6 C6         14.1809  -26.6582  -45.9227 C.3       10 UNK        -0.0849 
      7 S7         15.5742  -26.0583  -46.9387 S.3       10 UNK        -0.2776 
      8 C8         16.2706  -27.6092  -47.5943 C.3       10 UNK         0.0316 
      9 C9         17.4929  -28.0762  -46.8149 C.ar      10 UNK        -0.0863 
     10 C10        17.3818  -29.0517  -45.8173 C.ar      10 UNK        -0.1009 
     11 C11        18.5251  -29.5393  -45.1723 C.ar      10 UNK        -0.0712 
     12 C12        19.7797  -29.0456  -45.5392 C.ar      10 UNK        -0.0894 
     13 C13        19.9037  -28.0434  -46.5058 C.ar      10 UNK        -0.0745 
     14 C14        18.7537  -27.5668  -47.1409 C.ar      10 UNK        -0.0972 
     15 C15        21.2717  -27.5082  -46.9184 C.3       10 UNK         0.0209 
     16 S16        22.4434  -27.3071  -45.5347 S.3       10 UNK        -0.2568 
     17 C17        21.7783  -25.8450  -44.6571 C.3       10 UNK        -0.0983 
     18 CA         21.3407  -26.0653  -43.1766 C.3       3 UNK         0.0876 
     19 N          20.0183  -26.6656  -43.0426 N.am      3 UNK        -0.4424 
     20 C          18.8581  -26.0241  -43.1917 C.2       2 UNK         0.4918 
     21 O          18.7546  -24.8567  -43.5784 O.2       2 UNK        -0.4875 
     22 CA         17.6034  -26.7998  -42.7807 C.3       2 UNK         0.0481 
     23 CB         17.4121  -26.7671  -41.2521 C.3       2 UNK        -0.1831 
     24 N          16.4447  -26.2324  -43.4571 N.am      2 UNK        -0.4498 
     25 C          15.2736  -26.8529  -43.6276 C.2       1 UNK         0.5027 
     26 O          15.0112  -27.9711  -43.1752 O.2       1 UNK        -0.4969 
     27 C          22.3254  -26.8965  -42.3321 C.2       3 UNK         0.5005 
     28 O          21.9545  -27.9536  -41.8076 O.2       3 UNK        -0.5279 
     29 N          23.5775  -26.4314  -42.2384 N.am      4 UNK        -0.4463 
     30 CA         24.6874  -27.1425  -41.5993 C.3       4 UNK         0.0283 
     31 CB         25.7681  -26.1272  -41.1847 C.3       4 UNK        -0.1875 
     32 C          25.2377  -28.2534  -42.5160 C.2       4 UNK         0.4949 
     33 O          26.3932  -28.1928  -42.9391 O.2       4 UNK        -0.5039 
     34 N          24.3829  -29.2335  -42.8342 N.am      5 UNK        -0.4663 
     35 CA         24.6794  -30.4068  -43.6568 C.3       5 UNK         0.0242 
     36 CB         23.3548  -31.1048  -44.0135 C.3       5 UNK        -0.1982 
     37 C          25.6425  -31.3479  -42.9165 C.2       5 UNK         0.5017 
     38 O          25.1929  -32.1726  -42.1202 O.2       5 UNK        -0.5012 
     39 N          26.9523  -31.1382  -43.1132 N.am      6 UNK        -0.4439 
     40 CA         28.0992  -31.7311  -42.4035 C.3       6 UNK         0.0297 
     41 CB         28.1246  -33.2682  -42.5168 C.3       6 UNK        -0.2006 
     42 C          28.2167  -31.2701  -40.9368 C.2       6 UNK         0.4892 
     43 O          29.3119  -30.9126  -40.5020 O.2       6 UNK        -0.5089 
     44 N          27.0888  -31.2504  -40.2223 N.am      7 UNK        -0.4243 
     45 CA         26.9127  -30.6640  -38.8988 C.3       7 UNK         0.0196 
     46 CB         27.1217  -31.7262  -37.8051 C.3       7 UNK        -0.2007 
     47 C          25.5218  -30.0257  -38.8187 C.2       7 UNK         0.5020 
     48 O          25.4167  -28.8425  -38.4988 O.2       7 UNK        -0.5147 
     49 N          24.4868  -30.8078  -39.1473 N.am      8 UNK        -0.4734 
     50 CA         23.0775  -30.4229  -39.1900 C.3       8 UNK         0.0238 
     51 CB         22.5423  -30.1581  -37.7672 C.3       8 UNK        -0.1912 
     52 C          22.2916  -31.5588  -39.8592 C.2       8 UNK         0.5038 
     53 O          22.8119  -32.6720  -39.9734 O.2       8 UNK        -0.5046 
     54 N          21.0480  -31.2667  -40.2583 N.am      9 UNK        -0.4200 
     55 CA         20.1171  -32.2128  -40.9025 C.3       9 UNK         0.0839 
     56 C          19.6994  -33.4370  -40.0344 C.2       9 UNK         0.5513 
     57 N          19.8512  -33.4019  -38.7158 N.am      9 UNK        -0.7519 
     58 O          19.2232  -34.4338  -40.5712 O.2       9 UNK        -0.4960 
     59 C59        18.8499  -31.4956  -41.4385 C.3       10 UNK        -0.0876 
     60 S60        19.2354  -30.1013  -42.5460 S.3       10 UNK        -0.2414 
     61 C61        18.4166  -30.6107  -44.0933 C.3       10 UNK         0.0169 
     62 H62        10.6092  -26.5670  -42.7761 H         1 UNK         0.0903 
     63 H63        11.2302  -26.2246  -41.1603 H         1 UNK         0.0903 
     64 H64        10.5623  -24.9199  -42.1449 H         1 UNK         0.0903 
     65 H65        12.2721  -26.8967  -44.2395 H         1 UNK         0.3096 
     66 H66        14.4808  -25.0541  -44.5115 H         1 UNK         0.1121 
     67 H67        14.1297  -27.7487  -45.9292 H         1 UNK         0.0849 
     68 H68        13.2705  -26.3190  -46.4201 H         1 UNK         0.0849 
     69 H69        15.5125  -28.3928  -47.6274 H         1 UNK         0.0865 
     70 H70        16.5545  -27.4408  -48.6344 H         1 UNK         0.0865 
     71 H71        16.4077  -29.4412  -45.5541 H         1 UNK         0.1346 
     72 H72        20.6619  -29.4358  -45.0532 H         1 UNK         0.1412 
     73 H73        18.8400  -26.8123  -47.9113 H         1 UNK         0.1426 
     74 H74        21.1740  -26.5525  -47.4358 H         1 UNK         0.0716 
     75 H75        21.7059  -28.2039  -47.6372 H         1 UNK         0.0716 
     76 H76        22.5589  -25.0836  -44.6867 H         1 UNK         0.0695 
     77 H77        20.9535  -25.4213  -45.2317 H         1 UNK         0.0695 
     78 H78        21.2923  -25.0860  -42.6948 H         1 UNK         0.0983 
     79 H79        20.0385  -27.6165  -42.6900 H         1 UNK         0.3095 
     80 H80        17.7129  -27.8300  -43.1117 H         1 UNK         0.0454 
     81 H81        18.2821  -27.1794  -40.7393 H         1 UNK         0.0851 
     82 H82        17.2675  -25.7495  -40.8877 H         1 UNK         0.0851 
     83 H83        16.5509  -27.3592  -40.9434 H         1 UNK         0.0851 
     84 H84        16.6167  -25.3331  -43.8902 H         1 UNK         0.2976 
     85 H85        23.8167  -25.5826  -42.7310 H         1 UNK         0.3116 
     86 H86        24.3221  -27.6212  -40.6890 H         1 UNK         0.0646 
     87 H87        26.5930  -26.6271  -40.6749 H         1 UNK         0.0847 
     88 H88        25.3696  -25.3827  -40.4954 H         1 UNK         0.0847 
     89 H89        26.1852  -25.6020  -42.0448 H         1 UNK         0.0847 
     90 H90        23.4388  -29.1570  -42.4693 H         1 UNK         0.3040 
     91 H91        25.1516  -30.0769  -44.5848 H         1 UNK         0.1015 
     92 H92        22.7906  -31.3896  -43.1240 H         1 UNK         0.0786 
     93 H93        23.5343  -32.0122  -44.5915 H         1 UNK         0.0786 
     94 H94        22.7210  -30.4568  -44.6177 H         1 UNK         0.0786 
     95 H95        27.1938  -30.3578  -43.7115 H         1 UNK         0.3172 
     96 H96        28.9838  -31.3547  -42.9198 H         1 UNK         0.0595 
     97 H97        29.0437  -33.6711  -42.0894 H         1 UNK         0.0839 
     98 H98        27.2940  -33.7357  -41.9875 H         1 UNK         0.0839 
     99 H99        28.0830  -33.5900  -43.5573 H         1 UNK         0.0839 
    100 H100       26.2452  -31.5570  -40.7015 H         1 UNK         0.2998 
    101 H101       27.6462  -29.8670  -38.7564 H         1 UNK         0.0822 
    102 H102       26.9574  -31.3020  -36.8137 H         1 UNK         0.0787 
    103 H103       26.4387  -32.5687  -37.9195 H         1 UNK         0.0787 
    104 H104       28.1391  -32.1173  -37.8263 H         1 UNK         0.0787 
    105 H105       24.6391  -31.7722  -39.4230 H         1 UNK         0.3055 
    106 H106       22.9755  -29.5230  -39.7997 H         1 UNK         0.1106 
    107 H107       23.0595  -29.3261  -37.2899 H         1 UNK         0.0828 
    108 H108       21.4826  -29.9010  -37.7836 H         1 UNK         0.0828 
    109 H109       22.6571  -31.0333  -37.1265 H         1 UNK         0.0828 
    110 H110       20.7036  -30.3244  -40.1467 H         1 UNK         0.2931 
    111 H111       20.6476  -32.6229  -41.7643 H         1 UNK         0.0412 
    112 H112       20.2433  -32.5901  -38.2672 H         1 UNK         0.3472 
    113 H113       19.5781  -34.2012  -38.1655 H         1 UNK         0.3472 
    114 H114       18.2524  -31.1101  -40.6103 H         1 UNK         0.0970 
    115 H115       18.2078  -32.2035  -41.9665 H         1 UNK         0.0970 
    116 H116       18.8717  -31.5332  -44.4560 H         1 UNK         0.0612 
    117 H117       17.3696  -30.8331  -43.8810 H         1 UNK         0.0612 
@<TRIPOS>BOND
     1    1    2 1    
     2    1   62 1    
     3    1   63 1    
     4    1   64 1    
     5    2    3 2    
     6    2    4 am   BACKBONE|DICT|INTERRES
     7    4    5 1    
     8    4   65 1    
     9    5    6 1    
    10    5   25 1    
    11    5   66 1    
    12    6    7 1    
    13    6   67 1    
    14    6   68 1    
    15    7    8 1    
    16    8    9 1    
    17    8   69 1    
    18    8   70 1    
    19    9   10 ar   
    20    9   14 ar   
    21   10   11 ar   
    22   10   71 1    
    23   11   12 ar   
    24   11   61 1    
    25   12   13 ar   
    26   12   72 1    
    27   13   14 ar   
    28   13   15 1    
    29   14   73 1    
    30   15   16 1    
    31   15   74 1    
    32   15   75 1    
    33   16   17 1    
    34   17   18 1    
    35   17   76 1    
    36   17   77 1    
    37   18   19 1    
    38   18   27 1    
    39   18   78 1    
    40   19   20 am   BACKBONE|DICT|INTERRES
    41   19   79 1    
    42   20   21 2    
    43   20   22 1    
    44   22   23 1    
    45   22   24 1    
    46   22   80 1    
    47   23   81 1    
    48   23   82 1    
    49   23   83 1    
    50   24   25 am   BACKBONE|DICT|INTERRES
    51   24   84 1    
    52   25   26 2    
    53   27   28 2    
    54   27   29 am   BACKBONE|DICT|INTERRES
    55   29   30 1    
    56   29   85 1    
    57   30   31 1    
    58   30   32 1    
    59   30   86 1    
    60   31   87 1    
    61   31   88 1    
    62   31   89 1    
    63   32   33 2    
    64   32   34 am   BACKBONE|DICT|INTERRES
    65   34   35 1    
    66   34   90 1    
    67   35   36 1    
    68   35   37 1    
    69   35   91 1    
    70   36   92 1    
    71   36   93 1    
    72   36   94 1    
    73   37   38 2    
    74   37   39 am   BACKBONE|DICT|INTERRES
    75   39   40 1    
    76   39   95 1    
    77   40   41 1    
    78   40   42 1    
    79   40   96 1    
    80   41   97 1    
    81   41   98 1    
    82   41   99 1    
    83   42   43 2    
    84   42   44 am   BACKBONE|DICT|INTERRES
    85   44   45 1    
    86   44  100 1    
    87   45   46 1    
    88   45   47 1    
    89   45  101 1    
    90   46  102 1    
    91   46  103 1    
    92   46  104 1    
    93   47   48 2    
    94   47   49 am   BACKBONE|DICT|INTERRES
    95   49   50 1    
    96   49  105 1    
    97   50   51 1    
    98   50   52 1    
    99   50  106 1    
   100   51  107 1    
   101   51  108 1    
   102   51  109 1    
   103   52   53 2    
   104   52   54 am   BACKBONE|DICT|INTERRES
   105   54   55 1    
   106   54  110 1    
   107   55   56 1    
   108   55   59 1    
   109   55  111 1    
   110   56   57 am   BACKBONE|DICT|INTERRES
   111   56   58 2    
   112   57  112 1    
   113   57  113 1    
   114   59   60 1    
   115   59  114 1    
   116   59  115 1    
   117   60   61 1    
   118   61  116 1    
   119   61  117 1    
@<TRIPOS>SUBSTRUCTURE
     1 UNK         1 GROUP             0       ****    0 ROOT    
