@<TRIPOS>MOLECULE
3R8
117   119    1
SMALL
USER_CHARGES


@<TRIPOS>ATOM
      1 CA         13.7636  -26.3365  -39.9706 C.3       0 UNK        -0.2013 
      2 C          14.8970  -25.9446  -40.9068 C.2       0 UNK         0.4866 
      3 O          15.6692  -25.0394  -40.5886 O.2       0 UNK        -0.5176 
      4 N          14.9944  -26.6109  -42.0635 N.am      1 UNK        -0.4884 
      5 CA         16.0638  -26.4344  -43.0514 C.3       1 UNK         0.0853 
      6 C6         15.6639  -26.9596  -44.4572 C.3       10 UNK        -0.0849 
      7 S7         14.6846  -28.5080  -44.5218 S.3       10 UNK        -0.2776 
      8 C8         15.8199  -29.8018  -43.9021 C.3       10 UNK         0.0316 
      9 C9         17.1561  -29.9427  -44.6332 C.ar      10 UNK        -0.0863 
     10 C10        18.2154  -30.5694  -43.9697 C.ar      10 UNK        -0.1009 
     11 C11        19.4452  -30.7694  -44.6050 C.ar      10 UNK        -0.0712 
     12 C12        19.6250  -30.3063  -45.9100 C.ar      10 UNK        -0.0894 
     13 C13        18.5896  -29.6412  -46.5731 C.ar      10 UNK        -0.0745 
     14 C14        17.3518  -29.4924  -45.9440 C.ar      10 UNK        -0.0972 
     15 C15        18.8004  -29.0628  -47.9630 C.3       10 UNK         0.0209 
     16 S16        19.3934  -27.3404  -47.8719 S.3       10 UNK        -0.2568 
     17 C17        21.1585  -27.5922  -47.4862 C.3       10 UNK        -0.0983 
     18 CA         21.6503  -26.9094  -46.1816 C.3       3 UNK         0.0876 
     19 N          20.7824  -27.1507  -45.0158 N.am      3 UNK        -0.4424 
     20 C          20.8446  -26.4216  -43.8914 C.2       2 UNK         0.4918 
     21 O          21.5987  -25.4576  -43.7516 O.2       2 UNK        -0.4875 
     22 CA         19.8796  -26.8001  -42.7581 C.3       2 UNK         0.0481 
     23 CB         20.1853  -26.0433  -41.4456 C.3       2 UNK        -0.1831 
     24 N          18.5077  -26.5176  -43.1694 N.am      2 UNK        -0.4498 
     25 C          17.4159  -27.0023  -42.5638 C.2       1 UNK         0.5027 
     26 O          17.4524  -27.8422  -41.6597 O.2       1 UNK        -0.4969 
     27 C          23.1153  -27.3298  -45.9257 C.2       3 UNK         0.5005 
     28 O          24.0266  -26.7461  -46.5157 O.2       3 UNK        -0.5279 
     29 N          23.3084  -28.3679  -45.1001 N.am      4 UNK        -0.4463 
     30 CA         24.6024  -28.9887  -44.8197 C.3       4 UNK         0.0283 
     31 CB         24.3570  -30.4032  -44.2651 C.3       4 UNK        -0.1875 
     32 C          25.4419  -28.1734  -43.8258 C.2       4 UNK         0.4949 
     33 O          24.8931  -27.4395  -43.0024 O.2       4 UNK        -0.5039 
     34 N          26.7636  -28.3966  -43.8563 N.am      5 UNK        -0.4663 
     35 CA         27.7280  -27.8578  -42.8854 C.3       5 UNK         0.0242 
     36 CB         29.1560  -28.1439  -43.3772 C.3       5 UNK        -0.1982 
     37 C          27.5281  -28.4046  -41.4574 C.2       5 UNK         0.5017 
     38 O          27.9187  -27.7462  -40.4938 O.2       5 UNK        -0.5012 
     39 N          26.8851  -29.5763  -41.3521 N.am      6 UNK        -0.4439 
     40 CA         26.4107  -30.1942  -40.1113 C.3       6 UNK         0.0297 
     41 CB         26.1840  -31.6945  -40.3704 C.3       6 UNK        -0.2006 
     42 C          25.1302  -29.5432  -39.5423 C.2       6 UNK         0.4892 
     43 O          24.6499  -29.9998  -38.5044 O.2       6 UNK        -0.5089 
     44 N          24.5967  -28.5161  -40.2223 N.am      7 UNK        -0.4243 
     45 CA         23.3418  -27.8144  -39.9533 C.3       7 UNK         0.0196 
     46 CB         23.3344  -27.1470  -38.5577 C.3       7 UNK        -0.2007 
     47 C          22.1367  -28.7227  -40.2511 C.2       7 UNK         0.5020 
     48 O          22.0988  -29.3257  -41.3248 O.2       7 UNK        -0.5147 
     49 N          21.1568  -28.7741  -39.3394 N.am      8 UNK        -0.4734 
     50 CA         19.9515  -29.5963  -39.4522 C.3       8 UNK         0.0238 
     51 CB         18.9271  -29.1447  -38.3970 C.3       8 UNK        -0.1912 
     52 C          20.3004  -31.0884  -39.3135 C.2       8 UNK         0.5038 
     53 O          20.4831  -31.5753  -38.1963 O.2       8 UNK        -0.5046 
     54 N          20.4234  -31.7638  -40.4597 N.am      9 UNK        -0.4200 
     55 CA         20.8246  -33.1706  -40.5994 C.3       9 UNK         0.0839 
     56 C          19.7686  -34.2218  -40.1445 C.2       9 UNK         0.5513 
     57 N          18.5338  -33.8409  -39.8393 N.am      9 UNK        -0.7519 
     58 O          20.0834  -35.4058  -40.0554 O.2       9 UNK        -0.4960 
     59 C59        21.3662  -33.4505  -42.0289 C.3       10 UNK        -0.0876 
     60 S60        20.1390  -33.1450  -43.3500 S.3       10 UNK        -0.2414 
     61 C61        20.5855  -31.4580  -43.8703 C.3       10 UNK         0.0169 
     62 H62        13.1186  -25.4787  -39.7818 H         1 UNK         0.0903 
     63 H63        13.1508  -27.1370  -40.3847 H         1 UNK         0.0903 
     64 H64        14.1666  -26.6770  -39.0171 H         1 UNK         0.0903 
     65 H65        14.3449  -27.3564  -42.2723 H         1 UNK         0.3096 
     66 H66        16.2199  -25.3571  -43.1493 H         1 UNK         0.1121 
     67 H67        16.5296  -27.0383  -45.1156 H         1 UNK         0.0849 
     68 H68        15.0378  -26.2010  -44.9297 H         1 UNK         0.0849 
     69 H69        15.3017  -30.7592  -43.9686 H         1 UNK         0.0865 
     70 H70        15.9896  -29.6329  -42.8388 H         1 UNK         0.0865 
     71 H71        18.0771  -30.9223  -42.9567 H         1 UNK         0.1346 
     72 H72        20.5750  -30.4553  -46.4031 H         1 UNK         0.1412 
     73 H73        16.5483  -29.0080  -46.4805 H         1 UNK         0.1426 
     74 H74        17.8611  -29.0803  -48.5180 H         1 UNK         0.0716 
     75 H75        19.4995  -29.6739  -48.5359 H         1 UNK         0.0716 
     76 H76        21.7253  -27.2031  -48.3344 H         1 UNK         0.0695 
     77 H77        21.3755  -28.6600  -47.4693 H         1 UNK         0.0695 
     78 H78        21.6568  -25.8320  -46.3631 H         1 UNK         0.0983 
     79 H79        20.0998  -27.8918  -45.0998 H         1 UNK         0.3095 
     80 H80        19.9929  -27.8722  -42.5836 H         1 UNK         0.0454 
     81 H81        19.9288  -24.9863  -41.5238 H         1 UNK         0.0851 
     82 H82        21.2422  -26.0940  -41.1916 H         1 UNK         0.0851 
     83 H83        19.6307  -26.4601  -40.6050 H         1 UNK         0.0851 
     84 H84        18.4072  -25.8525  -43.9249 H         1 UNK         0.2976 
     85 H85        22.5124  -28.7372  -44.6025 H         1 UNK         0.3116 
     86 H86        25.1575  -29.0725  -45.7568 H         1 UNK         0.0646 
     87 H87        23.8035  -31.0154  -44.9769 H         1 UNK         0.0847 
     88 H88        23.7947  -30.3803  -43.3300 H         1 UNK         0.0847 
     89 H89        25.2960  -30.9216  -44.0684 H         1 UNK         0.0847 
     90 H90        27.1364  -29.0106  -44.5676 H         1 UNK         0.3040 
     91 H91        27.5890  -26.7751  -42.8386 H         1 UNK         0.1015 
     92 H92        29.8955  -27.7307  -42.6895 H         1 UNK         0.0786 
     93 H93        29.3380  -27.6930  -44.3530 H         1 UNK         0.0786 
     94 H94        29.3497  -29.2142  -43.4587 H         1 UNK         0.0786 
     95 H95        26.6258  -30.0388  -42.2105 H         1 UNK         0.3172 
     96 H96        27.1905  -30.0909  -39.3540 H         1 UNK         0.0595 
     97 H97        25.3936  -31.8630  -41.1031 H         1 UNK         0.0839 
     98 H98        25.8923  -32.2110  -39.4548 H         1 UNK         0.0839 
     99 H99        27.0909  -32.1779  -40.7342 H         1 UNK         0.0839 
    100 H100       25.0314  -28.2508  -41.0989 H         1 UNK         0.2998 
    101 H101       23.3025  -27.0146  -40.6934 H         1 UNK         0.0822 
    102 H102       24.2230  -26.5316  -38.4163 H         1 UNK         0.0787 
    103 H103       22.4728  -26.4884  -38.4410 H         1 UNK         0.0787 
    104 H104       23.3077  -27.8757  -37.7470 H         1 UNK         0.0787 
    105 H105       21.2832  -28.2734  -38.4719 H         1 UNK         0.3055 
    106 H106       19.5078  -29.4258  -40.4365 H         1 UNK         0.1106 
    107 H107       19.3185  -29.2334  -37.3827 H         1 UNK         0.0828 
    108 H108       18.0213  -29.7499  -38.4517 H         1 UNK         0.0828 
    109 H109       18.6295  -28.1077  -38.5548 H         1 UNK         0.0828 
    110 H110       20.2884  -31.2672  -41.3267 H         1 UNK         0.2931 
    111 H111       21.6680  -33.3118  -39.9205 H         1 UNK         0.0412 
    112 H112       17.8629  -34.5317  -39.5415 H         1 UNK         0.3472 
    113 H113       18.2668  -32.8726  -39.9059 H         1 UNK         0.3472 
    114 H114       22.2522  -32.8405  -42.2137 H         1 UNK         0.0970 
    115 H115       21.7086  -34.4839  -42.1105 H         1 UNK         0.0970 
    116 H116       21.4769  -31.5140  -44.4955 H         1 UNK         0.0612 
    117 H117       20.8518  -30.8518  -43.0070 H         1 UNK         0.0612 
@<TRIPOS>BOND
     1    1    2 1    
     2    1   62 1    
     3    1   63 1    
     4    1   64 1    
     5    2    3 2    
     6    2    4 am   BACKBONE|DICT|INTERRES
     7    4    5 1    
     8    4   65 1    
     9    5    6 1    
    10    5   25 1    
    11    5   66 1    
    12    6    7 1    
    13    6   67 1    
    14    6   68 1    
    15    7    8 1    
    16    8    9 1    
    17    8   69 1    
    18    8   70 1    
    19    9   10 ar   
    20    9   14 ar   
    21   10   11 ar   
    22   10   71 1    
    23   11   12 ar   
    24   11   61 1    
    25   12   13 ar   
    26   12   72 1    
    27   13   14 ar   
    28   13   15 1    
    29   14   73 1    
    30   15   16 1    
    31   15   74 1    
    32   15   75 1    
    33   16   17 1    
    34   17   18 1    
    35   17   76 1    
    36   17   77 1    
    37   18   19 1    
    38   18   27 1    
    39   18   78 1    
    40   19   20 am   BACKBONE|DICT|INTERRES
    41   19   79 1    
    42   20   21 2    
    43   20   22 1    
    44   22   23 1    
    45   22   24 1    
    46   22   80 1    
    47   23   81 1    
    48   23   82 1    
    49   23   83 1    
    50   24   25 am   BACKBONE|DICT|INTERRES
    51   24   84 1    
    52   25   26 2    
    53   27   28 2    
    54   27   29 am   BACKBONE|DICT|INTERRES
    55   29   30 1    
    56   29   85 1    
    57   30   31 1    
    58   30   32 1    
    59   30   86 1    
    60   31   87 1    
    61   31   88 1    
    62   31   89 1    
    63   32   33 2    
    64   32   34 am   BACKBONE|DICT|INTERRES
    65   34   35 1    
    66   34   90 1    
    67   35   36 1    
    68   35   37 1    
    69   35   91 1    
    70   36   92 1    
    71   36   93 1    
    72   36   94 1    
    73   37   38 2    
    74   37   39 am   BACKBONE|DICT|INTERRES
    75   39   40 1    
    76   39   95 1    
    77   40   41 1    
    78   40   42 1    
    79   40   96 1    
    80   41   97 1    
    81   41   98 1    
    82   41   99 1    
    83   42   43 2    
    84   42   44 am   BACKBONE|DICT|INTERRES
    85   44   45 1    
    86   44  100 1    
    87   45   46 1    
    88   45   47 1    
    89   45  101 1    
    90   46  102 1    
    91   46  103 1    
    92   46  104 1    
    93   47   48 2    
    94   47   49 am   BACKBONE|DICT|INTERRES
    95   49   50 1    
    96   49  105 1    
    97   50   51 1    
    98   50   52 1    
    99   50  106 1    
   100   51  107 1    
   101   51  108 1    
   102   51  109 1    
   103   52   53 2    
   104   52   54 am   BACKBONE|DICT|INTERRES
   105   54   55 1    
   106   54  110 1    
   107   55   56 1    
   108   55   59 1    
   109   55  111 1    
   110   56   57 am   BACKBONE|DICT|INTERRES
   111   56   58 2    
   112   57  112 1    
   113   57  113 1    
   114   59   60 1    
   115   59  114 1    
   116   59  115 1    
   117   60   61 1    
   118   61  116 1    
   119   61  117 1    
@<TRIPOS>SUBSTRUCTURE
     1 UNK         1 GROUP             0       ****    0 ROOT    
