@<TRIPOS>MOLECULE
3R8
117   119    1
SMALL
USER_CHARGES


@<TRIPOS>ATOM
      1 CA         16.2721  -22.8379  -44.4952 C.3       0 UNK        -0.2013 
      2 C          16.5445  -24.3334  -44.4424 C.2       0 UNK         0.4866 
      3 O          17.4914  -24.8067  -45.0718 O.2       0 UNK        -0.5176 
      4 N          15.7292  -25.0833  -43.6894 N.am      1 UNK        -0.4884 
      5 CA         15.8233  -26.5383  -43.5125 C.3       1 UNK         0.0853 
      6 C6         14.4550  -27.1497  -43.1000 C.3       10 UNK        -0.0849 
      7 S7         13.4000  -27.4212  -44.5645 S.3       10 UNK        -0.2776 
      8 C8         13.6882  -29.1947  -44.9023 C.3       10 UNK         0.0316 
      9 C9         15.1703  -29.5166  -45.0554 C.ar      10 UNK        -0.0863 
     10 C10        15.8749  -30.1048  -44.0002 C.ar      10 UNK        -0.1009 
     11 C11        17.2492  -30.3334  -44.1036 C.ar      10 UNK        -0.0712 
     12 C12        17.9132  -30.0116  -45.2896 C.ar      10 UNK        -0.0894 
     13 C13        17.2198  -29.4303  -46.3557 C.ar      10 UNK        -0.0745 
     14 C14        15.8475  -29.1872  -46.2333 C.ar      10 UNK        -0.0972 
     15 C15        17.9475  -29.0567  -47.6385 C.3       10 UNK         0.0209 
     16 S16        18.9417  -27.5429  -47.4355 S.3       10 UNK        -0.2568 
     17 C17        20.5728  -28.2213  -46.9754 C.3       10 UNK        -0.0983 
     18 CA         21.2137  -27.5193  -45.7520 C.3       3 UNK         0.0876 
     19 N          20.3438  -27.5509  -44.5636 N.am      3 UNK        -0.4424 
     20 C          20.6036  -26.9688  -43.3815 C.2       2 UNK         0.4918 
     21 O          21.6770  -26.4317  -43.1072 O.2       2 UNK        -0.4875 
     22 CA         19.4683  -26.9758  -42.3455 C.3       2 UNK         0.0481 
     23 CB         19.7305  -26.0254  -41.1590 C.3       2 UNK        -0.1831 
     24 N          18.2092  -26.6394  -43.0045 N.am      2 UNK        -0.4498 
     25 C          16.9801  -26.9269  -42.5649 C.2       1 UNK         0.5027 
     26 O          16.7509  -27.4663  -41.4807 O.2       1 UNK        -0.4969 
     27 C          22.6375  -28.0769  -45.5265 C.2       3 UNK         0.5005 
     28 O          23.5631  -27.6545  -46.2215 O.2       3 UNK        -0.5279 
     29 N          22.7940  -29.0038  -44.5688 N.am      4 UNK        -0.4463 
     30 CA         24.0829  -29.5746  -44.1643 C.3       4 UNK         0.0283 
     31 CB         23.8397  -30.8065  -43.2784 C.3       4 UNK        -0.1875 
     32 C          25.0082  -28.5693  -43.4516 C.2       4 UNK         0.4949 
     33 O          26.2251  -28.7527  -43.4947 O.2       4 UNK        -0.5039 
     34 N          24.4245  -27.5365  -42.8217 N.am      5 UNK        -0.4663 
     35 CA         25.0350  -26.3949  -42.1231 C.3       5 UNK         0.0242 
     36 CB         25.8263  -25.5083  -43.1043 C.3       5 UNK        -0.1982 
     37 C          25.8845  -26.7498  -40.8890 C.2       5 UNK         0.5017 
     38 O          25.6343  -26.2172  -39.8077 O.2       5 UNK        -0.5012 
     39 N          26.8749  -27.6284  -41.0716 N.am      6 UNK        -0.4439 
     40 CA         27.8213  -28.0822  -40.0507 C.3       6 UNK         0.0297 
     41 CB         29.1180  -28.5251  -40.7492 C.3       6 UNK        -0.2006 
     42 C          27.2724  -29.2167  -39.1660 C.2       6 UNK         0.4892 
     43 O          27.9214  -29.5688  -38.1797 O.2       6 UNK        -0.5089 
     44 N          26.1136  -29.7787  -39.5269 N.am      7 UNK        -0.4243 
     45 CA         25.4404  -30.8633  -38.8221 C.3       7 UNK         0.0196 
     46 CB         25.8692  -32.2099  -39.4322 C.3       7 UNK        -0.2007 
     47 C          23.9265  -30.6690  -38.9364 C.2       7 UNK         0.5020 
     48 O          23.4593  -29.9721  -39.8415 O.2       7 UNK        -0.5147 
     49 N          23.1800  -31.3236  -38.0402 N.am      8 UNK        -0.4734 
     50 CA         21.7157  -31.3343  -38.0086 C.3       8 UNK         0.0238 
     51 CB         21.2498  -31.7171  -36.5911 C.3       8 UNK        -0.1912 
     52 C          21.1473  -32.2735  -39.0886 C.2       8 UNK         0.5038 
     53 O          20.6730  -33.3654  -38.7707 O.2       8 UNK        -0.5046 
     54 N          21.2382  -31.8339  -40.3497 N.am      9 UNK        -0.4200 
     55 CA         20.8157  -32.5607  -41.5595 C.3       9 UNK         0.0839 
     56 C          21.7377  -33.7540  -41.9589 C.2       9 UNK         0.5513 
     57 N          22.9277  -33.8877  -41.3852 N.am      9 UNK        -0.7519 
     58 O          21.3879  -34.5540  -42.8222 O.2       9 UNK        -0.4960 
     59 C59        19.2991  -32.9260  -41.5382 C.3       10 UNK        -0.0876 
     60 S60        18.4728  -32.6230  -43.1351 S.3       10 UNK        -0.2414 
     61 C61        18.0250  -30.8765  -42.9155 C.3       10 UNK         0.0169 
     62 H62        15.4057  -22.5588  -43.8959 H         1 UNK         0.0903 
     63 H63        17.1349  -22.2866  -44.1224 H         1 UNK         0.0903 
     64 H64        16.0875  -22.5274  -45.5232 H         1 UNK         0.0903 
     65 H65        14.9802  -24.6339  -43.1817 H         1 UNK         0.3096 
     66 H66        16.1034  -26.9667  -44.4771 H         1 UNK         0.1121 
     67 H67        13.9335  -26.5002  -42.3951 H         1 UNK         0.0849 
     68 H68        14.5627  -28.1034  -42.5822 H         1 UNK         0.0849 
     69 H69        13.2471  -29.7891  -44.1005 H         1 UNK         0.0865 
     70 H70        13.1573  -29.4747  -45.8133 H         1 UNK         0.0865 
     71 H71        15.3608  -30.3508  -43.0809 H         1 UNK         0.1346 
     72 H72        18.9721  -30.2082  -45.3733 H         1 UNK         0.1412 
     73 H73        15.3066  -28.7224  -47.0467 H         1 UNK         0.1426 
     74 H74        17.2277  -28.8858  -48.4405 H         1 UNK         0.0716 
     75 H75        18.5722  -29.8860  -47.9734 H         1 UNK         0.0716 
     76 H76        21.2163  -28.1130  -47.8511 H         1 UNK         0.0695 
     77 H77        20.4962  -29.2947  -46.7987 H         1 UNK         0.0695 
     78 H78        21.3408  -26.4644  -46.0051 H         1 UNK         0.0983 
     79 H79        19.4261  -27.9457  -44.7106 H         1 UNK         0.3095 
     80 H80        19.4005  -27.9952  -41.9616 H         1 UNK         0.0454 
     81 H81        20.6608  -26.2802  -40.6498 H         1 UNK         0.0851 
     82 H82        18.9352  -26.0816  -40.4159 H         1 UNK         0.0851 
     83 H83        19.8096  -24.9885  -41.4872 H         1 UNK         0.0851 
     84 H84        18.2791  -26.1186  -43.8772 H         1 UNK         0.2976 
     85 H85        21.9780  -29.2992  -44.0542 H         1 UNK         0.3116 
     86 H86        24.6018  -29.9056  -45.0666 H         1 UNK         0.0646 
     87 H87        23.2683  -30.5536  -42.3865 H         1 UNK         0.0847 
     88 H88        24.7821  -31.2452  -42.9470 H         1 UNK         0.0847 
     89 H89        23.2972  -31.5828  -43.8180 H         1 UNK         0.0847 
     90 H90        23.4126  -27.4792  -42.8763 H         1 UNK         0.3040 
     91 H91        24.1962  -25.8000  -41.7563 H         1 UNK         0.1015 
     92 H92        26.6753  -26.0351  -43.5410 H         1 UNK         0.0786 
     93 H93        26.2173  -24.6226  -42.6016 H         1 UNK         0.0786 
     94 H94        25.1920  -25.1636  -43.9212 H         1 UNK         0.0786 
     95 H95        26.9419  -28.0541  -41.9957 H         1 UNK         0.3172 
     96 H96        28.0582  -27.2429  -39.3936 H         1 UNK         0.0595 
     97 H97        28.9458  -29.3657  -41.4228 H         1 UNK         0.0839 
     98 H98        29.8689  -28.8380  -40.0222 H         1 UNK         0.0839 
     99 H99        29.5530  -27.7123  -41.3310 H         1 UNK         0.0839 
    100 H100       25.5932  -29.3863  -40.3007 H         1 UNK         0.2998 
    101 H101       25.7060  -30.8379  -37.7628 H         1 UNK         0.0822 
    102 H102       26.9449  -32.3605  -39.3379 H         1 UNK         0.0787 
    103 H103       25.3826  -33.0466  -38.9294 H         1 UNK         0.0787 
    104 H104       25.6170  -32.2705  -40.4918 H         1 UNK         0.0787 
    105 H105       23.6444  -31.9012  -37.3532 H         1 UNK         0.3055 
    106 H106       21.3468  -30.3271  -38.2184 H         1 UNK         0.1106 
    107 H107       21.6053  -32.7059  -36.2982 H         1 UNK         0.0828 
    108 H108       20.1607  -31.7315  -36.5295 H         1 UNK         0.0828 
    109 H109       21.6043  -31.0005  -35.8500 H         1 UNK         0.0828 
    110 H110       21.7285  -30.9595  -40.5007 H         1 UNK         0.2931 
    111 H111       20.9713  -31.8298  -42.3535 H         1 UNK         0.0412 
    112 H112       23.2246  -33.2452  -40.6707 H         1 UNK         0.3472 
    113 H113       23.5207  -34.6564  -41.6561 H         1 UNK         0.3472 
    114 H114       18.7698  -32.3503  -40.7775 H         1 UNK         0.0970 
    115 H115       19.1483  -33.9688  -41.2525 H         1 UNK         0.0970 
    116 H116       17.4418  -30.7627  -42.0001 H         1 UNK         0.0612 
    117 H117       18.9329  -30.2887  -42.7760 H         1 UNK         0.0612 
@<TRIPOS>BOND
     1    1    2 1    
     2    1   62 1    
     3    1   63 1    
     4    1   64 1    
     5    2    3 2    
     6    2    4 am   BACKBONE|DICT|INTERRES
     7    4    5 1    
     8    4   65 1    
     9    5    6 1    
    10    5   25 1    
    11    5   66 1    
    12    6    7 1    
    13    6   67 1    
    14    6   68 1    
    15    7    8 1    
    16    8    9 1    
    17    8   69 1    
    18    8   70 1    
    19    9   10 ar   
    20    9   14 ar   
    21   10   11 ar   
    22   10   71 1    
    23   11   12 ar   
    24   11   61 1    
    25   12   13 ar   
    26   12   72 1    
    27   13   14 ar   
    28   13   15 1    
    29   14   73 1    
    30   15   16 1    
    31   15   74 1    
    32   15   75 1    
    33   16   17 1    
    34   17   18 1    
    35   17   76 1    
    36   17   77 1    
    37   18   19 1    
    38   18   27 1    
    39   18   78 1    
    40   19   20 am   BACKBONE|DICT|INTERRES
    41   19   79 1    
    42   20   21 2    
    43   20   22 1    
    44   22   23 1    
    45   22   24 1    
    46   22   80 1    
    47   23   81 1    
    48   23   82 1    
    49   23   83 1    
    50   24   25 am   BACKBONE|DICT|INTERRES
    51   24   84 1    
    52   25   26 2    
    53   27   28 2    
    54   27   29 am   BACKBONE|DICT|INTERRES
    55   29   30 1    
    56   29   85 1    
    57   30   31 1    
    58   30   32 1    
    59   30   86 1    
    60   31   87 1    
    61   31   88 1    
    62   31   89 1    
    63   32   33 2    
    64   32   34 am   BACKBONE|DICT|INTERRES
    65   34   35 1    
    66   34   90 1    
    67   35   36 1    
    68   35   37 1    
    69   35   91 1    
    70   36   92 1    
    71   36   93 1    
    72   36   94 1    
    73   37   38 2    
    74   37   39 am   BACKBONE|DICT|INTERRES
    75   39   40 1    
    76   39   95 1    
    77   40   41 1    
    78   40   42 1    
    79   40   96 1    
    80   41   97 1    
    81   41   98 1    
    82   41   99 1    
    83   42   43 2    
    84   42   44 am   BACKBONE|DICT|INTERRES
    85   44   45 1    
    86   44  100 1    
    87   45   46 1    
    88   45   47 1    
    89   45  101 1    
    90   46  102 1    
    91   46  103 1    
    92   46  104 1    
    93   47   48 2    
    94   47   49 am   BACKBONE|DICT|INTERRES
    95   49   50 1    
    96   49  105 1    
    97   50   51 1    
    98   50   52 1    
    99   50  106 1    
   100   51  107 1    
   101   51  108 1    
   102   51  109 1    
   103   52   53 2    
   104   52   54 am   BACKBONE|DICT|INTERRES
   105   54   55 1    
   106   54  110 1    
   107   55   56 1    
   108   55   59 1    
   109   55  111 1    
   110   56   57 am   BACKBONE|DICT|INTERRES
   111   56   58 2    
   112   57  112 1    
   113   57  113 1    
   114   59   60 1    
   115   59  114 1    
   116   59  115 1    
   117   60   61 1    
   118   61  116 1    
   119   61  117 1    
@<TRIPOS>SUBSTRUCTURE
     1 UNK         1 GROUP             0       ****    0 ROOT    
