@<TRIPOS>MOLECULE
3R8
117   119    1
SMALL
USER_CHARGES


@<TRIPOS>ATOM
      1 CA         15.4950  -23.8042  -43.1796 C.3       0 UNK        -0.2013 
      2 C          16.3610  -24.9921  -43.5705 C.2       0 UNK         0.4866 
      3 O          17.0243  -24.9505  -44.6053 O.2       0 UNK        -0.5176 
      4 N          16.3689  -26.0457  -42.7435 N.am      1 UNK        -0.4884 
      5 CA         17.1157  -27.2937  -42.9671 C.3       1 UNK         0.0853 
      6 C6         16.4537  -28.4888  -42.2337 C.3       10 UNK        -0.0849 
      7 S7         14.9623  -29.0305  -43.1395 S.3       10 UNK        -0.2776 
      8 C8         15.4814  -30.6163  -43.8894 C.3       10 UNK         0.0316 
      9 C9         16.8747  -30.5713  -44.5101 C.ar      10 UNK        -0.0863 
     10 C10        17.9064  -31.3363  -43.9580 C.ar      10 UNK        -0.1009 
     11 C11        19.2030  -31.2857  -44.4835 C.ar      10 UNK        -0.0712 
     12 C12        19.4512  -30.4652  -45.5896 C.ar      10 UNK        -0.0894 
     13 C13        18.4286  -29.6974  -46.1569 C.ar      10 UNK        -0.0745 
     14 C14        17.1390  -29.7643  -45.6200 C.ar      10 UNK        -0.0972 
     15 C15        18.7075  -28.8011  -47.3550 C.3       10 UNK         0.0209 
     16 S16        19.1462  -27.1072  -46.8487 S.3       10 UNK        -0.2568 
     17 C17        20.9530  -27.2420  -46.6400 C.3       10 UNK        -0.0983 
     18 CA         21.5299  -26.1322  -45.7269 C.3       3 UNK         0.0876 
     19 N          21.0045  -26.2275  -44.3636 N.am      3 UNK        -0.4424 
     20 C          21.2065  -25.3624  -43.3615 C.2       2 UNK         0.4918 
     21 O          21.8986  -24.3481  -43.4712 O.2       2 UNK        -0.4875 
     22 CA         20.5106  -25.6812  -42.0189 C.3       2 UNK         0.0481 
     23 CB         20.6348  -24.5329  -41.0011 C.3       2 UNK        -0.1831 
     24 N          19.0926  -26.0133  -42.1943 N.am      2 UNK        -0.4498 
     25 C          18.6238  -27.1809  -42.6571 C.2       1 UNK         0.5027 
     26 O          19.3595  -28.1378  -42.8965 O.2       1 UNK        -0.4969 
     27 C          23.0665  -26.1938  -45.6930 C.2       3 UNK         0.5005 
     28 O          23.6141  -27.2438  -45.3572 O.2       3 UNK        -0.5279 
     29 N          23.7284  -25.0582  -45.9626 N.am      4 UNK        -0.4463 
     30 CA         25.1774  -24.8440  -45.8224 C.3       4 UNK         0.0283 
     31 CB         25.9556  -25.6406  -46.8917 C.3       4 UNK        -0.1875 
     32 C          25.6890  -25.1083  -44.3878 C.2       4 UNK         0.4949 
     33 O          26.8033  -25.6031  -44.2135 O.2       4 UNK        -0.5039 
     34 N          24.8486  -24.7811  -43.3928 N.am      5 UNK        -0.4663 
     35 CA         25.0411  -24.9907  -41.9531 C.3       5 UNK         0.0242 
     36 CB         26.2450  -24.1803  -41.4242 C.3       5 UNK        -0.1982 
     37 C          25.0792  -26.4771  -41.5389 C.2       5 UNK         0.5017 
     38 O          25.7552  -26.8172  -40.5657 O.2       5 UNK        -0.5012 
     39 N          24.3417  -27.3349  -42.2625 N.am      6 UNK        -0.4439 
     40 CA         24.1206  -28.7456  -41.9238 C.3       6 UNK         0.0297 
     41 CB         23.3125  -29.4243  -43.0431 C.3       6 UNK        -0.2006 
     42 C          23.4023  -28.9383  -40.5752 C.2       6 UNK         0.4892 
     43 O          22.6324  -28.0745  -40.1484 O.2       6 UNK        -0.5089 
     44 N          23.6483  -30.0936  -39.9538 N.am      7 UNK        -0.4243 
     45 CA         23.0328  -30.5493  -38.7133 C.3       7 UNK         0.0196 
     46 CB         23.7817  -29.9557  -37.5055 C.3       7 UNK        -0.2007 
     47 C          23.0741  -32.0814  -38.6986 C.2       7 UNK         0.5020 
     48 O          23.8517  -32.6752  -39.4513 O.2       7 UNK        -0.5147 
     49 N          22.2442  -32.6861  -37.8362 N.am      8 UNK        -0.4734 
     50 CA         22.0694  -34.1365  -37.6542 C.3       8 UNK         0.0238 
     51 CB         23.3439  -34.7750  -37.0593 C.3       8 UNK        -0.1912 
     52 C          21.5781  -34.8486  -38.9325 C.2       8 UNK         0.5038 
     53 O          22.0352  -35.9502  -39.2440 O.2       8 UNK        -0.5046 
     54 N          20.6545  -34.1932  -39.6482 N.am      9 UNK        -0.4200 
     55 CA         20.0507  -34.6685  -40.9039 C.3       9 UNK         0.0839 
     56 C          19.1173  -35.9067  -40.7568 C.2       9 UNK         0.5513 
     57 N          18.6714  -36.2699  -39.5599 N.am      9 UNK        -0.7519 
     58 O          18.7930  -36.5495  -41.7518 O.2       9 UNK        -0.4960 
     59 C59        19.3152  -33.5223  -41.6464 C.3       10 UNK        -0.0876 
     60 S60        20.4096  -32.1183  -42.0680 S.3       10 UNK        -0.2414 
     61 C61        20.3427  -32.1198  -43.8946 C.3       10 UNK         0.0169 
     62 H62        14.7499  -23.6144  -43.9517 H         1 UNK         0.0903 
     63 H63        14.9718  -23.9715  -42.2383 H         1 UNK         0.0903 
     64 H64        16.1092  -22.9105  -43.0723 H         1 UNK         0.0903 
     65 H65        15.7986  -26.0235  -41.9094 H         1 UNK         0.3096 
     66 H66        17.0885  -27.5016  -44.0389 H         1 UNK         0.1121 
     67 H67        16.1744  -28.2133  -41.2155 H         1 UNK         0.0849 
     68 H68        17.1346  -29.3345  -42.1264 H         1 UNK         0.0849 
     69 H69        15.4273  -31.3926  -43.1245 H         1 UNK         0.0865 
     70 H70        14.7575  -30.8984  -44.6552 H         1 UNK         0.0865 
     71 H71        17.6944  -31.9590  -43.1031 H         1 UNK         0.1346 
     72 H72        20.4459  -30.4232  -46.0107 H         1 UNK         0.1412 
     73 H73        16.3446  -29.1692  -46.0500 H         1 UNK         0.1426 
     74 H74        17.8215  -28.7548  -47.9900 H         1 UNK         0.0716 
     75 H75        19.5001  -29.2222  -47.9755 H         1 UNK         0.0716 
     76 H76        21.4044  -27.1955  -47.6330 H         1 UNK         0.0695 
     77 H77        21.1969  -28.2257  -46.2369 H         1 UNK         0.0695 
     78 H78        21.2266  -25.1644  -46.1318 H         1 UNK         0.0983 
     79 H79        20.4435  -27.0487  -44.1623 H         1 UNK         0.3095 
     80 H80        21.0202  -26.5493  -41.5985 H         1 UNK         0.0454 
     81 H81        20.1669  -23.6175  -41.3652 H         1 UNK         0.0851 
     82 H82        21.6808  -24.3051  -40.7934 H         1 UNK         0.0851 
     83 H83        20.1706  -24.7941  -40.0501 H         1 UNK         0.0851 
     84 H84        18.4298  -25.2624  -42.0669 H         1 UNK         0.2976 
     85 H85        23.1887  -24.2343  -46.1929 H         1 UNK         0.3116 
     86 H86        25.3502  -23.7836  -46.0123 H         1 UNK         0.0646 
     87 H87        25.5845  -25.4284  -47.8941 H         1 UNK         0.0847 
     88 H88        25.8839  -26.7162  -46.7276 H         1 UNK         0.0847 
     89 H89        27.0150  -25.3813  -46.8787 H         1 UNK         0.0847 
     90 H90        23.9386  -24.4088  -43.6486 H         1 UNK         0.3040 
     91 H91        24.1484  -24.5836  -41.4757 H         1 UNK         0.1015 
     92 H92        27.1935  -24.5765  -41.7875 H         1 UNK         0.0786 
     93 H93        26.2824  -24.2025  -40.3344 H         1 UNK         0.0786 
     94 H94        26.1811  -23.1338  -41.7221 H         1 UNK         0.0786 
     95 H95        23.8822  -26.9962  -43.0974 H         1 UNK         0.3172 
     96 H96        25.0993  -29.2259  -41.8619 H         1 UNK         0.0595 
     97 H97        23.0913  -30.4637  -42.7970 H         1 UNK         0.0839 
     98 H98        23.8654  -29.4340  -43.9818 H         1 UNK         0.0839 
     99 H99        22.3582  -28.9236  -43.2153 H         1 UNK         0.0839 
    100 H100       24.2384  -30.7914  -40.3921 H         1 UNK         0.2998 
    101 H101       21.9875  -30.2328  -38.6944 H         1 UNK         0.0822 
    102 H102       23.7494  -28.8660  -37.5151 H         1 UNK         0.0787 
    103 H103       23.3370  -30.2831  -36.5650 H         1 UNK         0.0787 
    104 H104       24.8296  -30.2585  -37.4952 H         1 UNK         0.0787 
    105 H105       21.6539  -32.1022  -37.2583 H         1 UNK         0.3055 
    106 H106       21.2718  -34.2625  -36.9200 H         1 UNK         0.1106 
    107 H107       24.1778  -34.7493  -37.7614 H         1 UNK         0.0828 
    108 H108       23.1725  -35.8204  -36.7996 H         1 UNK         0.0828 
    109 H109       23.6563  -34.2641  -36.1487 H         1 UNK         0.0828 
    110 H110       20.3511  -33.2862  -39.3277 H         1 UNK         0.2931 
    111 H111       20.8740  -34.9932  -41.5434 H         1 UNK         0.0412 
    112 H112       18.0701  -37.0753  -39.4803 H         1 UNK         0.3472 
    113 H113       18.9288  -35.7494  -38.7369 H         1 UNK         0.3472 
    114 H114       18.4929  -33.1437  -41.0365 H         1 UNK         0.0970 
    115 H115       18.8574  -33.9041  -42.5608 H         1 UNK         0.0970 
    116 H116       21.2996  -31.7340  -44.2494 H         1 UNK         0.0612 
    117 H117       20.2746  -33.1425  -44.2669 H         1 UNK         0.0612 
@<TRIPOS>BOND
     1    1    2 1    
     2    1   62 1    
     3    1   63 1    
     4    1   64 1    
     5    2    3 2    
     6    2    4 am   BACKBONE|DICT|INTERRES
     7    4    5 1    
     8    4   65 1    
     9    5    6 1    
    10    5   25 1    
    11    5   66 1    
    12    6    7 1    
    13    6   67 1    
    14    6   68 1    
    15    7    8 1    
    16    8    9 1    
    17    8   69 1    
    18    8   70 1    
    19    9   10 ar   
    20    9   14 ar   
    21   10   11 ar   
    22   10   71 1    
    23   11   12 ar   
    24   11   61 1    
    25   12   13 ar   
    26   12   72 1    
    27   13   14 ar   
    28   13   15 1    
    29   14   73 1    
    30   15   16 1    
    31   15   74 1    
    32   15   75 1    
    33   16   17 1    
    34   17   18 1    
    35   17   76 1    
    36   17   77 1    
    37   18   19 1    
    38   18   27 1    
    39   18   78 1    
    40   19   20 am   BACKBONE|DICT|INTERRES
    41   19   79 1    
    42   20   21 2    
    43   20   22 1    
    44   22   23 1    
    45   22   24 1    
    46   22   80 1    
    47   23   81 1    
    48   23   82 1    
    49   23   83 1    
    50   24   25 am   BACKBONE|DICT|INTERRES
    51   24   84 1    
    52   25   26 2    
    53   27   28 2    
    54   27   29 am   BACKBONE|DICT|INTERRES
    55   29   30 1    
    56   29   85 1    
    57   30   31 1    
    58   30   32 1    
    59   30   86 1    
    60   31   87 1    
    61   31   88 1    
    62   31   89 1    
    63   32   33 2    
    64   32   34 am   BACKBONE|DICT|INTERRES
    65   34   35 1    
    66   34   90 1    
    67   35   36 1    
    68   35   37 1    
    69   35   91 1    
    70   36   92 1    
    71   36   93 1    
    72   36   94 1    
    73   37   38 2    
    74   37   39 am   BACKBONE|DICT|INTERRES
    75   39   40 1    
    76   39   95 1    
    77   40   41 1    
    78   40   42 1    
    79   40   96 1    
    80   41   97 1    
    81   41   98 1    
    82   41   99 1    
    83   42   43 2    
    84   42   44 am   BACKBONE|DICT|INTERRES
    85   44   45 1    
    86   44  100 1    
    87   45   46 1    
    88   45   47 1    
    89   45  101 1    
    90   46  102 1    
    91   46  103 1    
    92   46  104 1    
    93   47   48 2    
    94   47   49 am   BACKBONE|DICT|INTERRES
    95   49   50 1    
    96   49  105 1    
    97   50   51 1    
    98   50   52 1    
    99   50  106 1    
   100   51  107 1    
   101   51  108 1    
   102   51  109 1    
   103   52   53 2    
   104   52   54 am   BACKBONE|DICT|INTERRES
   105   54   55 1    
   106   54  110 1    
   107   55   56 1    
   108   55   59 1    
   109   55  111 1    
   110   56   57 am   BACKBONE|DICT|INTERRES
   111   56   58 2    
   112   57  112 1    
   113   57  113 1    
   114   59   60 1    
   115   59  114 1    
   116   59  115 1    
   117   60   61 1    
   118   61  116 1    
   119   61  117 1    
@<TRIPOS>SUBSTRUCTURE
     1 UNK         1 GROUP             0       ****    0 ROOT    
