@<TRIPOS>MOLECULE
3R8
117   119    1
SMALL
USER_CHARGES


@<TRIPOS>ATOM
      1 CA         18.7600  -26.8234  -39.1604 C.3       0 UNK        -0.2013 
      2 C          17.8400  -26.6383  -40.3580 C.2       0 UNK         0.4866 
      3 O          17.2977  -25.5505  -40.5516 O.2       0 UNK        -0.5176 
      4 N          17.6588  -27.6992  -41.1548 N.am      1 UNK        -0.4884 
      5 CA         16.8457  -27.7397  -42.3776 C.3       1 UNK         0.0853 
      6 C6         16.8101  -29.1921  -42.9083 C.3       10 UNK        -0.0849 
      7 S7         15.7186  -29.5042  -44.3394 S.3       10 UNK        -0.2776 
      8 C8         16.9058  -29.6651  -45.7237 C.3       10 UNK         0.0316 
      9 C9         18.0632  -30.6222  -45.4421 C.ar      10 UNK        -0.0863 
     10 C10        17.8279  -31.8995  -44.9237 C.ar      10 UNK        -0.1009 
     11 C11        18.8937  -32.7477  -44.6022 C.ar      10 UNK        -0.0712 
     12 C12        20.1996  -32.3240  -44.8671 C.ar      10 UNK        -0.0894 
     13 C13        20.4591  -31.0656  -45.4187 C.ar      10 UNK        -0.0745 
     14 C14        19.3784  -30.2156  -45.6897 C.ar      10 UNK        -0.0972 
     15 C15        21.9194  -30.6910  -45.6976 C.3       10 UNK         0.0209 
     16 S16        22.1961  -29.0717  -46.5031 S.3       10 UNK        -0.2568 
     17 C17        23.1303  -28.1770  -45.2171 C.3       10 UNK        -0.0983 
     18 CA         23.0774  -26.6328  -45.4043 C.3       3 UNK         0.0876 
     19 N          21.6950  -26.1192  -45.3830 N.am      3 UNK        -0.4424 
     20 C          20.8712  -26.0841  -44.3249 C.2       2 UNK         0.4918 
     21 O          21.2449  -26.2742  -43.1658 O.2       2 UNK        -0.4875 
     22 CA         19.3789  -25.8150  -44.5831 C.3       2 UNK         0.0481 
     23 CB         18.9572  -26.0136  -46.0594 C.3       2 UNK        -0.1831 
     24 N          18.6435  -26.6980  -43.6793 N.am      2 UNK        -0.4498 
     25 C          17.3257  -26.7314  -43.4483 C.2       1 UNK         0.5027 
     26 O          16.5069  -26.0036  -44.0121 O.2       1 UNK        -0.4969 
     27 C          24.0406  -25.9071  -44.4325 C.2       3 UNK         0.5005 
     28 O          25.0279  -26.5001  -43.9961 O.2       3 UNK        -0.5279 
     29 N          23.7226  -24.6550  -44.0628 N.am      4 UNK        -0.4463 
     30 CA         24.3891  -23.8524  -43.0241 C.3       4 UNK         0.0283 
     31 CB         25.7829  -23.3942  -43.5037 C.3       4 UNK        -0.1875 
     32 C          24.4364  -24.5559  -41.6471 C.2       4 UNK         0.4949 
     33 O          25.3883  -24.3594  -40.8911 O.2       4 UNK        -0.5039 
     34 N          23.4181  -25.3867  -41.3708 N.am      5 UNK        -0.4663 
     35 CA         23.2458  -26.2670  -40.2092 C.3       5 UNK         0.0242 
     36 CB         23.2479  -25.4712  -38.8869 C.3       5 UNK        -0.1982 
     37 C          24.2036  -27.4782  -40.1603 C.2       5 UNK         0.5017 
     38 O          24.1343  -28.2405  -39.1947 O.2       5 UNK        -0.5012 
     39 N          25.0561  -27.6747  -41.1781 N.am      6 UNK        -0.4439 
     40 CA         26.0093  -28.7841  -41.2512 C.3       6 UNK         0.0297 
     41 CB         27.1620  -28.4128  -42.2001 C.3       6 UNK        -0.2006 
     42 C          25.2987  -30.0711  -41.6985 C.2       6 UNK         0.4892 
     43 O          24.9934  -30.2128  -42.8837 O.2       6 UNK        -0.5089 
     44 N          25.0275  -30.9635  -40.7316 N.am      7 UNK        -0.4243 
     45 CA         24.3078  -32.2414  -40.8759 C.3       7 UNK         0.0196 
     46 CB         25.1453  -33.2499  -41.6905 C.3       7 UNK        -0.2007 
     47 C          22.8805  -32.0685  -41.4361 C.2       7 UNK         0.5020 
     48 O          22.3870  -32.9227  -42.1748 O.2       7 UNK        -0.5147 
     49 N          22.2441  -30.9456  -41.0844 N.am      8 UNK        -0.4734 
     50 CA         21.0092  -30.4456  -41.6842 C.3       8 UNK         0.0238 
     51 CB         20.9947  -28.9217  -41.5326 C.3       8 UNK        -0.1912 
     52 C          19.7393  -31.1063  -41.1248 C.2       8 UNK         0.5038 
     53 O          18.8331  -30.3994  -40.6763 O.2       8 UNK        -0.5046 
     54 N          19.7012  -32.4437  -41.1692 N.am      9 UNK        -0.4200 
     55 CA         18.5772  -33.3048  -40.7611 C.3       9 UNK         0.0839 
     56 C          18.2495  -33.2857  -39.2346 C.2       9 UNK         0.5513 
     57 N          19.1006  -32.7335  -38.3782 N.am      9 UNK        -0.7519 
     58 O          17.2289  -33.8210  -38.8091 O.2       9 UNK        -0.4960 
     59 C59        17.3248  -33.1026  -41.6750 C.3       10 UNK        -0.0876 
     60 S60        17.1635  -34.3513  -42.9981 S.3       10 UNK        -0.2414 
     61 C61        18.6835  -34.1343  -43.9924 C.3       10 UNK         0.0169 
     62 H62        19.0181  -27.8710  -39.0048 H         1 UNK         0.0903 
     63 H63        19.6820  -26.2609  -39.3054 H         1 UNK         0.0903 
     64 H64        18.2765  -26.4590  -38.2545 H         1 UNK         0.0903 
     65 H65        18.0992  -28.5816  -40.9039 H         1 UNK         0.3096 
     66 H66        15.8293  -27.4519  -42.1000 H         1 UNK         0.1121 
     67 H67        16.4556  -29.8472  -42.1110 H         1 UNK         0.0849 
     68 H68        17.8235  -29.5302  -43.1219 H         1 UNK         0.0849 
     69 H69        16.3700  -30.0129  -46.6077 H         1 UNK         0.0865 
     70 H70        17.2805  -28.6700  -45.9669 H         1 UNK         0.0865 
     71 H71        16.8099  -32.2156  -44.7447 H         1 UNK         0.1346 
     72 H72        21.0280  -32.9818  -44.6382 H         1 UNK         0.1412 
     73 H73        19.5508  -29.2336  -46.1008 H         1 UNK         0.1426 
     74 H74        22.3489  -31.4546  -46.3475 H         1 UNK         0.0716 
     75 H75        22.4845  -30.7420  -44.7653 H         1 UNK         0.0716 
     76 H76        24.1574  -28.5451  -45.2581 H         1 UNK         0.0695 
     77 H77        22.7478  -28.4526  -44.2330 H         1 UNK         0.0695 
     78 H78        23.4663  -26.4111  -46.3994 H         1 UNK         0.0983 
     79 H79        21.3010  -25.9238  -46.2920 H         1 UNK         0.3095 
     80 H80        19.1757  -24.7838  -44.2898 H         1 UNK         0.0454 
     81 H81        17.8880  -25.8619  -46.2020 H         1 UNK         0.0851 
     82 H82        19.1974  -27.0117  -46.4232 H         1 UNK         0.0851 
     83 H83        19.4529  -25.2944  -46.7120 H         1 UNK         0.0851 
     84 H84        19.2446  -27.2709  -43.1028 H         1 UNK         0.2976 
     85 H85        22.8876  -24.2507  -44.4639 H         1 UNK         0.3116 
     86 H86        23.7769  -22.9601  -42.8855 H         1 UNK         0.0646 
     87 H87        26.4726  -24.2331  -43.6026 H         1 UNK         0.0847 
     88 H88        25.7258  -22.8912  -44.4688 H         1 UNK         0.0847 
     89 H89        26.2280  -22.6901  -42.7996 H         1 UNK         0.0847 
     90 H90        22.7014  -25.4991  -42.0839 H         1 UNK         0.3040 
     91 H91        22.2457  -26.6840  -40.3189 H         1 UNK         0.1015 
     92 H92        22.9370  -26.1010  -38.0524 H         1 UNK         0.0786 
     93 H93        22.5573  -24.6290  -38.9286 H         1 UNK         0.0786 
     94 H94        24.2379  -25.0844  -38.6445 H         1 UNK         0.0786 
     95 H95        25.0171  -27.0612  -41.9863 H         1 UNK         0.3172 
     96 H96        26.4427  -28.9423  -40.2611 H         1 UNK         0.0595 
     97 H97        26.8167  -28.2626  -43.2235 H         1 UNK         0.0839 
     98 H98        27.9125  -29.2037  -42.2260 H         1 UNK         0.0839 
     99 H99        27.6624  -27.4990  -41.8794 H         1 UNK         0.0839 
    100 H100       25.2901  -30.7185  -39.7858 H         1 UNK         0.2998 
    101 H101       24.1899  -32.6458  -39.8695 H         1 UNK         0.0822 
    102 H102       24.6777  -34.2354  -41.6937 H         1 UNK         0.0787 
    103 H103       25.2529  -32.9388  -42.7303 H         1 UNK         0.0787 
    104 H104       26.1440  -33.3680  -41.2703 H         1 UNK         0.0787 
    105 H105       22.7126  -30.3253  -40.4387 H         1 UNK         0.3055 
    106 H106       21.0326  -30.6649  -42.7512 H         1 UNK         0.1106 
    107 H107       21.8999  -28.4829  -41.9503 H         1 UNK         0.0828 
    108 H108       20.1524  -28.4901  -42.0678 H         1 UNK         0.0828 
    109 H109       20.9184  -28.6215  -40.4876 H         1 UNK         0.0828 
    110 H110       20.5214  -32.9171  -41.5351 H         1 UNK         0.2931 
    111 H111       18.9439  -34.3201  -40.9142 H         1 UNK         0.0412 
    112 H112       18.8858  -32.7408  -37.3934 H         1 UNK         0.3472 
    113 H113       19.9428  -32.2926  -38.7100 H         1 UNK         0.3472 
    114 H114       16.3951  -33.1470  -41.1059 H         1 UNK         0.0970 
    115 H115       17.3135  -32.1128  -42.1295 H         1 UNK         0.0970 
    116 H116       18.6627  -34.8616  -44.8048 H         1 UNK         0.0612 
    117 H117       19.5387  -34.3997  -43.3692 H         1 UNK         0.0612 
@<TRIPOS>BOND
     1    1    2 1    
     2    1   62 1    
     3    1   63 1    
     4    1   64 1    
     5    2    3 2    
     6    2    4 am   BACKBONE|DICT|INTERRES
     7    4    5 1    
     8    4   65 1    
     9    5    6 1    
    10    5   25 1    
    11    5   66 1    
    12    6    7 1    
    13    6   67 1    
    14    6   68 1    
    15    7    8 1    
    16    8    9 1    
    17    8   69 1    
    18    8   70 1    
    19    9   10 ar   
    20    9   14 ar   
    21   10   11 ar   
    22   10   71 1    
    23   11   12 ar   
    24   11   61 1    
    25   12   13 ar   
    26   12   72 1    
    27   13   14 ar   
    28   13   15 1    
    29   14   73 1    
    30   15   16 1    
    31   15   74 1    
    32   15   75 1    
    33   16   17 1    
    34   17   18 1    
    35   17   76 1    
    36   17   77 1    
    37   18   19 1    
    38   18   27 1    
    39   18   78 1    
    40   19   20 am   BACKBONE|DICT|INTERRES
    41   19   79 1    
    42   20   21 2    
    43   20   22 1    
    44   22   23 1    
    45   22   24 1    
    46   22   80 1    
    47   23   81 1    
    48   23   82 1    
    49   23   83 1    
    50   24   25 am   BACKBONE|DICT|INTERRES
    51   24   84 1    
    52   25   26 2    
    53   27   28 2    
    54   27   29 am   BACKBONE|DICT|INTERRES
    55   29   30 1    
    56   29   85 1    
    57   30   31 1    
    58   30   32 1    
    59   30   86 1    
    60   31   87 1    
    61   31   88 1    
    62   31   89 1    
    63   32   33 2    
    64   32   34 am   BACKBONE|DICT|INTERRES
    65   34   35 1    
    66   34   90 1    
    67   35   36 1    
    68   35   37 1    
    69   35   91 1    
    70   36   92 1    
    71   36   93 1    
    72   36   94 1    
    73   37   38 2    
    74   37   39 am   BACKBONE|DICT|INTERRES
    75   39   40 1    
    76   39   95 1    
    77   40   41 1    
    78   40   42 1    
    79   40   96 1    
    80   41   97 1    
    81   41   98 1    
    82   41   99 1    
    83   42   43 2    
    84   42   44 am   BACKBONE|DICT|INTERRES
    85   44   45 1    
    86   44  100 1    
    87   45   46 1    
    88   45   47 1    
    89   45  101 1    
    90   46  102 1    
    91   46  103 1    
    92   46  104 1    
    93   47   48 2    
    94   47   49 am   BACKBONE|DICT|INTERRES
    95   49   50 1    
    96   49  105 1    
    97   50   51 1    
    98   50   52 1    
    99   50  106 1    
   100   51  107 1    
   101   51  108 1    
   102   51  109 1    
   103   52   53 2    
   104   52   54 am   BACKBONE|DICT|INTERRES
   105   54   55 1    
   106   54  110 1    
   107   55   56 1    
   108   55   59 1    
   109   55  111 1    
   110   56   57 am   BACKBONE|DICT|INTERRES
   111   56   58 2    
   112   57  112 1    
   113   57  113 1    
   114   59   60 1    
   115   59  114 1    
   116   59  115 1    
   117   60   61 1    
   118   61  116 1    
   119   61  117 1    
@<TRIPOS>SUBSTRUCTURE
     1 UNK         1 GROUP             0       ****    0 ROOT    
