@<TRIPOS>MOLECULE
3R8
117   119    1
SMALL
USER_CHARGES


@<TRIPOS>ATOM
      1 CA         20.9895  -23.9972  -49.4877 C.3       0 UNK        -0.2013 
      2 C          20.8741  -25.1701  -48.5254 C.2       0 UNK         0.4866 
      3 O          21.8909  -25.7494  -48.1417 O.2       0 UNK        -0.5176 
      4 N          19.6436  -25.5304  -48.1391 N.am      1 UNK        -0.4884 
      5 CA         19.3525  -26.5868  -47.1648 C.3       1 UNK         0.0853 
      6 C6         17.8778  -27.0506  -47.2788 C.3       10 UNK        -0.0849 
      7 S7         17.5937  -28.6783  -46.5041 S.3       10 UNK        -0.2776 
      8 C8         16.4319  -28.2416  -45.1600 C.3       10 UNK         0.0316 
      9 C9         16.1813  -29.3553  -44.1401 C.ar      10 UNK        -0.0863 
     10 C10        16.3664  -30.7094  -44.4501 C.ar      10 UNK        -0.1009 
     11 C11        16.1810  -31.6975  -43.4801 C.ar      10 UNK        -0.0712 
     12 C12        15.7523  -31.3359  -42.2024 C.ar      10 UNK        -0.0894 
     13 C13        15.5373  -29.9942  -41.8814 C.ar      10 UNK        -0.0745 
     14 C14        15.7527  -29.0101  -42.8527 C.ar      10 UNK        -0.0972 
     15 C15        15.1081  -29.6169  -40.4712 C.3       10 UNK         0.0209 
     16 S16        16.4703  -29.8329  -39.2791 S.3       10 UNK        -0.2568 
     17 C17        17.6305  -28.5374  -39.8221 C.3       10 UNK        -0.0983 
     18 CA         18.7297  -29.0694  -40.7807 C.3       3 UNK         0.0876 
     19 N          19.2821  -27.9871  -41.5955 N.am      3 UNK        -0.4424 
     20 C          19.9271  -28.1627  -42.7534 C.2       2 UNK         0.4918 
     21 O          20.1570  -29.2598  -43.2662 O.2       2 UNK        -0.4875 
     22 CA         20.3841  -26.8889  -43.4690 C.3       2 UNK         0.0481 
     23 CB         21.8792  -26.6254  -43.2313 C.3       2 UNK        -0.1831 
     24 N          20.1297  -27.0682  -44.8929 N.am      2 UNK        -0.4498 
     25 C          19.6988  -26.1223  -45.7332 C.2       1 UNK         0.5027 
     26 O          19.5358  -24.9409  -45.4143 O.2       1 UNK        -0.4969 
     27 C          19.8505  -29.8299  -40.0474 C.2       3 UNK         0.5005 
     28 O          20.0369  -31.0253  -40.2815 O.2       3 UNK        -0.5279 
     29 N          20.5931  -29.1019  -39.2046 N.am      4 UNK        -0.4463 
     30 CA         21.7149  -29.5781  -38.4007 C.3       4 UNK         0.0283 
     31 CB         21.2462  -30.5808  -37.3236 C.3       4 UNK        -0.1875 
     32 C          22.3978  -28.3447  -37.7987 C.2       4 UNK         0.4949 
     33 O          22.2274  -28.0591  -36.6123 O.2       4 UNK        -0.5039 
     34 N          23.1040  -27.6003  -38.6532 N.am      5 UNK        -0.4663 
     35 CA         23.8400  -26.3848  -38.3076 C.3       5 UNK         0.0242 
     36 CB         23.1483  -25.1764  -38.9747 C.3       5 UNK        -0.1982 
     37 C          25.3062  -26.5896  -38.7192 C.2       5 UNK         0.5017 
     38 O          25.9198  -27.5633  -38.2786 O.2       5 UNK        -0.5012 
     39 N          25.8380  -25.7087  -39.5798 N.am      6 UNK        -0.4439 
     40 CA         27.1476  -25.8595  -40.2294 C.3       6 UNK         0.0297 
     41 CB         27.5293  -24.5363  -40.9128 C.3       6 UNK        -0.2006 
     42 C          27.1874  -27.0221  -41.2434 C.2       6 UNK         0.4892 
     43 O          28.2696  -27.5208  -41.5543 O.2       6 UNK        -0.5089 
     44 N          26.0082  -27.4352  -41.7181 N.am      7 UNK        -0.4243 
     45 CA         25.7526  -28.6281  -42.5116 C.3       7 UNK         0.0196 
     46 CB         25.6515  -28.2413  -43.9977 C.3       7 UNK        -0.2007 
     47 C          24.4492  -29.2579  -42.0000 C.2       7 UNK         0.5020 
     48 O          23.7094  -28.6188  -41.2438 O.2       7 UNK        -0.5147 
     49 N          24.1866  -30.4923  -42.4305 N.am      8 UNK        -0.4734 
     50 CA         22.9660  -31.2419  -42.1466 C.3       8 UNK         0.0238 
     51 CB         23.2417  -32.2542  -41.0205 C.3       8 UNK        -0.1912 
     52 C          22.5273  -31.9577  -43.4286 C.2       8 UNK         0.5038 
     53 O          23.3574  -32.1698  -44.3182 O.2       8 UNK        -0.5046 
     54 N          21.2456  -32.3328  -43.4959 N.am      9 UNK        -0.4200 
     55 CA         20.6463  -33.0213  -44.6504 C.3       9 UNK         0.0839 
     56 C          21.0485  -34.5159  -44.8287 C.2       9 UNK         0.5513 
     57 N          21.7229  -35.1444  -43.8729 N.am      9 UNK        -0.7519 
     58 O          20.7534  -35.1106  -45.8623 O.2       9 UNK        -0.4960 
     59 C59        19.1140  -32.8014  -44.7093 C.3       10 UNK        -0.0876 
     60 S60        18.1869  -33.5855  -43.3435 S.3       10 UNK        -0.2414 
     61 C61        16.4772  -33.1542  -43.7971 C.3       10 UNK         0.0169 
     62 H62        21.5771  -23.1985  -49.0359 H         1 UNK         0.0903 
     63 H63        21.4887  -24.3112  -50.4040 H         1 UNK         0.0903 
     64 H64        20.0143  -23.5908  -49.7554 H         1 UNK         0.0903 
     65 H65        18.8483  -24.9957  -48.4590 H         1 UNK         0.3096 
     66 H66        19.9973  -27.4344  -47.4108 H         1 UNK         0.1121 
     67 H67        17.6057  -27.1574  -48.3303 H         1 UNK         0.0849 
     68 H68        17.1939  -26.3027  -46.8721 H         1 UNK         0.0849 
     69 H69        16.8255  -27.3662  -44.6406 H         1 UNK         0.0865 
     70 H70        15.4779  -27.9444  -45.5977 H         1 UNK         0.0865 
     71 H71        16.6859  -31.0051  -45.4390 H         1 UNK         0.1346 
     72 H72        15.6141  -32.0969  -41.4462 H         1 UNK         0.1412 
     73 H73        15.6009  -27.9694  -42.5996 H         1 UNK         0.1426 
     74 H74        14.2711  -30.2480  -40.1689 H         1 UNK         0.0716 
     75 H75        14.7448  -28.5888  -40.4322 H         1 UNK         0.0716 
     76 H76        18.0589  -28.0597  -38.9394 H         1 UNK         0.0695 
     77 H77        17.0488  -27.7572  -40.3156 H         1 UNK         0.0695 
     78 H78        18.2682  -29.7804  -41.4700 H         1 UNK         0.0983 
     79 H79        19.1435  -27.0480  -41.2524 H         1 UNK         0.3095 
     80 H80        19.8046  -26.0443  -43.0898 H         1 UNK         0.0454 
     81 H81        22.4899  -27.4515  -43.5956 H         1 UNK         0.0851 
     82 H82        22.0920  -26.5056  -42.1685 H         1 UNK         0.0851 
     83 H83        22.2084  -25.7167  -43.7353 H         1 UNK         0.0851 
     84 H84        20.1650  -28.0323  -45.2016 H         1 UNK         0.2976 
     85 H85        20.3892  -28.1167  -39.1062 H         1 UNK         0.3116 
     86 H86        22.4327  -30.0731  -39.0560 H         1 UNK         0.0646 
     87 H87        20.4623  -30.1588  -36.6937 H         1 UNK         0.0847 
     88 H88        22.0728  -30.8658  -36.6716 H         1 UNK         0.0847 
     89 H89        20.8604  -31.4981  -37.7676 H         1 UNK         0.0847 
     90 H90        23.2407  -27.9513  -39.6018 H         1 UNK         0.3040 
     91 H91        23.8431  -26.2268  -37.2267 H         1 UNK         0.1015 
     92 H92        23.1158  -25.2678  -40.0612 H         1 UNK         0.0786 
     93 H93        23.6507  -24.2406  -38.7255 H         1 UNK         0.0786 
     94 H94        22.1196  -25.0810  -38.6266 H         1 UNK         0.0786 
     95 H95        25.2716  -24.9258  -39.8745 H         1 UNK         0.3172 
     96 H96        27.8887  -26.0722  -39.4560 H         1 UNK         0.0595 
     97 H97        28.5134  -24.6086  -41.3784 H         1 UNK         0.0839 
     98 H98        27.5726  -23.7159  -40.1962 H         1 UNK         0.0839 
     99 H99        26.8194  -24.2646  -41.6952 H         1 UNK         0.0839 
    100 H100       25.1686  -27.0094  -41.3492 H         1 UNK         0.2998 
    101 H101       26.5591  -29.3510  -42.3697 H         1 UNK         0.0822 
    102 H102       25.4431  -29.1113  -44.6215 H         1 UNK         0.0787 
    103 H103       24.8584  -27.5140  -44.1731 H         1 UNK         0.0787 
    104 H104       26.5853  -27.8056  -44.3538 H         1 UNK         0.0787 
    105 H105       24.7915  -30.9251  -43.1177 H         1 UNK         0.3055 
    106 H106       22.1698  -30.5576  -41.8464 H         1 UNK         0.1106 
    107 H107       22.3247  -32.7632  -40.7209 H         1 UNK         0.0828 
    108 H108       23.9572  -33.0172  -41.3295 H         1 UNK         0.0828 
    109 H109       23.6437  -31.7656  -40.1337 H         1 UNK         0.0828 
    110 H110       20.6232  -32.1279  -42.7257 H         1 UNK         0.2931 
    111 H111       21.0458  -32.5232  -45.5363 H         1 UNK         0.0412 
    112 H112       21.9658  -34.6647  -43.0216 H         1 UNK         0.3472 
    113 H113       21.9821  -36.1098  -44.0025 H         1 UNK         0.3472 
    114 H114       18.7173  -33.1668  -45.6584 H         1 UNK         0.0970 
    115 H115       18.9141  -31.7292  -44.6962 H         1 UNK         0.0970 
    116 H116       15.7926  -33.7994  -43.2445 H         1 UNK         0.0612 
    117 H117       16.3085  -33.3631  -44.8547 H         1 UNK         0.0612 
@<TRIPOS>BOND
     1    1    2 1    
     2    1   62 1    
     3    1   63 1    
     4    1   64 1    
     5    2    3 2    
     6    2    4 am   BACKBONE|DICT|INTERRES
     7    4    5 1    
     8    4   65 1    
     9    5    6 1    
    10    5   25 1    
    11    5   66 1    
    12    6    7 1    
    13    6   67 1    
    14    6   68 1    
    15    7    8 1    
    16    8    9 1    
    17    8   69 1    
    18    8   70 1    
    19    9   10 ar   
    20    9   14 ar   
    21   10   11 ar   
    22   10   71 1    
    23   11   12 ar   
    24   11   61 1    
    25   12   13 ar   
    26   12   72 1    
    27   13   14 ar   
    28   13   15 1    
    29   14   73 1    
    30   15   16 1    
    31   15   74 1    
    32   15   75 1    
    33   16   17 1    
    34   17   18 1    
    35   17   76 1    
    36   17   77 1    
    37   18   19 1    
    38   18   27 1    
    39   18   78 1    
    40   19   20 am   BACKBONE|DICT|INTERRES
    41   19   79 1    
    42   20   21 2    
    43   20   22 1    
    44   22   23 1    
    45   22   24 1    
    46   22   80 1    
    47   23   81 1    
    48   23   82 1    
    49   23   83 1    
    50   24   25 am   BACKBONE|DICT|INTERRES
    51   24   84 1    
    52   25   26 2    
    53   27   28 2    
    54   27   29 am   BACKBONE|DICT|INTERRES
    55   29   30 1    
    56   29   85 1    
    57   30   31 1    
    58   30   32 1    
    59   30   86 1    
    60   31   87 1    
    61   31   88 1    
    62   31   89 1    
    63   32   33 2    
    64   32   34 am   BACKBONE|DICT|INTERRES
    65   34   35 1    
    66   34   90 1    
    67   35   36 1    
    68   35   37 1    
    69   35   91 1    
    70   36   92 1    
    71   36   93 1    
    72   36   94 1    
    73   37   38 2    
    74   37   39 am   BACKBONE|DICT|INTERRES
    75   39   40 1    
    76   39   95 1    
    77   40   41 1    
    78   40   42 1    
    79   40   96 1    
    80   41   97 1    
    81   41   98 1    
    82   41   99 1    
    83   42   43 2    
    84   42   44 am   BACKBONE|DICT|INTERRES
    85   44   45 1    
    86   44  100 1    
    87   45   46 1    
    88   45   47 1    
    89   45  101 1    
    90   46  102 1    
    91   46  103 1    
    92   46  104 1    
    93   47   48 2    
    94   47   49 am   BACKBONE|DICT|INTERRES
    95   49   50 1    
    96   49  105 1    
    97   50   51 1    
    98   50   52 1    
    99   50  106 1    
   100   51  107 1    
   101   51  108 1    
   102   51  109 1    
   103   52   53 2    
   104   52   54 am   BACKBONE|DICT|INTERRES
   105   54   55 1    
   106   54  110 1    
   107   55   56 1    
   108   55   59 1    
   109   55  111 1    
   110   56   57 am   BACKBONE|DICT|INTERRES
   111   56   58 2    
   112   57  112 1    
   113   57  113 1    
   114   59   60 1    
   115   59  114 1    
   116   59  115 1    
   117   60   61 1    
   118   61  116 1    
   119   61  117 1    
@<TRIPOS>SUBSTRUCTURE
     1 UNK         1 GROUP             0       ****    0 ROOT    
