@<TRIPOS>MOLECULE
3R8
117   119    1
SMALL
USER_CHARGES


@<TRIPOS>ATOM
      1 CA         17.6468  -24.3851  -39.4742 C.3       0 UNK        -0.2013 
      2 C          18.5285  -25.6296  -39.4122 C.2       0 UNK         0.4866 
      3 O          19.1242  -25.8948  -38.3698 O.2       0 UNK        -0.5176 
      4 N          18.6342  -26.4256  -40.4833 N.am      1 UNK        -0.4884 
      5 CA         18.0514  -26.2122  -41.8122 C.3       1 UNK         0.0853 
      6 C6         18.0040  -27.5333  -42.6194 C.3       10 UNK        -0.0849 
      7 S7         16.9276  -28.7940  -41.8607 S.3       10 UNK        -0.2776 
      8 C8         16.3952  -29.7415  -43.3233 C.3       10 UNK         0.0316 
      9 C9         17.5688  -30.3919  -44.0449 C.ar      10 UNK        -0.0863 
     10 C10        18.0993  -31.5998  -43.5822 C.ar      10 UNK        -0.1009 
     11 C11        19.1668  -32.2096  -44.2499 C.ar      10 UNK        -0.0712 
     12 C12        19.7054  -31.5984  -45.3867 C.ar      10 UNK        -0.0894 
     13 C13        19.1947  -30.3825  -45.8498 C.ar      10 UNK        -0.0745 
     14 C14        18.1177  -29.7915  -45.1826 C.ar      10 UNK        -0.0972 
     15 C15        19.8071  -29.7103  -47.0713 C.3       10 UNK         0.0209 
     16 S16        21.4449  -29.0001  -46.7056 S.3       10 UNK        -0.2568 
     17 C17        21.0294  -27.6512  -45.5472 C.3       10 UNK        -0.0983 
     18 CA         21.4700  -26.2498  -46.0528 C.3       3 UNK         0.0876 
     19 N          20.7373  -25.1945  -45.3625 N.am      3 UNK        -0.4424 
     20 C          19.5152  -24.7623  -45.6784 C.2       2 UNK         0.4918 
     21 O          18.8772  -25.1569  -46.6558 O.2       2 UNK        -0.4875 
     22 CA         18.8646  -23.7932  -44.6760 C.3       2 UNK         0.0481 
     23 CB         17.8260  -22.8731  -45.3424 C.3       2 UNK        -0.1831 
     24 N          18.2120  -24.5795  -43.6281 N.am      2 UNK        -0.4498 
     25 C          18.8548  -25.1632  -42.6073 C.2       1 UNK         0.5027 
     26 O          20.0364  -24.9406  -42.3307 O.2       1 UNK        -0.4969 
     27 C          22.9740  -26.0123  -45.8331 C.2       3 UNK         0.5005 
     28 O          23.3555  -25.2668  -44.9255 O.2       3 UNK        -0.5279 
     29 N          23.8016  -26.6794  -46.6478 N.am      4 UNK        -0.4463 
     30 CA         25.2504  -26.7821  -46.4515 C.3       4 UNK         0.0283 
     31 CB         25.9122  -27.2044  -47.7733 C.3       4 UNK        -0.1875 
     32 C          25.6204  -27.7674  -45.3251 C.2       4 UNK         0.4949 
     33 O          26.7097  -27.6553  -44.7619 O.2       4 UNK        -0.5039 
     34 N          24.7196  -28.7132  -45.0210 N.am      5 UNK        -0.4663 
     35 CA         24.8365  -29.6568  -43.9094 C.3       5 UNK         0.0242 
     36 CB         23.8252  -30.7947  -44.1183 C.3       5 UNK        -0.1982 
     37 C          24.5896  -28.9676  -42.5566 C.2       5 UNK         0.5017 
     38 O          23.8380  -27.9921  -42.4917 O.2       5 UNK        -0.5012 
     39 N          25.2088  -29.5039  -41.4978 N.am      6 UNK        -0.4439 
     40 CA         25.0324  -29.0403  -40.1215 C.3       6 UNK         0.0297 
     41 CB         26.1679  -29.5963  -39.2468 C.3       6 UNK        -0.2006 
     42 C          23.6658  -29.4713  -39.5666 C.2       6 UNK         0.4892 
     43 O          23.2962  -30.6400  -39.7133 O.2       6 UNK        -0.5089 
     44 N          22.9688  -28.5275  -38.9158 N.am      7 UNK        -0.4243 
     45 CA         21.6496  -28.6794  -38.2890 C.3       7 UNK         0.0196 
     46 CB         21.7796  -29.4841  -36.9743 C.3       7 UNK        -0.2007 
     47 C          20.6130  -29.2443  -39.2815 C.2       7 UNK         0.5020 
     48 O          20.4192  -28.6523  -40.3428 O.2       7 UNK        -0.5147 
     49 N          19.9967  -30.3799  -38.9383 N.am      8 UNK        -0.4734 
     50 CA         19.1279  -31.1666  -39.8147 C.3       8 UNK         0.0238 
     51 CB         17.7280  -31.2678  -39.1805 C.3       8 UNK        -0.1912 
     52 C          19.7570  -32.5445  -40.0905 C.2       8 UNK         0.5038 
     53 O          19.0351  -33.5406  -40.1578 O.2       8 UNK        -0.5046 
     54 N          21.0908  -32.5792  -40.2267 N.am      9 UNK        -0.4200 
     55 CA         21.9171  -33.7710  -40.4941 C.3       9 UNK         0.0839 
     56 C          22.0566  -34.7486  -39.2885 C.2       9 UNK         0.5513 
     57 N          21.6935  -34.3597  -38.0721 N.am      9 UNK        -0.7519 
     58 O          22.5295  -35.8712  -39.4488 O.2       9 UNK        -0.4960 
     59 C59        21.5561  -34.5103  -41.8175 C.3       10 UNK        -0.0876 
     60 S60        21.4733  -33.3932  -43.2600 S.3       10 UNK        -0.2414 
     61 C61        19.7244  -33.5353  -43.7519 C.3       10 UNK         0.0169 
     62 H62        18.0170  -23.6783  -40.2159 H         1 UNK         0.0903 
     63 H63        16.6170  -24.6467  -39.7147 H         1 UNK         0.0903 
     64 H64        17.6393  -23.8762  -38.5104 H         1 UNK         0.0903 
     65 H65        19.2513  -27.2342  -40.4265 H         1 UNK         0.3096 
     66 H66        17.0295  -25.8461  -41.6976 H         1 UNK         0.1121 
     67 H67        17.6395  -27.3445  -43.6306 H         1 UNK         0.0849 
     68 H68        19.0046  -27.9584  -42.7299 H         1 UNK         0.0849 
     69 H69        15.6898  -30.5111  -43.0063 H         1 UNK         0.0865 
     70 H70        15.8422  -29.0871  -43.9991 H         1 UNK         0.0865 
     71 H71        17.6761  -32.0657  -42.7025 H         1 UNK         0.1346 
     72 H72        20.5361  -32.0617  -45.9017 H         1 UNK         0.1412 
     73 H73        17.7117  -28.8574  -45.5461 H         1 UNK         0.1426 
     74 H74        19.1525  -28.9276  -47.4583 H         1 UNK         0.0716 
     75 H75        19.9119  -30.4449  -47.8710 H         1 UNK         0.0716 
     76 H76        21.4612  -27.8763  -44.5692 H         1 UNK         0.0695 
     77 H77        19.9508  -27.6583  -45.3912 H         1 UNK         0.0695 
     78 H78        21.2687  -26.1614  -47.1232 H         1 UNK         0.0983 
     79 H79        21.2137  -24.8227  -44.5484 H         1 UNK         0.3095 
     80 H80        19.6416  -23.1629  -44.2378 H         1 UNK         0.0454 
     81 H81        17.4066  -22.1664  -44.6262 H         1 UNK         0.0851 
     82 H82        17.0000  -23.4355  -45.7797 H         1 UNK         0.0851 
     83 H83        18.2820  -22.2896  -46.1432 H         1 UNK         0.0851 
     84 H84        17.2479  -24.8270  -43.8023 H         1 UNK         0.2976 
     85 H85        23.3988  -27.2682  -47.3647 H         1 UNK         0.3116 
     86 H86        25.6380  -25.7994  -46.1741 H         1 UNK         0.0646 
     87 H87        25.5662  -28.1840  -48.1054 H         1 UNK         0.0847 
     88 H88        26.9962  -27.2624  -47.6643 H         1 UNK         0.0847 
     89 H89        25.7067  -26.4870  -48.5679 H         1 UNK         0.0847 
     90 H90        23.8370  -28.7085  -45.5114 H         1 UNK         0.3040 
     91 H91        25.8462  -30.0738  -43.9160 H         1 UNK         0.1015 
     92 H92        22.7963  -30.4305  -44.1042 H         1 UNK         0.0786 
     93 H93        23.9137  -31.5431  -43.3297 H         1 UNK         0.0786 
     94 H94        23.9861  -31.3053  -45.0679 H         1 UNK         0.0786 
     95 H95        25.7656  -30.3366  -41.6247 H         1 UNK         0.3172 
     96 H96        25.0975  -27.9499  -40.1136 H         1 UNK         0.0595 
     97 H97        26.1609  -30.6869  -39.2194 H         1 UNK         0.0839 
     98 H98        26.0738  -29.2458  -38.2180 H         1 UNK         0.0839 
     99 H99        27.1444  -29.2745  -39.6094 H         1 UNK         0.0839 
    100 H100       23.3527  -27.5932  -38.8888 H         1 UNK         0.2998 
    101 H101       21.3066  -27.6757  -38.0330 H         1 UNK         0.0822 
    102 H102       22.4857  -29.0053  -36.2955 H         1 UNK         0.0787 
    103 H103       20.8265  -29.5404  -36.4465 H         1 UNK         0.0787 
    104 H104       22.1332  -30.5017  -37.1455 H         1 UNK         0.0787 
    105 H105       20.2290  -30.7954  -38.0473 H         1 UNK         0.3055 
    106 H106       19.0256  -30.6807  -40.7877 H         1 UNK         0.1106 
    107 H107       17.0360  -31.7906  -39.8420 H         1 UNK         0.0828 
    108 H108       17.7502  -31.8073  -38.2331 H         1 UNK         0.0828 
    109 H109       17.3076  -30.2790  -38.9959 H         1 UNK         0.0828 
    110 H110       21.6192  -31.7189  -40.1182 H         1 UNK         0.2931 
    111 H111       22.9229  -33.3714  -40.6294 H         1 UNK         0.0412 
    112 H112       21.7976  -34.9967  -37.2978 H         1 UNK         0.3472 
    113 H113       21.3181  -33.4381  -37.9230 H         1 UNK         0.3472 
    114 H114       20.6216  -35.0614  -41.7056 H         1 UNK         0.0970 
    115 H115       22.3127  -35.2645  -42.0408 H         1 UNK         0.0970 
    116 H116       19.1259  -33.8967  -42.9153 H         1 UNK         0.0612 
    117 H117       19.6365  -34.2854  -44.5387 H         1 UNK         0.0612 
@<TRIPOS>BOND
     1    1    2 1    
     2    1   62 1    
     3    1   63 1    
     4    1   64 1    
     5    2    3 2    
     6    2    4 am   BACKBONE|DICT|INTERRES
     7    4    5 1    
     8    4   65 1    
     9    5    6 1    
    10    5   25 1    
    11    5   66 1    
    12    6    7 1    
    13    6   67 1    
    14    6   68 1    
    15    7    8 1    
    16    8    9 1    
    17    8   69 1    
    18    8   70 1    
    19    9   10 ar   
    20    9   14 ar   
    21   10   11 ar   
    22   10   71 1    
    23   11   12 ar   
    24   11   61 1    
    25   12   13 ar   
    26   12   72 1    
    27   13   14 ar   
    28   13   15 1    
    29   14   73 1    
    30   15   16 1    
    31   15   74 1    
    32   15   75 1    
    33   16   17 1    
    34   17   18 1    
    35   17   76 1    
    36   17   77 1    
    37   18   19 1    
    38   18   27 1    
    39   18   78 1    
    40   19   20 am   BACKBONE|DICT|INTERRES
    41   19   79 1    
    42   20   21 2    
    43   20   22 1    
    44   22   23 1    
    45   22   24 1    
    46   22   80 1    
    47   23   81 1    
    48   23   82 1    
    49   23   83 1    
    50   24   25 am   BACKBONE|DICT|INTERRES
    51   24   84 1    
    52   25   26 2    
    53   27   28 2    
    54   27   29 am   BACKBONE|DICT|INTERRES
    55   29   30 1    
    56   29   85 1    
    57   30   31 1    
    58   30   32 1    
    59   30   86 1    
    60   31   87 1    
    61   31   88 1    
    62   31   89 1    
    63   32   33 2    
    64   32   34 am   BACKBONE|DICT|INTERRES
    65   34   35 1    
    66   34   90 1    
    67   35   36 1    
    68   35   37 1    
    69   35   91 1    
    70   36   92 1    
    71   36   93 1    
    72   36   94 1    
    73   37   38 2    
    74   37   39 am   BACKBONE|DICT|INTERRES
    75   39   40 1    
    76   39   95 1    
    77   40   41 1    
    78   40   42 1    
    79   40   96 1    
    80   41   97 1    
    81   41   98 1    
    82   41   99 1    
    83   42   43 2    
    84   42   44 am   BACKBONE|DICT|INTERRES
    85   44   45 1    
    86   44  100 1    
    87   45   46 1    
    88   45   47 1    
    89   45  101 1    
    90   46  102 1    
    91   46  103 1    
    92   46  104 1    
    93   47   48 2    
    94   47   49 am   BACKBONE|DICT|INTERRES
    95   49   50 1    
    96   49  105 1    
    97   50   51 1    
    98   50   52 1    
    99   50  106 1    
   100   51  107 1    
   101   51  108 1    
   102   51  109 1    
   103   52   53 2    
   104   52   54 am   BACKBONE|DICT|INTERRES
   105   54   55 1    
   106   54  110 1    
   107   55   56 1    
   108   55   59 1    
   109   55  111 1    
   110   56   57 am   BACKBONE|DICT|INTERRES
   111   56   58 2    
   112   57  112 1    
   113   57  113 1    
   114   59   60 1    
   115   59  114 1    
   116   59  115 1    
   117   60   61 1    
   118   61  116 1    
   119   61  117 1    
@<TRIPOS>SUBSTRUCTURE
     1 UNK         1 GROUP             0       ****    0 ROOT    
