@<TRIPOS>MOLECULE
3R8
117   119    1
SMALL
USER_CHARGES


@<TRIPOS>ATOM
      1 CA         13.2566  -28.6575  -41.1010 C.3       0 UNK        -0.2013 
      2 C          14.0878  -27.5304  -41.6953 C.2       0 UNK         0.4866 
      3 O          13.6426  -26.3821  -41.7085 O.2       0 UNK        -0.5176 
      4 N          15.2908  -27.8467  -42.1801 N.am      1 UNK        -0.4884 
      5 CA         16.2419  -26.9098  -42.7788 C.3       1 UNK         0.0853 
      6 C6         15.8531  -26.4212  -44.2096 C.3       10 UNK        -0.0849 
      7 S7         15.1005  -27.6577  -45.3270 S.3       10 UNK        -0.2776 
      8 C8         16.5271  -28.2939  -46.2741 C.3       10 UNK         0.0316 
      9 C9         17.2607  -29.4511  -45.5986 C.ar      10 UNK        -0.0863 
     10 C10        16.5801  -30.3984  -44.8270 C.ar      10 UNK        -0.1009 
     11 C11        17.2673  -31.4441  -44.2083 C.ar      10 UNK        -0.0712 
     12 C12        18.6446  -31.5759  -44.4078 C.ar      10 UNK        -0.0894 
     13 C13        19.3399  -30.6643  -45.2102 C.ar      10 UNK        -0.0745 
     14 C14        18.6386  -29.5936  -45.7837 C.ar      10 UNK        -0.0972 
     15 C15        20.8448  -30.8531  -45.4129 C.3       10 UNK         0.0209 
     16 S16        21.4913  -30.1376  -46.9681 S.3       10 UNK        -0.2568 
     17 C17        22.9273  -29.1793  -46.3834 C.3       10 UNK        -0.0983 
     18 CA         22.5567  -27.7376  -45.9497 C.3       3 UNK         0.0876 
     19 N          21.7260  -27.7369  -44.7467 N.am      3 UNK        -0.4424 
     20 C          20.6859  -26.9400  -44.5030 C.2       2 UNK         0.4918 
     21 O          20.2307  -26.1139  -45.2974 O.2       2 UNK        -0.4875 
     22 CA         20.0715  -27.0911  -43.1085 C.3       2 UNK         0.0481 
     23 CB         20.7960  -26.1910  -42.0947 C.3       2 UNK        -0.1831 
     24 N          18.6569  -26.7363  -43.1450 N.am      2 UNK        -0.4498 
     25 C          17.6637  -27.4894  -42.6576 C.2       1 UNK         0.5027 
     26 O          17.8393  -28.5711  -42.0878 O.2       1 UNK        -0.4969 
     27 C          23.8358  -26.9168  -45.6948 C.2       3 UNK         0.5005 
     28 O          24.3436  -26.2854  -46.6231 O.2       3 UNK        -0.5279 
     29 N          24.3300  -26.9300  -44.4497 N.am      4 UNK        -0.4463 
     30 CA         25.5037  -26.2052  -43.9728 C.3       4 UNK         0.0283 
     31 CB         26.7942  -26.9234  -44.4185 C.3       4 UNK        -0.1875 
     32 C          25.4162  -26.1092  -42.4447 C.2       4 UNK         0.4949 
     33 O          24.5221  -26.7064  -41.8420 O.2       4 UNK        -0.5039 
     34 N          26.3700  -25.3980  -41.8305 N.am      5 UNK        -0.4663 
     35 CA         26.4573  -25.1794  -40.3786 C.3       5 UNK         0.0242 
     36 CB         27.6283  -24.2261  -40.0874 C.3       5 UNK        -0.1982 
     37 C          26.5844  -26.4601  -39.5267 C.2       5 UNK         0.5017 
     38 O          26.2823  -26.4145  -38.3336 O.2       5 UNK        -0.5012 
     39 N          27.0169  -27.5658  -40.1460 N.am      6 UNK        -0.4439 
     40 CA         27.1373  -28.8906  -39.5380 C.3       6 UNK         0.0297 
     41 CB         28.6251  -29.1866  -39.2667 C.3       6 UNK        -0.2006 
     42 C          26.4667  -29.9779  -40.4005 C.2       6 UNK         0.4892 
     43 O          26.8789  -31.1368  -40.3248 O.2       6 UNK        -0.5089 
     44 N          25.4550  -29.6115  -41.2018 N.am      7 UNK        -0.4243 
     45 CA         24.6955  -30.5388  -42.0401 C.3       7 UNK         0.0196 
     46 CB         25.2943  -30.5840  -43.4573 C.3       7 UNK        -0.2007 
     47 C          23.2307  -30.0968  -42.0537 C.2       7 UNK         0.5020 
     48 O          22.9036  -29.1022  -42.7011 O.2       7 UNK        -0.5147 
     49 N          22.3780  -30.8338  -41.3399 N.am      8 UNK        -0.4734 
     50 CA         20.9418  -30.5958  -41.2050 C.3       8 UNK         0.0238 
     51 CB         20.6924  -29.5258  -40.1230 C.3       8 UNK        -0.1912 
     52 C          20.2469  -31.9264  -40.8832 C.2       8 UNK         0.5038 
     53 O          20.9148  -32.9641  -40.8433 O.2       8 UNK        -0.5046 
     54 N          18.9252  -31.8810  -40.6714 N.am      9 UNK        -0.4200 
     55 CA         18.0769  -33.0588  -40.4083 C.3       9 UNK         0.0839 
     56 C          18.3976  -33.8470  -39.1034 C.2       9 UNK         0.5513 
     57 N          19.0976  -33.2707  -38.1337 N.am      9 UNK        -0.7519 
     58 O          17.9970  -35.0006  -38.9707 O.2       9 UNK        -0.4960 
     59 C59        16.5562  -32.7337  -40.4631 C.3       10 UNK        -0.0876 
     60 S60        16.0301  -31.5685  -41.7651 S.3       10 UNK        -0.2414 
     61 C61        16.5111  -32.4075  -43.3075 C.3       10 UNK         0.0169 
     62 H62        13.7622  -29.6197  -41.1752 H         1 UNK         0.0903 
     63 H63        13.0542  -28.4609  -40.0487 H         1 UNK         0.0903 
     64 H64        12.3038  -28.7360  -41.6236 H         1 UNK         0.0903 
     65 H65        15.6542  -28.7905  -42.1031 H         1 UNK         0.3096 
     66 H66        16.2618  -26.0289  -42.1326 H         1 UNK         0.1121 
     67 H67        16.6823  -25.9286  -44.7188 H         1 UNK         0.0849 
     68 H68        15.1031  -25.6366  -44.0980 H         1 UNK         0.0849 
     69 H69        16.1649  -28.6464  -47.2405 H         1 UNK         0.0865 
     70 H70        17.2136  -27.4729  -46.4872 H         1 UNK         0.0865 
     71 H71        15.5130  -30.3126  -44.6768 H         1 UNK         0.1346 
     72 H72        19.1766  -32.3900  -43.9347 H         1 UNK         0.1412 
     73 H73        19.1614  -28.8641  -46.3859 H         1 UNK         0.1426 
     74 H74        21.0858  -31.9172  -45.4138 H         1 UNK         0.0716 
     75 H75        21.3615  -30.4288  -44.5539 H         1 UNK         0.0716 
     76 H76        23.6440  -29.1538  -47.2067 H         1 UNK         0.0695 
     77 H77        23.4186  -29.7219  -45.5748 H         1 UNK         0.0695 
     78 H78        22.0179  -27.2555  -46.7686 H         1 UNK         0.0983 
     79 H79        22.0526  -28.3402  -43.9907 H         1 UNK         0.3095 
     80 H80        20.1917  -28.1299  -42.8029 H         1 UNK         0.0454 
     81 H81        21.8483  -26.4651  -42.0127 H         1 UNK         0.0851 
     82 H82        20.3613  -26.2860  -41.0998 H         1 UNK         0.0851 
     83 H83        20.7522  -25.1398  -42.3815 H         1 UNK         0.0851 
     84 H84        18.4431  -25.8856  -43.6473 H         1 UNK         0.2976 
     85 H85        23.8413  -27.4376  -43.7162 H         1 UNK         0.3116 
     86 H86        25.4841  -25.1921  -44.3794 H         1 UNK         0.0646 
     87 H87        27.6809  -26.3513  -44.1445 H         1 UNK         0.0847 
     88 H88        26.8900  -27.9083  -43.9613 H         1 UNK         0.0847 
     89 H89        26.8269  -27.0547  -45.5001 H         1 UNK         0.0847 
     90 H90        27.0739  -24.9432  -42.3950 H         1 UNK         0.3040 
     91 H91        25.5317  -24.6894  -40.0681 H         1 UNK         0.1015 
     92 H92        27.7048  -24.0141  -39.0198 H         1 UNK         0.0786 
     93 H93        27.4992  -23.2700  -40.5951 H         1 UNK         0.0786 
     94 H94        28.5820  -24.6505  -40.4039 H         1 UNK         0.0786 
     95 H95        27.2381  -27.5004  -41.1295 H         1 UNK         0.3172 
     96 H96        26.6109  -28.9097  -38.5817 H         1 UNK         0.0595 
     97 H97        29.1998  -29.2388  -40.1921 H         1 UNK         0.0839 
     98 H98        28.7510  -30.1381  -38.7484 H         1 UNK         0.0839 
     99 H99        29.0730  -28.4181  -38.6365 H         1 UNK         0.0839 
    100 H100       25.1205  -28.6521  -41.1946 H         1 UNK         0.2998 
    101 H101       24.7414  -31.5466  -41.6210 H         1 UNK         0.0822 
    102 H102       24.7416  -31.2795  -44.0899 H         1 UNK         0.0787 
    103 H103       25.2659  -29.6087  -43.9410 H         1 UNK         0.0787 
    104 H104       26.3319  -30.9175  -43.4381 H         1 UNK         0.0787 
    105 H105       22.6955  -31.6867  -40.8949 H         1 UNK         0.3055 
    106 H106       20.5424  -30.2550  -42.1613 H         1 UNK         0.1106 
    107 H107       21.2372  -28.6076  -40.3413 H         1 UNK         0.0828 
    108 H108       19.6370  -29.2590  -40.0604 H         1 UNK         0.0828 
    109 H109       21.0062  -29.8701  -39.1370 H         1 UNK         0.0828 
    110 H110       18.4385  -30.9987  -40.7545 H         1 UNK         0.2931 
    111 H111       18.2875  -33.7570  -41.2197 H         1 UNK         0.0412 
    112 H112       19.3004  -33.7903  -37.2940 H         1 UNK         0.3472 
    113 H113       19.4291  -32.3252  -38.2355 H         1 UNK         0.3472 
    114 H114       15.9804  -33.6544  -40.5754 H         1 UNK         0.0970 
    115 H115       16.2336  -32.2976  -39.5155 H         1 UNK         0.0970 
    116 H116       17.1099  -33.2944  -43.1030 H         1 UNK         0.0612 
    117 H117       15.6119  -32.7574  -43.8164 H         1 UNK         0.0612 
@<TRIPOS>BOND
     1    1    2 1    
     2    1   62 1    
     3    1   63 1    
     4    1   64 1    
     5    2    3 2    
     6    2    4 am   BACKBONE|DICT|INTERRES
     7    4    5 1    
     8    4   65 1    
     9    5    6 1    
    10    5   25 1    
    11    5   66 1    
    12    6    7 1    
    13    6   67 1    
    14    6   68 1    
    15    7    8 1    
    16    8    9 1    
    17    8   69 1    
    18    8   70 1    
    19    9   10 ar   
    20    9   14 ar   
    21   10   11 ar   
    22   10   71 1    
    23   11   12 ar   
    24   11   61 1    
    25   12   13 ar   
    26   12   72 1    
    27   13   14 ar   
    28   13   15 1    
    29   14   73 1    
    30   15   16 1    
    31   15   74 1    
    32   15   75 1    
    33   16   17 1    
    34   17   18 1    
    35   17   76 1    
    36   17   77 1    
    37   18   19 1    
    38   18   27 1    
    39   18   78 1    
    40   19   20 am   BACKBONE|DICT|INTERRES
    41   19   79 1    
    42   20   21 2    
    43   20   22 1    
    44   22   23 1    
    45   22   24 1    
    46   22   80 1    
    47   23   81 1    
    48   23   82 1    
    49   23   83 1    
    50   24   25 am   BACKBONE|DICT|INTERRES
    51   24   84 1    
    52   25   26 2    
    53   27   28 2    
    54   27   29 am   BACKBONE|DICT|INTERRES
    55   29   30 1    
    56   29   85 1    
    57   30   31 1    
    58   30   32 1    
    59   30   86 1    
    60   31   87 1    
    61   31   88 1    
    62   31   89 1    
    63   32   33 2    
    64   32   34 am   BACKBONE|DICT|INTERRES
    65   34   35 1    
    66   34   90 1    
    67   35   36 1    
    68   35   37 1    
    69   35   91 1    
    70   36   92 1    
    71   36   93 1    
    72   36   94 1    
    73   37   38 2    
    74   37   39 am   BACKBONE|DICT|INTERRES
    75   39   40 1    
    76   39   95 1    
    77   40   41 1    
    78   40   42 1    
    79   40   96 1    
    80   41   97 1    
    81   41   98 1    
    82   41   99 1    
    83   42   43 2    
    84   42   44 am   BACKBONE|DICT|INTERRES
    85   44   45 1    
    86   44  100 1    
    87   45   46 1    
    88   45   47 1    
    89   45  101 1    
    90   46  102 1    
    91   46  103 1    
    92   46  104 1    
    93   47   48 2    
    94   47   49 am   BACKBONE|DICT|INTERRES
    95   49   50 1    
    96   49  105 1    
    97   50   51 1    
    98   50   52 1    
    99   50  106 1    
   100   51  107 1    
   101   51  108 1    
   102   51  109 1    
   103   52   53 2    
   104   52   54 am   BACKBONE|DICT|INTERRES
   105   54   55 1    
   106   54  110 1    
   107   55   56 1    
   108   55   59 1    
   109   55  111 1    
   110   56   57 am   BACKBONE|DICT|INTERRES
   111   56   58 2    
   112   57  112 1    
   113   57  113 1    
   114   59   60 1    
   115   59  114 1    
   116   59  115 1    
   117   60   61 1    
   118   61  116 1    
   119   61  117 1    
@<TRIPOS>SUBSTRUCTURE
     1 UNK         1 GROUP             0       ****    0 ROOT    
