@<TRIPOS>MOLECULE
3R8
117   119    1
SMALL
USER_CHARGES


@<TRIPOS>ATOM
      1 CA         24.4988  -25.4411  -44.8395 C.3       0 UNK        -0.2013 
      2 C          23.1921  -25.6565  -45.5870 C.2       0 UNK         0.4866 
      3 O          22.9217  -24.9577  -46.5638 O.2       0 UNK        -0.5176 
      4 N          22.3810  -26.6135  -45.1167 N.am      1 UNK        -0.4884 
      5 CA         21.0455  -26.9624  -45.6267 C.3       1 UNK         0.0853 
      6 C6         21.0359  -27.5340  -47.0680 C.3       10 UNK        -0.0849 
      7 S7         21.9302  -29.1229  -47.1394 S.3       10 UNK        -0.2776 
      8 C8         20.5637  -30.3179  -47.3128 C.3       10 UNK         0.0316 
      9 C9         19.6863  -30.4154  -46.0684 C.ar      10 UNK        -0.0863 
     10 C10        20.1684  -31.0401  -44.9140 C.ar      10 UNK        -0.1009 
     11 C11        19.3459  -31.2022  -43.7936 C.ar      10 UNK        -0.0712 
     12 C12        18.0269  -30.7429  -43.8377 C.ar      10 UNK        -0.0894 
     13 C13        17.5389  -30.0926  -44.9750 C.ar      10 UNK        -0.0745 
     14 C14        18.3735  -29.9319  -46.0867 C.ar      10 UNK        -0.0972 
     15 C15        16.1017  -29.5906  -45.0201 C.3       10 UNK         0.0209 
     16 S16        15.9938  -27.7991  -44.7088 S.3       10 UNK        -0.2568 
     17 C17        15.9635  -27.7062  -42.8835 C.3       10 UNK        -0.0983 
     18 CA         17.3742  -27.5875  -42.2525 C.3       3 UNK         0.0876 
     19 N          18.2232  -26.5320  -42.8208 N.am      3 UNK        -0.4424 
     20 C          17.9955  -25.2146  -42.9289 C.2       2 UNK         0.4918 
     21 O          16.9979  -24.6546  -42.4763 O.2       2 UNK        -0.4875 
     22 CA         19.1035  -24.3726  -43.5929 C.3       2 UNK         0.0481 
     23 CB         19.7668  -23.4478  -42.5586 C.3       2 UNK        -0.1831 
     24 N          20.1342  -25.2218  -44.1926 N.am      2 UNK        -0.4498 
     25 C          20.0333  -25.8257  -45.3857 C.2       1 UNK         0.5027 
     26 O          19.1700  -25.5571  -46.2225 O.2       1 UNK        -0.4969 
     27 C          17.3326  -27.5607  -40.7129 C.2       3 UNK         0.5005 
     28 O          17.2643  -28.6211  -40.0909 O.2       3 UNK        -0.5279 
     29 N          17.4688  -26.3667  -40.1224 N.am      4 UNK        -0.4463 
     30 CA         17.8917  -26.1639  -38.7371 C.3       4 UNK         0.0283 
     31 CB         17.5978  -24.7116  -38.3286 C.3       4 UNK        -0.1875 
     32 C          19.3866  -26.4878  -38.5351 C.2       4 UNK         0.4949 
     33 O          19.7888  -26.7664  -37.4055 O.2       4 UNK        -0.5039 
     34 N          20.1783  -26.4503  -39.6177 N.am      5 UNK        -0.4663 
     35 CA         21.5990  -26.7789  -39.6379 C.3       5 UNK         0.0242 
     36 CB         22.4249  -25.5664  -39.1709 C.3       5 UNK        -0.1982 
     37 C          22.0207  -27.2018  -41.0509 C.2       5 UNK         0.5017 
     38 O          21.4968  -26.6715  -42.0367 O.2       5 UNK        -0.5012 
     39 N          22.9962  -28.1129  -41.1014 N.am      6 UNK        -0.4439 
     40 CA         23.7370  -28.6172  -42.2548 C.3       6 UNK         0.0297 
     41 CB         22.8272  -29.3384  -43.2731 C.3       6 UNK        -0.2006 
     42 C          24.7664  -29.6099  -41.7014 C.2       6 UNK         0.4892 
     43 O          24.6159  -30.0735  -40.5670 O.2       6 UNK        -0.5089 
     44 N          25.7542  -29.9738  -42.5276 N.am      7 UNK        -0.4243 
     45 CA         26.7170  -31.0388  -42.2211 C.3       7 UNK         0.0196 
     46 CB         27.8714  -30.9897  -43.2352 C.3       7 UNK        -0.2007 
     47 C          26.0744  -32.4398  -42.2021 C.2       7 UNK         0.5020 
     48 O          26.5538  -33.3176  -41.4850 O.2       7 UNK        -0.5147 
     49 N          25.0048  -32.6208  -42.9892 N.am      8 UNK        -0.4734 
     50 CA         24.2497  -33.8705  -43.1014 C.3       8 UNK         0.0238 
     51 CB         23.6035  -33.9300  -44.4964 C.3       8 UNK        -0.1912 
     52 C          23.1760  -34.0484  -42.0121 C.2       8 UNK         0.5038 
     53 O          22.6819  -35.1656  -41.8529 O.2       8 UNK        -0.5046 
     54 N          22.7999  -32.9666  -41.3146 N.am      9 UNK        -0.4200 
     55 CA         21.7654  -32.9817  -40.2683 C.3       9 UNK         0.0839 
     56 C          22.2691  -33.6731  -38.9715 C.2       9 UNK         0.5513 
     57 N          21.3840  -34.3385  -38.2420 N.am      9 UNK        -0.7519 
     58 O          23.4368  -33.5776  -38.5993 O.2       9 UNK        -0.4960 
     59 C59        21.2304  -31.5573  -39.9547 C.3       10 UNK        -0.0876 
     60 S60        20.3503  -30.6507  -41.2841 S.3       10 UNK        -0.2414 
     61 C61        19.8773  -31.8834  -42.5412 C.3       10 UNK         0.0169 
     62 H62        24.3700  -25.5857  -43.7672 H         1 UNK         0.0903 
     63 H63        25.2582  -26.1356  -45.1978 H         1 UNK         0.0903 
     64 H64        24.8648  -24.4264  -44.9953 H         1 UNK         0.0903 
     65 H65        22.6590  -27.1196  -44.2875 H         1 UNK         0.3096 
     66 H66        20.6791  -27.7645  -44.9850 H         1 UNK         0.1121 
     67 H67        20.0152  -27.6922  -47.4205 H         1 UNK         0.0849 
     68 H68        21.4902  -26.8353  -47.7714 H         1 UNK         0.0849 
     69 H69        20.9881  -31.3011  -47.5213 H         1 UNK         0.0865 
     70 H70        19.9680  -30.0593  -48.1897 H         1 UNK         0.0865 
     71 H71        21.1844  -31.4080  -44.8948 H         1 UNK         0.1346 
     72 H72        17.3863  -30.8780  -42.9766 H         1 UNK         0.1412 
     73 H73        17.9900  -29.4452  -46.9733 H         1 UNK         0.1426 
     74 H74        15.4753  -30.1336  -44.3109 H         1 UNK         0.0716 
     75 H75        15.6830  -29.7956  -46.0065 H         1 UNK         0.0716 
     76 H76        15.4429  -28.5820  -42.4923 H         1 UNK         0.0695 
     77 H77        15.3520  -26.8463  -42.6054 H         1 UNK         0.0695 
     78 H78        17.9111  -28.5037  -42.4883 H         1 UNK         0.0983 
     79 H79        19.1093  -26.8613  -43.1731 H         1 UNK         0.3095 
     80 H80        18.6415  -23.7564  -44.3668 H         1 UNK         0.0454 
     81 H81        20.5289  -22.8206  -43.0212 H         1 UNK         0.0851 
     82 H82        20.2416  -24.0112  -41.7541 H         1 UNK         0.0851 
     83 H83        19.0346  -22.7803  -42.1023 H         1 UNK         0.0851 
     84 H84        20.8773  -25.5256  -43.5694 H         1 UNK         0.2976 
     85 H85        17.4228  -25.5477  -40.7197 H         1 UNK         0.3116 
     86 H86        17.3132  -26.8296  -38.0930 H         1 UNK         0.0646 
     87 H87        17.8794  -24.5349  -37.2896 H         1 UNK         0.0847 
     88 H88        16.5362  -24.4806  -38.4186 H         1 UNK         0.0847 
     89 H89        18.1506  -23.9984  -38.9415 H         1 UNK         0.0847 
     90 H90        19.7784  -26.2510  -40.5234 H         1 UNK         0.3040 
     91 H91        21.7723  -27.6183  -38.9601 H         1 UNK         0.1015 
     92 H92        22.2595  -24.6985  -39.8106 H         1 UNK         0.0786 
     93 H93        23.4929  -25.7877  -39.1892 H         1 UNK         0.0786 
     94 H94        22.1730  -25.2815  -38.1493 H         1 UNK         0.0786 
     95 H95        23.3451  -28.5118  -40.2362 H         1 UNK         0.3172 
     96 H96        24.2519  -27.7788  -42.7252 H         1 UNK         0.0595 
     97 H97        22.6338  -30.3712  -42.9844 H         1 UNK         0.0839 
     98 H98        23.2933  -29.3723  -44.2583 H         1 UNK         0.0839 
     99 H99        21.8560  -28.8637  -43.3861 H         1 UNK         0.0839 
    100 H100       25.8215  -29.5446  -43.4397 H         1 UNK         0.2998 
    101 H101       27.1275  -30.8526  -41.2259 H         1 UNK         0.0822 
    102 H102       27.5227  -31.1580  -44.2550 H         1 UNK         0.0787 
    103 H103       28.3829  -30.0273  -43.2084 H         1 UNK         0.0787 
    104 H104       28.6158  -31.7563  -43.0150 H         1 UNK         0.0787 
    105 H105       24.6986  -31.8494  -43.5632 H         1 UNK         0.3055 
    106 H106       24.9407  -34.7121  -43.0106 H         1 UNK         0.1106 
    107 H107       23.0557  -34.8634  -44.6347 H         1 UNK         0.0828 
    108 H108       22.8979  -33.1137  -44.6517 H         1 UNK         0.0828 
    109 H109       24.3549  -33.8800  -45.2847 H         1 UNK         0.0828 
    110 H110       23.3033  -32.1013  -41.4385 H         1 UNK         0.2931 
    111 H111       20.9287  -33.5770  -40.6387 H         1 UNK         0.0412 
    112 H112       21.6865  -34.7818  -37.3882 H         1 UNK         0.3472 
    113 H113       20.4212  -34.4173  -38.5318 H         1 UNK         0.3472 
    114 H114       20.5343  -31.6037  -39.1149 H         1 UNK         0.0970 
    115 H115       22.0507  -30.9229  -39.6138 H         1 UNK         0.0970 
    116 H116       19.1211  -32.5519  -42.1275 H         1 UNK         0.0612 
    117 H117       20.7279  -32.5037  -42.8150 H         1 UNK         0.0612 
@<TRIPOS>BOND
     1    1    2 1    
     2    1   62 1    
     3    1   63 1    
     4    1   64 1    
     5    2    3 2    
     6    2    4 am   BACKBONE|DICT|INTERRES
     7    4    5 1    
     8    4   65 1    
     9    5    6 1    
    10    5   25 1    
    11    5   66 1    
    12    6    7 1    
    13    6   67 1    
    14    6   68 1    
    15    7    8 1    
    16    8    9 1    
    17    8   69 1    
    18    8   70 1    
    19    9   10 ar   
    20    9   14 ar   
    21   10   11 ar   
    22   10   71 1    
    23   11   12 ar   
    24   11   61 1    
    25   12   13 ar   
    26   12   72 1    
    27   13   14 ar   
    28   13   15 1    
    29   14   73 1    
    30   15   16 1    
    31   15   74 1    
    32   15   75 1    
    33   16   17 1    
    34   17   18 1    
    35   17   76 1    
    36   17   77 1    
    37   18   19 1    
    38   18   27 1    
    39   18   78 1    
    40   19   20 am   BACKBONE|DICT|INTERRES
    41   19   79 1    
    42   20   21 2    
    43   20   22 1    
    44   22   23 1    
    45   22   24 1    
    46   22   80 1    
    47   23   81 1    
    48   23   82 1    
    49   23   83 1    
    50   24   25 am   BACKBONE|DICT|INTERRES
    51   24   84 1    
    52   25   26 2    
    53   27   28 2    
    54   27   29 am   BACKBONE|DICT|INTERRES
    55   29   30 1    
    56   29   85 1    
    57   30   31 1    
    58   30   32 1    
    59   30   86 1    
    60   31   87 1    
    61   31   88 1    
    62   31   89 1    
    63   32   33 2    
    64   32   34 am   BACKBONE|DICT|INTERRES
    65   34   35 1    
    66   34   90 1    
    67   35   36 1    
    68   35   37 1    
    69   35   91 1    
    70   36   92 1    
    71   36   93 1    
    72   36   94 1    
    73   37   38 2    
    74   37   39 am   BACKBONE|DICT|INTERRES
    75   39   40 1    
    76   39   95 1    
    77   40   41 1    
    78   40   42 1    
    79   40   96 1    
    80   41   97 1    
    81   41   98 1    
    82   41   99 1    
    83   42   43 2    
    84   42   44 am   BACKBONE|DICT|INTERRES
    85   44   45 1    
    86   44  100 1    
    87   45   46 1    
    88   45   47 1    
    89   45  101 1    
    90   46  102 1    
    91   46  103 1    
    92   46  104 1    
    93   47   48 2    
    94   47   49 am   BACKBONE|DICT|INTERRES
    95   49   50 1    
    96   49  105 1    
    97   50   51 1    
    98   50   52 1    
    99   50  106 1    
   100   51  107 1    
   101   51  108 1    
   102   51  109 1    
   103   52   53 2    
   104   52   54 am   BACKBONE|DICT|INTERRES
   105   54   55 1    
   106   54  110 1    
   107   55   56 1    
   108   55   59 1    
   109   55  111 1    
   110   56   57 am   BACKBONE|DICT|INTERRES
   111   56   58 2    
   112   57  112 1    
   113   57  113 1    
   114   59   60 1    
   115   59  114 1    
   116   59  115 1    
   117   60   61 1    
   118   61  116 1    
   119   61  117 1    
@<TRIPOS>SUBSTRUCTURE
     1 UNK         1 GROUP             0       ****    0 ROOT    
