@<TRIPOS>MOLECULE
3R8
117   119    1
SMALL
USER_CHARGES


@<TRIPOS>ATOM
      1 CA         15.8594  -24.9635  -45.5459 C.3       0 UNK        -0.2013 
      2 C          17.2388  -25.5888  -45.4086 C.2       0 UNK         0.4866 
      3 O          17.6511  -25.9124  -44.2933 O.2       0 UNK        -0.5176 
      4 N          17.9471  -25.7698  -46.5351 N.am      1 UNK        -0.4884 
      5 CA         19.2988  -26.3428  -46.6305 C.3       1 UNK         0.0853 
      6 C6         19.3258  -27.8699  -46.3074 C.3       10 UNK        -0.0849 
      7 S7         18.4328  -28.8896  -47.5261 S.3       10 UNK        -0.2776 
      8 C8         16.7770  -29.0768  -46.7854 C.3       10 UNK         0.0316 
      9 C9         16.7634  -29.8894  -45.4950 C.ar      10 UNK        -0.0863 
     10 C10        17.0116  -31.2665  -45.5226 C.ar      10 UNK        -0.1009 
     11 C11        16.8947  -32.0345  -44.3586 C.ar      10 UNK        -0.0712 
     12 C12        16.5295  -31.4133  -43.1610 C.ar      10 UNK        -0.0894 
     13 C13        16.2861  -30.0380  -43.1171 C.ar      10 UNK        -0.0745 
     14 C14        16.4146  -29.2795  -44.2846 C.ar      10 UNK        -0.0972 
     15 C15        15.8112  -29.3945  -41.8219 C.3       10 UNK         0.0209 
     16 S16        17.1544  -29.1898  -40.6121 S.3       10 UNK        -0.2568 
     17 C17        17.9814  -27.6762  -41.2105 C.3       10 UNK        -0.0983 
     18 CA         19.5042  -27.8685  -41.4208 C.3       3 UNK         0.0876 
     19 N          20.0587  -26.7995  -42.2661 N.am      3 UNK        -0.4424 
     20 C          21.3458  -26.4566  -42.4617 C.2       2 UNK         0.4918 
     21 O          22.3043  -26.8969  -41.8253 O.2       2 UNK        -0.4875 
     22 CA         21.6046  -25.5369  -43.6638 C.3       2 UNK         0.0481 
     23 CB         23.1009  -25.3430  -43.9750 C.3       2 UNK        -0.1831 
     24 N          20.9271  -26.1456  -44.8024 N.am      2 UNK        -0.4498 
     25 C          20.2792  -25.5013  -45.7759 C.2       1 UNK         0.5027 
     26 O          20.3806  -24.2896  -45.9819 O.2       1 UNK        -0.4969 
     27 C          20.2468  -28.0657  -40.0811 C.2       3 UNK         0.5005 
     28 O          20.0756  -27.2572  -39.1655 O.2       3 UNK        -0.5279 
     29 N          21.0816  -29.1152  -40.0214 N.am      4 UNK        -0.4463 
     30 CA         21.9271  -29.5351  -38.8946 C.3       4 UNK         0.0283 
     31 CB         21.0510  -30.0031  -37.7141 C.3       4 UNK        -0.1875 
     32 C          23.0053  -28.5231  -38.4425 C.2       4 UNK         0.4949 
     33 O          23.6692  -28.7765  -37.4359 O.2       4 UNK        -0.5039 
     34 N          23.1812  -27.4106  -39.1669 N.am      5 UNK        -0.4663 
     35 CA         24.1359  -26.3461  -38.8521 C.3       5 UNK         0.0242 
     36 CB         23.5021  -24.9848  -39.1832 C.3       5 UNK        -0.1982 
     37 C          25.4552  -26.5198  -39.6158 C.2       5 UNK         0.5017 
     38 O          26.5109  -26.1935  -39.0720 O.2       5 UNK        -0.5012 
     39 N          25.3782  -27.0295  -40.8504 N.am      6 UNK        -0.4439 
     40 CA         26.5198  -27.2991  -41.7192 C.3       6 UNK         0.0297 
     41 CB         26.8310  -26.0605  -42.5813 C.3       6 UNK        -0.2006 
     42 C          26.1757  -28.5352  -42.5520 C.2       6 UNK         0.4892 
     43 O          25.6395  -28.3963  -43.6524 O.2       6 UNK        -0.5089 
     44 N          26.4338  -29.7176  -41.9709 N.am      7 UNK        -0.4243 
     45 CA         26.0017  -31.0408  -42.4388 C.3       7 UNK         0.0196 
     46 CB         26.6950  -31.4240  -43.7676 C.3       7 UNK        -0.2007 
     47 C          24.4637  -31.0934  -42.4711 C.2       7 UNK         0.5020 
     48 O          23.8581  -30.9407  -41.4098 O.2       7 UNK        -0.5147 
     49 N          23.8757  -31.2635  -43.6661 N.am      8 UNK        -0.4734 
     50 CA         22.4600  -31.0551  -44.0034 C.3       8 UNK         0.0238 
     51 CB         22.2003  -29.5481  -44.1780 C.3       8 UNK        -0.1912 
     52 C          21.4788  -31.6971  -43.0079 C.2       8 UNK         0.5038 
     53 O          20.7459  -30.9878  -42.3153 O.2       8 UNK        -0.5046 
     54 N          21.5308  -33.0308  -42.9312 N.am      9 UNK        -0.4200 
     55 CA         20.6604  -33.8781  -42.0987 C.3       9 UNK         0.0839 
     56 C          20.9005  -33.7639  -40.5619 C.2       9 UNK         0.5513 
     57 N          21.9220  -33.0580  -40.0909 N.am      9 UNK        -0.7519 
     58 O          20.1686  -34.3644  -39.7792 O.2       9 UNK        -0.4960 
     59 C59        19.1541  -33.7490  -42.4739 C.3       10 UNK        -0.0876 
     60 S60        18.8443  -34.0233  -44.2546 S.3       10 UNK        -0.2414 
     61 C61        17.0964  -33.5436  -44.4068 C.3       10 UNK         0.0169 
     62 H62        15.6110  -24.7447  -46.5842 H         1 UNK         0.0903 
     63 H63        15.1016  -25.6393  -45.1505 H         1 UNK         0.0903 
     64 H64        15.8134  -24.0325  -44.9817 H         1 UNK         0.0903 
     65 H65        17.5585  -25.4536  -47.4128 H         1 UNK         0.3096 
     66 H66        19.6259  -26.2122  -47.6636 H         1 UNK         0.1121 
     67 H67        20.3522  -28.2390  -46.3303 H         1 UNK         0.0849 
     68 H68        18.9427  -28.0776  -45.3068 H         1 UNK         0.0849 
     69 H69        16.3355  -28.0928  -46.6304 H         1 UNK         0.0865 
     70 H70        16.1330  -29.5735  -47.5125 H         1 UNK         0.0865 
     71 H71        17.2694  -31.7452  -46.4577 H         1 UNK         0.1346 
     72 H72        16.4138  -32.0032  -42.2620 H         1 UNK         0.1412 
     73 H73        16.2042  -28.2194  -44.2566 H         1 UNK         0.1426 
     74 H74        15.0392  -30.0237  -41.3766 H         1 UNK         0.0716 
     75 H75        15.3369  -28.4304  -42.0129 H         1 UNK         0.0716 
     76 H76        17.7777  -26.8595  -40.5156 H         1 UNK         0.0695 
     77 H77        17.5149  -27.3849  -42.1510 H         1 UNK         0.0695 
     78 H78        19.6235  -28.7769  -42.0106 H         1 UNK         0.0983 
     79 H79        19.3719  -26.3440  -42.8565 H         1 UNK         0.3095 
     80 H80        21.1580  -24.5669  -43.4359 H         1 UNK         0.0454 
     81 H81        23.5960  -26.2930  -44.1820 H         1 UNK         0.0851 
     82 H82        23.6160  -24.8817  -43.1317 H         1 UNK         0.0851 
     83 H83        23.2458  -24.6942  -44.8385 H         1 UNK         0.0851 
     84 H84        20.7765  -27.1400  -44.7168 H         1 UNK         0.2976 
     85 H85        21.1419  -29.7145  -40.8423 H         1 UNK         0.3116 
     86 H86        22.4782  -30.4044  -39.2507 H         1 UNK         0.0646 
     87 H87        20.4977  -29.1760  -37.2685 H         1 UNK         0.0847 
     88 H88        21.6578  -30.4495  -36.9255 H         1 UNK         0.0847 
     89 H89        20.3311  -30.7576  -38.0312 H         1 UNK         0.0847 
     90 H90        22.6260  -27.2875  -40.0099 H         1 UNK         0.3040 
     91 H91        24.3650  -26.3594  -37.7840 H         1 UNK         0.1015 
     92 H92        23.2808  -24.8860  -40.2465 H         1 UNK         0.0786 
     93 H93        24.1720  -24.1674  -38.9129 H         1 UNK         0.0786 
     94 H94        22.5720  -24.8381  -38.6336 H         1 UNK         0.0786 
     95 H95        24.4660  -27.2745  -41.2210 H         1 UNK         0.3172 
     96 H96        27.4027  -27.5318  -41.1196 H         1 UNK         0.0595 
     97 H97        27.6596  -26.2595  -43.2618 H         1 UNK         0.0839 
     98 H98        27.1153  -25.2089  -41.9631 H         1 UNK         0.0839 
     99 H99        25.9759  -25.7618  -43.1876 H         1 UNK         0.0839 
    100 H100       26.8355  -29.7030  -41.0435 H         1 UNK         0.2998 
    101 H101       26.3163  -31.7606  -41.6815 H         1 UNK         0.0822 
    102 H102       26.4240  -32.4350  -44.0749 H         1 UNK         0.0787 
    103 H103       26.4413  -30.7480  -44.5846 H         1 UNK         0.0787 
    104 H104       27.7793  -31.4071  -43.6570 H         1 UNK         0.0787 
    105 H105       24.4899  -31.4039  -44.4561 H         1 UNK         0.3055 
    106 H106       22.2788  -31.5341  -44.9673 H         1 UNK         0.1106 
    107 H107       21.1465  -29.3519  -44.3745 H         1 UNK         0.0828 
    108 H108       22.4788  -29.0036  -43.2777 H         1 UNK         0.0828 
    109 H109       22.7771  -29.1364  -45.0062 H         1 UNK         0.0828 
    110 H110       22.2067  -33.5221  -43.4973 H         1 UNK         0.2931 
    111 H111       20.9589  -34.8986  -42.3410 H         1 UNK         0.0412 
    112 H112       22.0708  -33.0193  -39.0958 H         1 UNK         0.3472 
    113 H113       22.5111  -32.5175  -40.7114 H         1 UNK         0.3472 
    114 H114       18.7824  -32.7637  -42.1911 H         1 UNK         0.0970 
    115 H115       18.5568  -34.4717  -41.9153 H         1 UNK         0.0970 
    116 H116       16.5162  -34.0346  -43.6239 H         1 UNK         0.0612 
    117 H117       16.7128  -33.9293  -45.3525 H         1 UNK         0.0612 
@<TRIPOS>BOND
     1    1    2 1    
     2    1   62 1    
     3    1   63 1    
     4    1   64 1    
     5    2    3 2    
     6    2    4 am   BACKBONE|DICT|INTERRES
     7    4    5 1    
     8    4   65 1    
     9    5    6 1    
    10    5   25 1    
    11    5   66 1    
    12    6    7 1    
    13    6   67 1    
    14    6   68 1    
    15    7    8 1    
    16    8    9 1    
    17    8   69 1    
    18    8   70 1    
    19    9   10 ar   
    20    9   14 ar   
    21   10   11 ar   
    22   10   71 1    
    23   11   12 ar   
    24   11   61 1    
    25   12   13 ar   
    26   12   72 1    
    27   13   14 ar   
    28   13   15 1    
    29   14   73 1    
    30   15   16 1    
    31   15   74 1    
    32   15   75 1    
    33   16   17 1    
    34   17   18 1    
    35   17   76 1    
    36   17   77 1    
    37   18   19 1    
    38   18   27 1    
    39   18   78 1    
    40   19   20 am   BACKBONE|DICT|INTERRES
    41   19   79 1    
    42   20   21 2    
    43   20   22 1    
    44   22   23 1    
    45   22   24 1    
    46   22   80 1    
    47   23   81 1    
    48   23   82 1    
    49   23   83 1    
    50   24   25 am   BACKBONE|DICT|INTERRES
    51   24   84 1    
    52   25   26 2    
    53   27   28 2    
    54   27   29 am   BACKBONE|DICT|INTERRES
    55   29   30 1    
    56   29   85 1    
    57   30   31 1    
    58   30   32 1    
    59   30   86 1    
    60   31   87 1    
    61   31   88 1    
    62   31   89 1    
    63   32   33 2    
    64   32   34 am   BACKBONE|DICT|INTERRES
    65   34   35 1    
    66   34   90 1    
    67   35   36 1    
    68   35   37 1    
    69   35   91 1    
    70   36   92 1    
    71   36   93 1    
    72   36   94 1    
    73   37   38 2    
    74   37   39 am   BACKBONE|DICT|INTERRES
    75   39   40 1    
    76   39   95 1    
    77   40   41 1    
    78   40   42 1    
    79   40   96 1    
    80   41   97 1    
    81   41   98 1    
    82   41   99 1    
    83   42   43 2    
    84   42   44 am   BACKBONE|DICT|INTERRES
    85   44   45 1    
    86   44  100 1    
    87   45   46 1    
    88   45   47 1    
    89   45  101 1    
    90   46  102 1    
    91   46  103 1    
    92   46  104 1    
    93   47   48 2    
    94   47   49 am   BACKBONE|DICT|INTERRES
    95   49   50 1    
    96   49  105 1    
    97   50   51 1    
    98   50   52 1    
    99   50  106 1    
   100   51  107 1    
   101   51  108 1    
   102   51  109 1    
   103   52   53 2    
   104   52   54 am   BACKBONE|DICT|INTERRES
   105   54   55 1    
   106   54  110 1    
   107   55   56 1    
   108   55   59 1    
   109   55  111 1    
   110   56   57 am   BACKBONE|DICT|INTERRES
   111   56   58 2    
   112   57  112 1    
   113   57  113 1    
   114   59   60 1    
   115   59  114 1    
   116   59  115 1    
   117   60   61 1    
   118   61  116 1    
   119   61  117 1    
@<TRIPOS>SUBSTRUCTURE
     1 UNK         1 GROUP             0       ****    0 ROOT    
