@<TRIPOS>MOLECULE
3R8
117   119    1
SMALL
USER_CHARGES


@<TRIPOS>ATOM
      1 CA         15.0179  -24.3813  -40.7538 C.3       0 UNK        -0.2013 
      2 C          15.7054  -24.3900  -42.1109 C.2       0 UNK         0.4866 
      3 O          15.8769  -23.3325  -42.7185 O.2       0 UNK        -0.5176 
      4 N          16.0921  -25.5760  -42.5950 N.am      1 UNK        -0.4884 
      5 CA         16.8446  -25.7769  -43.8364 C.3       1 UNK         0.0853 
      6 C6         16.7826  -27.2494  -44.3286 C.3       10 UNK        -0.0849 
      7 S7         17.0307  -28.5103  -43.0237 S.3       10 UNK        -0.2776 
      8 C8         16.5210  -30.0355  -43.8850 C.3       10 UNK         0.0316 
      9 C9         17.7100  -30.7078  -44.5531 C.ar      10 UNK        -0.0863 
     10 C10        18.3824  -31.7489  -43.9049 C.ar      10 UNK        -0.1009 
     11 C11        19.5149  -32.3363  -44.4809 C.ar      10 UNK        -0.0712 
     12 C12        19.9865  -31.8502  -45.7030 C.ar      10 UNK        -0.0894 
     13 C13        19.3367  -30.7934  -46.3473 C.ar      10 UNK        -0.0745 
     14 C14        18.1732  -30.2555  -45.7911 C.ar      10 UNK        -0.0972 
     15 C15        19.9685  -30.1462  -47.5709 C.3       10 UNK         0.0209 
     16 S16        20.6426  -28.4847  -47.1967 S.3       10 UNK        -0.2568 
     17 C17        21.3512  -28.6972  -45.5204 C.3       10 UNK        -0.0983 
     18 CA         21.9554  -27.4095  -44.9133 C.3       3 UNK         0.0876 
     19 N          21.0400  -26.2701  -45.0234 N.am      3 UNK        -0.4424 
     20 C          21.3026  -25.0062  -44.6658 C.2       2 UNK         0.4918 
     21 O          22.3870  -24.6301  -44.2195 O.2       2 UNK        -0.4875 
     22 CA         20.1445  -23.9992  -44.7920 C.3       2 UNK         0.0481 
     23 CB         20.2866  -23.1858  -46.0880 C.3       2 UNK        -0.1831 
     24 N          18.8050  -24.6041  -44.7424 N.am      2 UNK        -0.4498 
     25 C          18.2963  -25.2721  -43.6948 C.2       1 UNK         0.5027 
     26 O          18.9335  -25.5134  -42.6670 O.2       1 UNK        -0.4969 
     27 C          22.3920  -27.6904  -43.4580 C.2       3 UNK         0.5005 
     28 O          23.4797  -28.2325  -43.2574 O.2       3 UNK        -0.5279 
     29 N          21.5680  -27.2917  -42.4715 N.am      4 UNK        -0.4463 
     30 CA         21.7951  -27.4681  -41.0318 C.3       4 UNK         0.0283 
     31 CB         20.5810  -26.9396  -40.2532 C.3       4 UNK        -0.1875 
     32 C          23.0953  -26.8416  -40.4963 C.2       4 UNK         0.4949 
     33 O          23.5747  -27.2678  -39.4460 O.2       4 UNK        -0.5039 
     34 N          23.6625  -25.8755  -41.2334 N.am      5 UNK        -0.4663 
     35 CA         24.9941  -25.3162  -40.9915 C.3       5 UNK         0.0242 
     36 CB         25.1867  -24.0806  -41.8851 C.3       5 UNK        -0.1982 
     37 C          26.1331  -26.3307  -41.2198 C.2       5 UNK         0.5017 
     38 O          27.1902  -26.1836  -40.6052 O.2       5 UNK        -0.5012 
     39 N          25.9033  -27.3316  -42.0824 N.am      6 UNK        -0.4439 
     40 CA         26.8107  -28.4497  -42.3316 C.3       6 UNK         0.0297 
     41 CB         26.8462  -28.7710  -43.8361 C.3       6 UNK        -0.2006 
     42 C          26.3782  -29.6727  -41.5106 C.2       6 UNK         0.4892 
     43 O          27.1872  -30.1930  -40.7413 O.2       6 UNK        -0.5089 
     44 N          25.1169  -30.0977  -41.6678 N.am      7 UNK        -0.4243 
     45 CA         24.5128  -31.2191  -40.9496 C.3       7 UNK         0.0196 
     46 CB         25.0431  -32.5653  -41.4819 C.3       7 UNK        -0.2007 
     47 C          22.9925  -31.1437  -41.1069 C.2       7 UNK         0.5020 
     48 O          22.5097  -31.0017  -42.2295 O.2       7 UNK        -0.5147 
     49 N          22.2638  -31.2523  -39.9895 N.am      8 UNK        -0.4734 
     50 CA         20.7969  -31.1837  -39.9555 C.3       8 UNK         0.0238 
     51 CB         20.3589  -30.5965  -38.6032 C.3       8 UNK        -0.1912 
     52 C          20.1073  -32.5374  -40.2075 C.2       8 UNK         0.5038 
     53 O          18.8986  -32.5432  -40.4365 O.2       8 UNK        -0.5046 
     54 N          20.8754  -33.6374  -40.1422 N.am      9 UNK        -0.4200 
     55 CA         20.4872  -35.0456  -40.3685 C.3       9 UNK         0.0839 
     56 C          19.2654  -35.5888  -39.5627 C.2       9 UNK         0.5513 
     57 N          18.8812  -34.9690  -38.4537 N.am      9 UNK        -0.7519 
     58 O          18.6880  -36.6153  -39.9125 O.2       9 UNK        -0.4960 
     59 C59        20.5176  -35.4690  -41.8694 C.3       10 UNK        -0.0876 
     60 S60        19.2715  -34.6830  -42.9491 S.3       10 UNK        -0.2414 
     61 C61        20.3065  -33.4161  -43.7515 C.3       10 UNK         0.0169 
     62 H62        14.0192  -23.9541  -40.8414 H         1 UNK         0.0903 
     63 H63        14.9224  -25.3846  -40.3389 H         1 UNK         0.0903 
     64 H64        15.5874  -23.7759  -40.0492 H         1 UNK         0.0903 
     65 H65        15.9627  -26.4130  -42.0431 H         1 UNK         0.3096 
     66 H66        16.3637  -25.1613  -44.6004 H         1 UNK         0.1121 
     67 H67        17.4990  -27.4202  -45.1336 H         1 UNK         0.0849 
     68 H68        15.8002  -27.4229  -44.7705 H         1 UNK         0.0849 
     69 H69        16.0710  -30.7126  -43.1571 H         1 UNK         0.0865 
     70 H70        15.7422  -29.8226  -44.6187 H         1 UNK         0.0865 
     71 H71        18.0405  -32.0842  -42.9351 H         1 UNK         0.1346 
     72 H72        20.8971  -32.2545  -46.1237 H         1 UNK         0.1412 
     73 H73        17.6778  -29.4322  -46.2860 H         1 UNK         0.1426 
     74 H74        19.2274  -30.0625  -48.3669 H         1 UNK         0.0716 
     75 H75        20.7730  -30.7699  -47.9637 H         1 UNK         0.0716 
     76 H76        22.1032  -29.4880  -45.5622 H         1 UNK         0.0695 
     77 H77        20.5637  -29.0580  -44.8565 H         1 UNK         0.0695 
     78 H78        22.8559  -27.1544  -45.4758 H         1 UNK         0.0983 
     79 H79        20.1309  -26.4779  -45.4081 H         1 UNK         0.3095 
     80 H80        20.2234  -23.3106  -43.9483 H         1 UNK         0.0454 
     81 H81        20.1894  -23.8149  -46.9737 H         1 UNK         0.0851 
     82 H82        21.2627  -22.7010  -46.1394 H         1 UNK         0.0851 
     83 H83        19.5349  -22.3987  -46.1489 H         1 UNK         0.0851 
     84 H84        18.2196  -24.4516  -45.5517 H         1 UNK         0.2976 
     85 H85        20.7059  -26.8229  -42.7269 H         1 UNK         0.3116 
     86 H86        21.8662  -28.5389  -40.8516 H         1 UNK         0.0646 
     87 H87        19.6623  -27.4407  -40.5600 H         1 UNK         0.0847 
     88 H88        20.4442  -25.8678  -40.4018 H         1 UNK         0.0847 
     89 H89        20.6986  -27.1071  -39.1818 H         1 UNK         0.0847 
     90 H90        23.1912  -25.5791  -42.0785 H         1 UNK         0.3040 
     91 H91        25.0436  -24.9996  -39.9473 H         1 UNK         0.1015 
     92 H92        26.1627  -23.6235  -41.7157 H         1 UNK         0.0786 
     93 H93        24.4333  -23.3201  -41.6788 H         1 UNK         0.0786 
     94 H94        25.1238  -24.3351  -42.9442 H         1 UNK         0.0786 
     95 H95        24.9804  -27.4109  -42.5037 H         1 UNK         0.3172 
     96 H96        27.8254  -28.1824  -42.0290 H         1 UNK         0.0595 
     97 H97        25.8645  -29.0448  -44.2238 H         1 UNK         0.0839 
     98 H98        27.5198  -29.6046  -44.0390 H         1 UNK         0.0839 
     99 H99        27.2046  -27.9179  -44.4122 H         1 UNK         0.0839 
    100 H100       24.4922  -29.6022  -42.3025 H         1 UNK         0.2998 
    101 H101       24.7660  -31.1275  -39.8911 H         1 UNK         0.0822 
    102 H102       26.1162  -32.6676  -41.3211 H         1 UNK         0.0787 
    103 H103       24.5616  -33.4033  -40.9766 H         1 UNK         0.0787 
    104 H104       24.8534  -32.6752  -42.5505 H         1 UNK         0.0787 
    105 H105       22.7349  -31.3616  -39.1018 H         1 UNK         0.3055 
    106 H106       20.4509  -30.5095  -40.7433 H         1 UNK         0.1106 
    107 H107       20.7908  -29.6087  -38.4415 H         1 UNK         0.0828 
    108 H108       20.6547  -31.2335  -37.7689 H         1 UNK         0.0828 
    109 H109       19.2746  -30.4837  -38.5591 H         1 UNK         0.0828 
    110 H110       21.8481  -33.4963  -39.9156 H         1 UNK         0.2931 
    111 H111       21.3141  -35.5938  -39.9154 H         1 UNK         0.0412 
    112 H112       19.3409  -34.1239  -38.1560 H         1 UNK         0.3472 
    113 H113       18.1018  -35.3335  -37.9286 H         1 UNK         0.3472 
    114 H114       21.5114  -35.2764  -42.2762 H         1 UNK         0.0970 
    115 H115       20.3911  -36.5498  -41.9533 H         1 UNK         0.0970 
    116 H116       20.9908  -33.9189  -44.4365 H         1 UNK         0.0612 
    117 H117       20.9252  -32.9289  -42.9999 H         1 UNK         0.0612 
@<TRIPOS>BOND
     1    1    2 1    
     2    1   62 1    
     3    1   63 1    
     4    1   64 1    
     5    2    3 2    
     6    2    4 am   BACKBONE|DICT|INTERRES
     7    4    5 1    
     8    4   65 1    
     9    5    6 1    
    10    5   25 1    
    11    5   66 1    
    12    6    7 1    
    13    6   67 1    
    14    6   68 1    
    15    7    8 1    
    16    8    9 1    
    17    8   69 1    
    18    8   70 1    
    19    9   10 ar   
    20    9   14 ar   
    21   10   11 ar   
    22   10   71 1    
    23   11   12 ar   
    24   11   61 1    
    25   12   13 ar   
    26   12   72 1    
    27   13   14 ar   
    28   13   15 1    
    29   14   73 1    
    30   15   16 1    
    31   15   74 1    
    32   15   75 1    
    33   16   17 1    
    34   17   18 1    
    35   17   76 1    
    36   17   77 1    
    37   18   19 1    
    38   18   27 1    
    39   18   78 1    
    40   19   20 am   BACKBONE|DICT|INTERRES
    41   19   79 1    
    42   20   21 2    
    43   20   22 1    
    44   22   23 1    
    45   22   24 1    
    46   22   80 1    
    47   23   81 1    
    48   23   82 1    
    49   23   83 1    
    50   24   25 am   BACKBONE|DICT|INTERRES
    51   24   84 1    
    52   25   26 2    
    53   27   28 2    
    54   27   29 am   BACKBONE|DICT|INTERRES
    55   29   30 1    
    56   29   85 1    
    57   30   31 1    
    58   30   32 1    
    59   30   86 1    
    60   31   87 1    
    61   31   88 1    
    62   31   89 1    
    63   32   33 2    
    64   32   34 am   BACKBONE|DICT|INTERRES
    65   34   35 1    
    66   34   90 1    
    67   35   36 1    
    68   35   37 1    
    69   35   91 1    
    70   36   92 1    
    71   36   93 1    
    72   36   94 1    
    73   37   38 2    
    74   37   39 am   BACKBONE|DICT|INTERRES
    75   39   40 1    
    76   39   95 1    
    77   40   41 1    
    78   40   42 1    
    79   40   96 1    
    80   41   97 1    
    81   41   98 1    
    82   41   99 1    
    83   42   43 2    
    84   42   44 am   BACKBONE|DICT|INTERRES
    85   44   45 1    
    86   44  100 1    
    87   45   46 1    
    88   45   47 1    
    89   45  101 1    
    90   46  102 1    
    91   46  103 1    
    92   46  104 1    
    93   47   48 2    
    94   47   49 am   BACKBONE|DICT|INTERRES
    95   49   50 1    
    96   49  105 1    
    97   50   51 1    
    98   50   52 1    
    99   50  106 1    
   100   51  107 1    
   101   51  108 1    
   102   51  109 1    
   103   52   53 2    
   104   52   54 am   BACKBONE|DICT|INTERRES
   105   54   55 1    
   106   54  110 1    
   107   55   56 1    
   108   55   59 1    
   109   55  111 1    
   110   56   57 am   BACKBONE|DICT|INTERRES
   111   56   58 2    
   112   57  112 1    
   113   57  113 1    
   114   59   60 1    
   115   59  114 1    
   116   59  115 1    
   117   60   61 1    
   118   61  116 1    
   119   61  117 1    
@<TRIPOS>SUBSTRUCTURE
     1 UNK         1 GROUP             0       ****    0 ROOT    
