@<TRIPOS>MOLECULE
3R8
117   119    1
SMALL
USER_CHARGES


@<TRIPOS>ATOM
      1 CA         15.6091  -21.5548  -44.1770 C.3       0 UNK        -0.2013 
      2 C          15.7877  -22.9417  -44.7760 C.2       0 UNK         0.4866 
      3 O          15.3045  -23.1989  -45.8787 O.2       0 UNK        -0.5176 
      4 N          16.4760  -23.8385  -44.0571 N.am      1 UNK        -0.4884 
      5 CA         16.7444  -25.2197  -44.4779 C.3       1 UNK         0.0853 
      6 C6         17.2477  -26.0908  -43.2970 C.3       10 UNK        -0.0849 
      7 S7         15.9008  -26.6278  -42.1870 S.3       10 UNK        -0.2776 
      8 C8         15.1158  -27.9969  -43.1146 C.3       10 UNK         0.0316 
      9 C9         16.1109  -29.0642  -43.5526 C.ar      10 UNK        -0.0863 
     10 C10        16.5402  -30.0490  -42.6589 C.ar      10 UNK        -0.1009 
     11 C11        17.4909  -30.9956  -43.0544 C.ar      10 UNK        -0.0712 
     12 C12        18.0119  -30.9538  -44.3516 C.ar      10 UNK        -0.0894 
     13 C13        17.6120  -29.9545  -45.2447 C.ar      10 UNK        -0.0745 
     14 C14        16.6316  -29.0409  -44.8496 C.ar      10 UNK        -0.0972 
     15 C15        18.2645  -29.8088  -46.6174 C.3       10 UNK         0.0209 
     16 S16        20.0960  -29.8598  -46.6009 S.3       10 UNK        -0.2568 
     17 C17        20.5883  -28.8775  -45.1400 C.3       10 UNK        -0.0983 
     18 CA         21.3807  -27.5939  -45.4915 C.3       3 UNK         0.0876 
     19 N          20.5061  -26.5604  -46.0504 N.am      3 UNK        -0.4424 
     20 C          20.8876  -25.3531  -46.4879 C.2       2 UNK         0.4918 
     21 O          22.0645  -25.0351  -46.6627 O.2       2 UNK        -0.4875 
     22 CA         19.7865  -24.2982  -46.7333 C.3       2 UNK         0.0481 
     23 CB         19.3084  -24.3214  -48.1984 C.3       2 UNK        -0.1831 
     24 N          18.6604  -24.3571  -45.7828 N.am      2 UNK        -0.4498 
     25 C          17.7317  -25.3176  -45.6583 C.2       1 UNK         0.5027 
     26 O          17.6680  -26.2949  -46.4025 O.2       1 UNK        -0.4969 
     27 C          22.0877  -27.0740  -44.2212 C.2       3 UNK         0.5005 
     28 O          21.4621  -26.3864  -43.4077 O.2       3 UNK        -0.5279 
     29 N          23.3594  -27.4553  -44.0429 N.am      4 UNK        -0.4463 
     30 CA         24.1770  -27.1417  -42.8675 C.3       4 UNK         0.0283 
     31 CB         25.6651  -27.2279  -43.2563 C.3       4 UNK        -0.1875 
     32 C          23.8270  -28.0689  -41.6892 C.2       4 UNK         0.4949 
     33 O          24.6512  -28.8968  -41.2972 O.2       4 UNK        -0.5039 
     34 N          22.5893  -27.9477  -41.1913 N.am      5 UNK        -0.4663 
     35 CA         21.9873  -28.7457  -40.1191 C.3       5 UNK         0.0242 
     36 CB         20.5412  -28.2672  -39.8986 C.3       5 UNK        -0.1982 
     37 C          22.8100  -28.6918  -38.8184 C.2       5 UNK         0.5017 
     38 O          22.7080  -27.7098  -38.0812 O.2       5 UNK        -0.5012 
     39 N          23.6270  -29.7320  -38.6114 N.am      6 UNK        -0.4439 
     40 CA         24.6498  -29.9522  -37.5807 C.3       6 UNK         0.0297 
     41 CB         25.3182  -28.6606  -37.0566 C.3       6 UNK        -0.2006 
     42 C          25.7290  -30.8581  -38.1877 C.2       6 UNK         0.4892 
     43 O          26.0917  -31.8646  -37.5784 O.2       6 UNK        -0.5089 
     44 N          26.1973  -30.4921  -39.3899 N.am      7 UNK        -0.4243 
     45 CA         27.0596  -31.3166  -40.2372 C.3       7 UNK         0.0196 
     46 CB         27.9556  -30.4111  -41.0989 C.3       7 UNK        -0.2007 
     47 C          26.1927  -32.2312  -41.1135 C.2       7 UNK         0.5020 
     48 O          26.4511  -33.4324  -41.1923 O.2       7 UNK        -0.5147 
     49 N          25.1505  -31.6444  -41.7146 N.am      8 UNK        -0.4734 
     50 CA         24.0237  -32.3506  -42.3182 C.3       8 UNK         0.0238 
     51 CB         23.4151  -31.4577  -43.4155 C.3       8 UNK        -0.1912 
     52 C          22.9735  -32.6738  -41.2410 C.2       8 UNK         0.5038 
     53 O          23.0513  -32.1479  -40.1252 O.2       8 UNK        -0.5046 
     54 N          21.9850  -33.4899  -41.6242 N.am      9 UNK        -0.4200 
     55 CA         20.8550  -33.9444  -40.7945 C.3       9 UNK         0.0839 
     56 C          21.2723  -35.0060  -39.7319 C.2       9 UNK         0.5513 
     57 N          20.3755  -35.3879  -38.8317 N.am      9 UNK        -0.7519 
     58 O          22.3868  -35.5258  -39.7347 O.2       9 UNK        -0.4960 
     59 C59        19.9972  -32.7848  -40.1957 C.3       10 UNK        -0.0876 
     60 S60        19.5991  -31.4607  -41.3854 S.3       10 UNK        -0.2414 
     61 C61        18.0111  -32.0211  -42.0624 C.3       10 UNK         0.0169 
     62 H62        16.0868  -21.4662  -43.2014 H         1 UNK         0.0903 
     63 H63        16.0423  -20.8028  -44.8361 H         1 UNK         0.0903 
     64 H64        14.5493  -21.3322  -44.0565 H         1 UNK         0.0903 
     65 H65        16.8264  -23.5800  -43.1450 H         1 UNK         0.3096 
     66 H66        15.8064  -25.6398  -44.8474 H         1 UNK         0.1121 
     67 H67        17.7913  -26.9744  -43.6328 H         1 UNK         0.0849 
     68 H68        17.9781  -25.5372  -42.7041 H         1 UNK         0.0849 
     69 H69        14.3483  -28.4516  -42.4863 H         1 UNK         0.0865 
     70 H70        14.5890  -27.5911  -43.9794 H         1 UNK         0.0865 
     71 H71        16.1562  -30.0598  -41.6478 H         1 UNK         0.1346 
     72 H72        18.7735  -31.6631  -44.6455 H         1 UNK         0.1412 
     73 H73        16.3082  -28.2734  -45.5384 H         1 UNK         0.1426 
     74 H74        17.9615  -28.8722  -47.0870 H         1 UNK         0.0716 
     75 H75        17.8986  -30.6054  -47.2660 H         1 UNK         0.0716 
     76 H76        19.7236  -28.6216  -44.5269 H         1 UNK         0.0695 
     77 H77        21.1908  -29.5481  -44.5238 H         1 UNK         0.0695 
     78 H78        22.1401  -27.8294  -46.2401 H         1 UNK         0.0983 
     79 H79        19.5095  -26.7393  -46.0023 H         1 UNK         0.3095 
     80 H80        20.2505  -23.3255  -46.5628 H         1 UNK         0.0454 
     81 H81        20.1397  -24.1317  -48.8784 H         1 UNK         0.0851 
     82 H82        18.8807  -25.2844  -48.4777 H         1 UNK         0.0851 
     83 H83        18.5571  -23.5538  -48.3830 H         1 UNK         0.0851 
     84 H84        18.6352  -23.6106  -45.1018 H         1 UNK         0.2976 
     85 H85        23.7917  -28.0465  -44.7387 H         1 UNK         0.3116 
     86 H86        23.9737  -26.1160  -42.5521 H         1 UNK         0.0646 
     87 H87        26.3045  -26.9887  -42.4055 H         1 UNK         0.0847 
     88 H88        25.9096  -26.5230  -44.0509 H         1 UNK         0.0847 
     89 H89        25.9393  -28.2272  -43.5972 H         1 UNK         0.0847 
     90 H90        21.9894  -27.2572  -41.6311 H         1 UNK         0.3040 
     91 H91        21.9449  -29.7792  -40.4650 H         1 UNK         0.1015 
     92 H92        19.9447  -28.3765  -40.8051 H         1 UNK         0.0786 
     93 H93        20.5009  -27.2199  -39.5966 H         1 UNK         0.0786 
     94 H94        20.0528  -28.8533  -39.1191 H         1 UNK         0.0786 
     95 H95        23.5545  -30.5061  -39.2717 H         1 UNK         0.3172 
     96 H96        24.1822  -30.4796  -36.7478 H         1 UNK         0.0595 
     97 H97        24.6387  -28.0831  -36.4305 H         1 UNK         0.0839 
     98 H98        25.6587  -28.0179  -37.8693 H         1 UNK         0.0839 
     99 H99        26.1866  -28.8916  -36.4379 H         1 UNK         0.0839 
    100 H100       25.7862  -29.6751  -39.8311 H         1 UNK         0.2998 
    101 H101       27.7009  -31.9432  -39.6134 H         1 UNK         0.0822 
    102 H102       28.6001  -29.7888  -40.4778 H         1 UNK         0.0787 
    103 H103       28.6028  -31.0056  -41.7450 H         1 UNK         0.0787 
    104 H104       27.3713  -29.7498  -41.7402 H         1 UNK         0.0787 
    105 H105       25.0129  -30.6470  -41.5642 H         1 UNK         0.3055 
    106 H106       24.3733  -33.2849  -42.7635 H         1 UNK         0.1106 
    107 H107       22.9510  -30.5648  -42.9962 H         1 UNK         0.0828 
    108 H108       24.1701  -31.1383  -44.1339 H         1 UNK         0.0828 
    109 H109       22.6431  -31.9879  -43.9743 H         1 UNK         0.0828 
    110 H110       22.0140  -33.8788  -42.5548 H         1 UNK         0.2931 
    111 H111       20.2139  -34.4861  -41.4907 H         1 UNK         0.0412 
    112 H112       20.6358  -36.0864  -38.1524 H         1 UNK         0.3472 
    113 H113       19.4431  -35.0060  -38.8205 H         1 UNK         0.3472 
    114 H114       20.5214  -32.3234  -39.3571 H         1 UNK         0.0970 
    115 H115       19.0631  -33.1682  -39.7836 H         1 UNK         0.0970 
    116 H116       17.2963  -32.1692  -41.2516 H         1 UNK         0.0612 
    117 H117       18.1415  -32.9870  -42.5526 H         1 UNK         0.0612 
@<TRIPOS>BOND
     1    1    2 1    
     2    1   62 1    
     3    1   63 1    
     4    1   64 1    
     5    2    3 2    
     6    2    4 am   BACKBONE|DICT|INTERRES
     7    4    5 1    
     8    4   65 1    
     9    5    6 1    
    10    5   25 1    
    11    5   66 1    
    12    6    7 1    
    13    6   67 1    
    14    6   68 1    
    15    7    8 1    
    16    8    9 1    
    17    8   69 1    
    18    8   70 1    
    19    9   10 ar   
    20    9   14 ar   
    21   10   11 ar   
    22   10   71 1    
    23   11   12 ar   
    24   11   61 1    
    25   12   13 ar   
    26   12   72 1    
    27   13   14 ar   
    28   13   15 1    
    29   14   73 1    
    30   15   16 1    
    31   15   74 1    
    32   15   75 1    
    33   16   17 1    
    34   17   18 1    
    35   17   76 1    
    36   17   77 1    
    37   18   19 1    
    38   18   27 1    
    39   18   78 1    
    40   19   20 am   BACKBONE|DICT|INTERRES
    41   19   79 1    
    42   20   21 2    
    43   20   22 1    
    44   22   23 1    
    45   22   24 1    
    46   22   80 1    
    47   23   81 1    
    48   23   82 1    
    49   23   83 1    
    50   24   25 am   BACKBONE|DICT|INTERRES
    51   24   84 1    
    52   25   26 2    
    53   27   28 2    
    54   27   29 am   BACKBONE|DICT|INTERRES
    55   29   30 1    
    56   29   85 1    
    57   30   31 1    
    58   30   32 1    
    59   30   86 1    
    60   31   87 1    
    61   31   88 1    
    62   31   89 1    
    63   32   33 2    
    64   32   34 am   BACKBONE|DICT|INTERRES
    65   34   35 1    
    66   34   90 1    
    67   35   36 1    
    68   35   37 1    
    69   35   91 1    
    70   36   92 1    
    71   36   93 1    
    72   36   94 1    
    73   37   38 2    
    74   37   39 am   BACKBONE|DICT|INTERRES
    75   39   40 1    
    76   39   95 1    
    77   40   41 1    
    78   40   42 1    
    79   40   96 1    
    80   41   97 1    
    81   41   98 1    
    82   41   99 1    
    83   42   43 2    
    84   42   44 am   BACKBONE|DICT|INTERRES
    85   44   45 1    
    86   44  100 1    
    87   45   46 1    
    88   45   47 1    
    89   45  101 1    
    90   46  102 1    
    91   46  103 1    
    92   46  104 1    
    93   47   48 2    
    94   47   49 am   BACKBONE|DICT|INTERRES
    95   49   50 1    
    96   49  105 1    
    97   50   51 1    
    98   50   52 1    
    99   50  106 1    
   100   51  107 1    
   101   51  108 1    
   102   51  109 1    
   103   52   53 2    
   104   52   54 am   BACKBONE|DICT|INTERRES
   105   54   55 1    
   106   54  110 1    
   107   55   56 1    
   108   55   59 1    
   109   55  111 1    
   110   56   57 am   BACKBONE|DICT|INTERRES
   111   56   58 2    
   112   57  112 1    
   113   57  113 1    
   114   59   60 1    
   115   59  114 1    
   116   59  115 1    
   117   60   61 1    
   118   61  116 1    
   119   61  117 1    
@<TRIPOS>SUBSTRUCTURE
     1 UNK         1 GROUP             0       ****    0 ROOT    
