@<TRIPOS>MOLECULE
3R8
117   119    1
SMALL
USER_CHARGES


@<TRIPOS>ATOM
      1 CA         13.2794  -24.5244  -41.5581 C.3       0 UNK        -0.2013 
      2 C          13.9369  -24.9931  -42.8474 C.2       0 UNK         0.4866 
      3 O          13.3804  -24.7899  -43.9267 O.2       0 UNK        -0.5176 
      4 N          15.1148  -25.6226  -42.7430 N.am      1 UNK        -0.4884 
      5 CA         15.8926  -26.1443  -43.8744 C.3       1 UNK         0.0853 
      6 C6         17.0686  -27.0317  -43.3987 C.3       10 UNK        -0.0849 
      7 S7         16.5315  -28.5948  -42.6277 S.3       10 UNK        -0.2776 
      8 C8         17.0657  -29.8330  -43.8594 C.3       10 UNK         0.0316 
      9 C9         18.5722  -29.8124  -44.0957 C.ar      10 UNK        -0.0863 
     10 C10        19.4493  -30.2660  -43.1051 C.ar      10 UNK        -0.1009 
     11 C11        20.8313  -30.2315  -43.3142 C.ar      10 UNK        -0.0712 
     12 C12        21.3327  -29.7477  -44.5247 C.ar      10 UNK        -0.0894 
     13 C13        20.4704  -29.2844  -45.5194 C.ar      10 UNK        -0.0745 
     14 C14        19.0895  -29.3312  -45.3042 C.ar      10 UNK        -0.0972 
     15 C15        21.0359  -28.7382  -46.8239 C.3       10 UNK         0.0209 
     16 S16        21.8791  -27.1356  -46.5997 S.3       10 UNK        -0.2568 
     17 C17        20.4895  -26.0432  -46.1355 C.3       10 UNK        -0.0983 
     18 CA         20.7866  -25.0500  -44.9773 C.3       3 UNK         0.0876 
     19 N          19.5969  -24.2870  -44.6249 N.am      3 UNK        -0.4424 
     20 C          19.0077  -23.3210  -45.3359 C.2       2 UNK         0.4918 
     21 O          19.4747  -22.8540  -46.3759 O.2       2 UNK        -0.4875 
     22 CA         17.6503  -22.8207  -44.7890 C.3       2 UNK         0.0481 
     23 CB         16.8233  -22.0528  -45.8415 C.3       2 UNK        -0.1831 
     24 N          16.8600  -23.9047  -44.1816 N.am      2 UNK        -0.4498 
     25 C          16.4487  -25.0330  -44.7870 C.2       1 UNK         0.5027 
     26 O          16.5468  -25.2461  -45.9962 O.2       1 UNK        -0.4969 
     27 C          21.2323  -25.7343  -43.6701 C.2       3 UNK         0.5005 
     28 O          20.3849  -26.0266  -42.8201 O.2       3 UNK        -0.5279 
     29 N          22.5433  -25.9502  -43.5176 N.am      4 UNK        -0.4463 
     30 CA         23.1655  -26.5637  -42.3451 C.3       4 UNK         0.0283 
     31 CB         23.2627  -25.5476  -41.1881 C.3       4 UNK        -0.1875 
     32 C          24.5259  -27.1446  -42.7528 C.2       4 UNK         0.4949 
     33 O          25.5590  -26.7552  -42.2075 O.2       4 UNK        -0.5039 
     34 N          24.5018  -28.0425  -43.7470 N.am      5 UNK        -0.4663 
     35 CA         25.6840  -28.6935  -44.3287 C.3       5 UNK         0.0242 
     36 CB         25.2601  -29.4706  -45.5863 C.3       5 UNK        -0.1982 
     37 C          26.4475  -29.6206  -43.3615 C.2       5 UNK         0.5017 
     38 O          27.6368  -29.8610  -43.5732 O.2       5 UNK        -0.5012 
     39 N          25.7615  -30.1171  -42.3281 N.am      6 UNK        -0.4439 
     40 CA         26.2853  -30.9416  -41.2450 C.3       6 UNK         0.0297 
     41 CB         26.4166  -32.4076  -41.7049 C.3       6 UNK        -0.2006 
     42 C          25.3420  -30.7967  -40.0422 C.2       6 UNK         0.4892 
     43 O          24.3224  -30.1074  -40.1406 O.2       6 UNK        -0.5089 
     44 N          25.6944  -31.4414  -38.9238 N.am      7 UNK        -0.4243 
     45 CA         24.8651  -31.5020  -37.7209 C.3       7 UNK         0.0196 
     46 CB         25.7147  -31.9949  -36.5374 C.3       7 UNK        -0.2007 
     47 C          23.6531  -32.4193  -37.9502 C.2       7 UNK         0.5020 
     48 O          23.8397  -33.6132  -38.1944 O.2       7 UNK        -0.5147 
     49 N          22.4456  -31.8433  -37.8757 N.am      8 UNK        -0.4734 
     50 CA         21.1114  -32.4564  -38.0008 C.3       8 UNK         0.0238 
     51 CB         20.8706  -33.4975  -36.8897 C.3       8 UNK        -0.1912 
     52 C          20.7655  -33.0447  -39.3833 C.2       8 UNK         0.5038 
     53 O          19.6371  -32.8564  -39.8386 O.2       8 UNK        -0.5046 
     54 N          21.7184  -33.7389  -40.0161 N.am      9 UNK        -0.4200 
     55 CA         21.5981  -34.4307  -41.3128 C.3       9 UNK         0.0839 
     56 C          20.6248  -35.6499  -41.3062 C.2       9 UNK         0.5513 
     57 N          20.2776  -36.2115  -40.1540 N.am      9 UNK        -0.7519 
     58 O          20.2011  -36.1198  -42.3593 O.2       9 UNK        -0.4960 
     59 C59        21.3426  -33.4643  -42.5060 C.3       10 UNK        -0.0876 
     60 S60        22.6612  -32.2170  -42.6911 S.3       10 UNK        -0.2414 
     61 C61        21.7920  -30.6883  -42.2291 C.3       10 UNK         0.0169 
     62 H62        13.8762  -24.7739  -40.6809 H         1 UNK         0.0903 
     63 H63        13.1419  -23.4437  -41.5784 H         1 UNK         0.0903 
     64 H64        12.3008  -24.9904  -41.4454 H         1 UNK         0.0903 
     65 H65        15.5071  -25.7938  -41.8275 H         1 UNK         0.3096 
     66 H66        15.2250  -26.7526  -44.4893 H         1 UNK         0.1121 
     67 H67        17.7371  -27.2552  -44.2298 H         1 UNK         0.0849 
     68 H68        17.6836  -26.4963  -42.6731 H         1 UNK         0.0849 
     69 H69        16.7716  -30.8249  -43.5132 H         1 UNK         0.0865 
     70 H70        16.5240  -29.6648  -44.7916 H         1 UNK         0.0865 
     71 H71        19.0544  -30.6331  -42.1671 H         1 UNK         0.1346 
     72 H72        22.3982  -29.7321  -44.6936 H         1 UNK         0.1412 
     73 H73        18.4166  -28.9764  -46.0732 H         1 UNK         0.1426 
     74 H74        20.2506  -28.6275  -47.5734 H         1 UNK         0.0716 
     75 H75        21.7488  -29.4559  -47.2324 H         1 UNK         0.0716 
     76 H76        20.2074  -25.4875  -47.0308 H         1 UNK         0.0695 
     77 H77        19.6173  -26.6468  -45.8838 H         1 UNK         0.0695 
     78 H78        21.5656  -24.3504  -45.2878 H         1 UNK         0.0983 
     79 H79        19.1860  -24.5906  -43.7503 H         1 UNK         0.3095 
     80 H80        17.8848  -22.1243  -43.9828 H         1 UNK         0.0454 
     81 H81        17.3589  -21.1687  -46.1891 H         1 UNK         0.0851 
     82 H82        16.6091  -22.6657  -46.7174 H         1 UNK         0.0851 
     83 H83        15.8732  -21.7135  -45.4292 H         1 UNK         0.0851 
     84 H84        16.7069  -23.8319  -43.1851 H         1 UNK         0.2976 
     85 H85        23.1733  -25.7048  -44.2707 H         1 UNK         0.3116 
     86 H86        22.5491  -27.4023  -42.0138 H         1 UNK         0.0646 
     87 H87        23.7396  -25.9953  -40.3152 H         1 UNK         0.0847 
     88 H88        22.2772  -25.2044  -40.8735 H         1 UNK         0.0847 
     89 H89        23.8488  -24.6721  -41.4695 H         1 UNK         0.0847 
     90 H90        23.6102  -28.2617  -44.1659 H         1 UNK         0.3040 
     91 H91        26.3777  -27.9056  -44.6307 H         1 UNK         0.1015 
     92 H92        24.7455  -28.8277  -46.3010 H         1 UNK         0.0786 
     93 H93        24.6011  -30.3050  -45.3437 H         1 UNK         0.0786 
     94 H94        26.1304  -29.8863  -46.0962 H         1 UNK         0.0786 
     95 H95        24.8030  -29.8242  -42.1846 H         1 UNK         0.3172 
     96 H96        27.2651  -30.5599  -40.9510 H         1 UNK         0.0595 
     97 H97        27.0523  -32.4941  -42.5860 H         1 UNK         0.0839 
     98 H98        25.4477  -32.8419  -41.9507 H         1 UNK         0.0839 
     99 H99        26.8635  -33.0298  -40.9292 H         1 UNK         0.0839 
    100 H100       26.5311  -32.0065  -38.9259 H         1 UNK         0.2998 
    101 H101       24.5163  -30.4932  -37.4881 H         1 UNK         0.0822 
    102 H102       26.5520  -31.3242  -36.3433 H         1 UNK         0.0787 
    103 H103       25.1193  -32.0420  -35.6245 H         1 UNK         0.0787 
    104 H104       26.1179  -32.9930  -36.7146 H         1 UNK         0.0787 
    105 H105       22.4296  -30.8423  -37.7313 H         1 UNK         0.3055 
    106 H106       20.4026  -31.6423  -37.8375 H         1 UNK         0.1106 
    107 H107       21.5439  -34.3510  -36.9740 H         1 UNK         0.0828 
    108 H108       21.0077  -33.0601  -35.9008 H         1 UNK         0.0828 
    109 H109       19.8514  -33.8843  -36.9327 H         1 UNK         0.0828 
    110 H110       22.6062  -33.8448  -39.5312 H         1 UNK         0.2931 
    111 H111       22.5789  -34.8782  -41.4775 H         1 UNK         0.0412 
    112 H112       19.6573  -37.0062  -40.1585 H         1 UNK         0.3472 
    113 H113       20.6315  -35.8505  -39.2829 H         1 UNK         0.3472 
    114 H114       20.3703  -32.9800  -42.4101 H         1 UNK         0.0970 
    115 H115       21.3041  -34.0188  -43.4451 H         1 UNK         0.0970 
    116 H116       22.5289  -29.9030  -42.0645 H         1 UNK         0.0612 
    117 H117       21.2785  -30.8279  -41.2775 H         1 UNK         0.0612 
@<TRIPOS>BOND
     1    1    2 1    
     2    1   62 1    
     3    1   63 1    
     4    1   64 1    
     5    2    3 2    
     6    2    4 am   BACKBONE|DICT|INTERRES
     7    4    5 1    
     8    4   65 1    
     9    5    6 1    
    10    5   25 1    
    11    5   66 1    
    12    6    7 1    
    13    6   67 1    
    14    6   68 1    
    15    7    8 1    
    16    8    9 1    
    17    8   69 1    
    18    8   70 1    
    19    9   10 ar   
    20    9   14 ar   
    21   10   11 ar   
    22   10   71 1    
    23   11   12 ar   
    24   11   61 1    
    25   12   13 ar   
    26   12   72 1    
    27   13   14 ar   
    28   13   15 1    
    29   14   73 1    
    30   15   16 1    
    31   15   74 1    
    32   15   75 1    
    33   16   17 1    
    34   17   18 1    
    35   17   76 1    
    36   17   77 1    
    37   18   19 1    
    38   18   27 1    
    39   18   78 1    
    40   19   20 am   BACKBONE|DICT|INTERRES
    41   19   79 1    
    42   20   21 2    
    43   20   22 1    
    44   22   23 1    
    45   22   24 1    
    46   22   80 1    
    47   23   81 1    
    48   23   82 1    
    49   23   83 1    
    50   24   25 am   BACKBONE|DICT|INTERRES
    51   24   84 1    
    52   25   26 2    
    53   27   28 2    
    54   27   29 am   BACKBONE|DICT|INTERRES
    55   29   30 1    
    56   29   85 1    
    57   30   31 1    
    58   30   32 1    
    59   30   86 1    
    60   31   87 1    
    61   31   88 1    
    62   31   89 1    
    63   32   33 2    
    64   32   34 am   BACKBONE|DICT|INTERRES
    65   34   35 1    
    66   34   90 1    
    67   35   36 1    
    68   35   37 1    
    69   35   91 1    
    70   36   92 1    
    71   36   93 1    
    72   36   94 1    
    73   37   38 2    
    74   37   39 am   BACKBONE|DICT|INTERRES
    75   39   40 1    
    76   39   95 1    
    77   40   41 1    
    78   40   42 1    
    79   40   96 1    
    80   41   97 1    
    81   41   98 1    
    82   41   99 1    
    83   42   43 2    
    84   42   44 am   BACKBONE|DICT|INTERRES
    85   44   45 1    
    86   44  100 1    
    87   45   46 1    
    88   45   47 1    
    89   45  101 1    
    90   46  102 1    
    91   46  103 1    
    92   46  104 1    
    93   47   48 2    
    94   47   49 am   BACKBONE|DICT|INTERRES
    95   49   50 1    
    96   49  105 1    
    97   50   51 1    
    98   50   52 1    
    99   50  106 1    
   100   51  107 1    
   101   51  108 1    
   102   51  109 1    
   103   52   53 2    
   104   52   54 am   BACKBONE|DICT|INTERRES
   105   54   55 1    
   106   54  110 1    
   107   55   56 1    
   108   55   59 1    
   109   55  111 1    
   110   56   57 am   BACKBONE|DICT|INTERRES
   111   56   58 2    
   112   57  112 1    
   113   57  113 1    
   114   59   60 1    
   115   59  114 1    
   116   59  115 1    
   117   60   61 1    
   118   61  116 1    
   119   61  117 1    
@<TRIPOS>SUBSTRUCTURE
     1 UNK         1 GROUP             0       ****    0 ROOT    
