@<TRIPOS>MOLECULE
3R8
117   119    1
SMALL
USER_CHARGES


@<TRIPOS>ATOM
      1 CA         16.4115  -25.1701  -47.5794 C.3       0 UNK        -0.2013 
      2 C          17.8417  -25.6866  -47.6254 C.2       0 UNK         0.4866 
      3 O          18.6875  -25.0884  -48.2903 O.2       0 UNK        -0.5176 
      4 N          18.1144  -26.7963  -46.9262 N.am      1 UNK        -0.4884 
      5 CA         19.4337  -27.4378  -46.8381 C.3       1 UNK         0.0853 
      6 C6         19.3513  -28.8442  -46.1922 C.3       10 UNK        -0.0849 
      7 S7         18.2612  -30.0040  -47.0868 S.3       10 UNK        -0.2776 
      8 C8         16.6591  -29.8451  -46.2132 C.3       10 UNK         0.0316 
      9 C9         16.7309  -30.0237  -44.6970 C.ar      10 UNK        -0.0863 
     10 C10        17.5074  -31.0372  -44.1254 C.ar      10 UNK        -0.1009 
     11 C11        17.5505  -31.2051  -42.7391 C.ar      10 UNK        -0.0712 
     12 C12        16.7866  -30.3720  -41.9189 C.ar      10 UNK        -0.0894 
     13 C13        16.0098  -29.3489  -42.4719 C.ar      10 UNK        -0.0745 
     14 C14        15.9882  -29.1809  -43.8612 C.ar      10 UNK        -0.0972 
     15 C15        15.1658  -28.4463  -41.5767 C.3       10 UNK         0.0209 
     16 S16        16.1103  -27.6941  -40.2078 S.3       10 UNK        -0.2568 
     17 C17        17.2830  -26.6180  -41.0976 C.3       10 UNK        -0.0983 
     18 CA         18.7156  -27.2142  -41.1604 C.3       3 UNK         0.0876 
     19 N          19.4970  -26.6993  -42.2916 N.am      3 UNK        -0.4424 
     20 C          19.8227  -25.4275  -42.5730 C.2       2 UNK         0.4918 
     21 O          19.5469  -24.4666  -41.8553 O.2       2 UNK        -0.4875 
     22 CA         20.5707  -25.1990  -43.8927 C.3       2 UNK         0.0481 
     23 CB         22.0712  -25.4778  -43.6669 C.3       2 UNK        -0.1831 
     24 N          19.9440  -26.0463  -44.9143 N.am      2 UNK        -0.4498 
     25 C          20.4323  -26.5679  -46.0482 C.2       1 UNK         0.5027 
     26 O          21.5761  -26.4091  -46.4736 O.2       1 UNK        -0.4969 
     27 C          19.4633  -27.1228  -39.8121 C.2       3 UNK         0.5005 
     28 O          19.5974  -28.1343  -39.1222 O.2       3 UNK        -0.5279 
     29 N          19.9558  -25.9253  -39.4683 N.am      4 UNK        -0.4463 
     30 CA         20.7408  -25.6522  -38.2623 C.3       4 UNK         0.0283 
     31 CB         20.8220  -24.1335  -38.0410 C.3       4 UNK        -0.1875 
     32 C          22.1507  -26.2649  -38.3150 C.2       4 UNK         0.4949 
     33 O          22.6743  -26.6664  -37.2754 O.2       4 UNK        -0.5039 
     34 N          22.7375  -26.3306  -39.5176 N.am      5 UNK        -0.4663 
     35 CA         24.0258  -26.9689  -39.7705 C.3       5 UNK         0.0242 
     36 CB         24.7257  -26.2736  -40.9517 C.3       5 UNK        -0.1982 
     37 C          23.7978  -28.4587  -40.0530 C.2       5 UNK         0.5017 
     38 O          23.3817  -28.8103  -41.1589 O.2       5 UNK        -0.5012 
     39 N          24.0917  -29.3096  -39.0604 N.am      6 UNK        -0.4439 
     40 CA         23.9642  -30.7714  -39.1372 C.3       6 UNK         0.0297 
     41 CB         24.2770  -31.3842  -37.7634 C.3       6 UNK        -0.2006 
     42 C          24.8330  -31.4268  -40.2278 C.2       6 UNK         0.4892 
     43 O          24.4928  -32.5138  -40.6933 O.2       6 UNK        -0.5089 
     44 N          25.9053  -30.7417  -40.6505 N.am      7 UNK        -0.4243 
     45 CA         26.7607  -31.1193  -41.7777 C.3       7 UNK         0.0196 
     46 CB         27.9650  -30.1656  -41.8357 C.3       7 UNK        -0.2007 
     47 C          26.0294  -31.1434  -43.1341 C.2       7 UNK         0.5020 
     48 O          26.4518  -31.8844  -44.0218 O.2       7 UNK        -0.5147 
     49 N          24.9511  -30.3565  -43.2779 N.am      8 UNK        -0.4734 
     50 CA         24.0822  -30.3808  -44.4586 C.3       8 UNK         0.0238 
     51 CB         23.2931  -29.0645  -44.5453 C.3       8 UNK        -0.1912 
     52 C          23.1216  -31.5822  -44.4438 C.2       8 UNK         0.5038 
     53 O          22.7762  -32.0893  -45.5116 O.2       8 UNK        -0.5046 
     54 N          22.7100  -32.0062  -43.2427 N.am      9 UNK        -0.4200 
     55 CA         21.8416  -33.1682  -43.0118 C.3       9 UNK         0.0839 
     56 C          22.6091  -34.5125  -43.1066 C.2       9 UNK         0.5513 
     57 N          23.8204  -34.6025  -42.5725 N.am      9 UNK        -0.7519 
     58 O          22.1017  -35.4781  -43.6707 O.2       9 UNK        -0.4960 
     59 C59        21.0811  -33.0600  -41.6654 C.3       10 UNK        -0.0876 
     60 S60        20.0249  -31.5752  -41.6046 S.3       10 UNK        -0.2414 
     61 C61        18.4334  -32.2796  -42.1305 C.3       10 UNK         0.0169 
     62 H62        16.3911  -24.1587  -47.1744 H         1 UNK         0.0903 
     63 H63        15.9905  -25.1430  -48.5841 H         1 UNK         0.0903 
     64 H64        15.7692  -25.7961  -46.9601 H         1 UNK         0.0903 
     65 H65        17.3712  -27.2563  -46.4231 H         1 UNK         0.3096 
     66 H66        19.8242  -27.5457  -47.8529 H         1 UNK         0.1121 
     67 H67        19.0416  -28.7785  -45.1486 H         1 UNK         0.0849 
     68 H68        20.3423  -29.3020  -46.1722 H         1 UNK         0.0849 
     69 H69        16.2170  -28.8812  -46.4660 H         1 UNK         0.0865 
     70 H70        15.9773  -30.5974  -46.6120 H         1 UNK         0.0865 
     71 H71        18.0894  -31.6913  -44.7602 H         1 UNK         0.1346 
     72 H72        16.8125  -30.5080  -40.8462 H         1 UNK         0.1412 
     73 H73        15.3759  -28.4009  -44.2934 H         1 UNK         0.1426 
     74 H74        14.3542  -29.0396  -41.1539 H         1 UNK         0.0716 
     75 H75        14.6935  -27.6513  -42.1561 H         1 UNK         0.0716 
     76 H76        17.2845  -25.6332  -40.6269 H         1 UNK         0.0695 
     77 H77        16.8999  -26.4594  -42.1068 H         1 UNK         0.0695 
     78 H78        18.6189  -28.2802  -41.3733 H         1 UNK         0.0983 
     79 H79        19.8353  -27.4112  -42.9226 H         1 UNK         0.3095 
     80 H80        20.4385  -24.1575  -44.1901 H         1 UNK         0.0454 
     81 H81        22.6726  -25.1832  -44.5261 H         1 UNK         0.0851 
     82 H82        22.2639  -26.5304  -43.4622 H         1 UNK         0.0851 
     83 H83        22.4476  -24.9038  -42.8192 H         1 UNK         0.0851 
     84 H84        18.9648  -26.2262  -44.7380 H         1 UNK         0.2976 
     85 H85        19.8057  -25.1569  -40.1180 H         1 UNK         0.3116 
     86 H86        20.2190  -26.0938  -37.4105 H         1 UNK         0.0646 
     87 H87        21.3151  -23.6284  -38.8726 H         1 UNK         0.0847 
     88 H88        19.8306  -23.6959  -37.9229 H         1 UNK         0.0847 
     89 H89        21.3868  -23.9008  -37.1371 H         1 UNK         0.0847 
     90 H90        22.2162  -26.0210  -40.3236 H         1 UNK         0.3040 
     91 H91        24.6706  -26.8605  -38.8951 H         1 UNK         0.1015 
     92 H92        25.7135  -26.7033  -41.1231 H         1 UNK         0.0786 
     93 H93        24.8649  -25.2094  -40.7604 H         1 UNK         0.0786 
     94 H94        24.1663  -26.3769  -41.8808 H         1 UNK         0.0786 
     95 H95        24.3957  -28.9291  -38.1746 H         1 UNK         0.3172 
     96 H96        22.9231  -30.9940  -39.3810 H         1 UNK         0.0595 
     97 H97        25.2996  -31.1723  -37.4486 H         1 UNK         0.0839 
     98 H98        24.1616  -32.4690  -37.7852 H         1 UNK         0.0839 
     99 H99        23.6020  -31.0056  -36.9955 H         1 UNK         0.0839 
    100 H100       26.1119  -29.8631  -40.1993 H         1 UNK         0.2998 
    101 H101       27.1292  -32.1300  -41.5893 H         1 UNK         0.0822 
    102 H102       28.6388  -30.4374  -42.6497 H         1 UNK         0.0787 
    103 H103       28.5449  -30.2003  -40.9132 H         1 UNK         0.0787 
    104 H104       27.6547  -29.1329  -42.0009 H         1 UNK         0.0787 
    105 H105       24.6454  -29.7802  -42.5005 H         1 UNK         0.3055 
    106 H106       24.7052  -30.4631  -45.3524 H         1 UNK         0.1106 
    107 H107       22.5872  -28.9616  -43.7205 H         1 UNK         0.0828 
    108 H108       23.9562  -28.1994  -44.5324 H         1 UNK         0.0828 
    109 H109       22.7201  -29.0167  -45.4718 H         1 UNK         0.0828 
    110 H110       23.0692  -31.5492  -42.4179 H         1 UNK         0.2931 
    111 H111       21.0895  -33.1804  -43.8038 H         1 UNK         0.0412 
    112 H112       24.1946  -33.8293  -42.0292 H         1 UNK         0.3472 
    113 H113       24.3285  -35.4702  -42.6329 H         1 UNK         0.3472 
    114 H114       20.4662  -33.9455  -41.4925 H         1 UNK         0.0970 
    115 H115       21.7831  -33.0164  -40.8309 H         1 UNK         0.0970 
    116 H116       18.6022  -33.0750  -42.8583 H         1 UNK         0.0612 
    117 H117       17.9386  -32.7403  -41.2742 H         1 UNK         0.0612 
@<TRIPOS>BOND
     1    1    2 1    
     2    1   62 1    
     3    1   63 1    
     4    1   64 1    
     5    2    3 2    
     6    2    4 am   BACKBONE|DICT|INTERRES
     7    4    5 1    
     8    4   65 1    
     9    5    6 1    
    10    5   25 1    
    11    5   66 1    
    12    6    7 1    
    13    6   67 1    
    14    6   68 1    
    15    7    8 1    
    16    8    9 1    
    17    8   69 1    
    18    8   70 1    
    19    9   10 ar   
    20    9   14 ar   
    21   10   11 ar   
    22   10   71 1    
    23   11   12 ar   
    24   11   61 1    
    25   12   13 ar   
    26   12   72 1    
    27   13   14 ar   
    28   13   15 1    
    29   14   73 1    
    30   15   16 1    
    31   15   74 1    
    32   15   75 1    
    33   16   17 1    
    34   17   18 1    
    35   17   76 1    
    36   17   77 1    
    37   18   19 1    
    38   18   27 1    
    39   18   78 1    
    40   19   20 am   BACKBONE|DICT|INTERRES
    41   19   79 1    
    42   20   21 2    
    43   20   22 1    
    44   22   23 1    
    45   22   24 1    
    46   22   80 1    
    47   23   81 1    
    48   23   82 1    
    49   23   83 1    
    50   24   25 am   BACKBONE|DICT|INTERRES
    51   24   84 1    
    52   25   26 2    
    53   27   28 2    
    54   27   29 am   BACKBONE|DICT|INTERRES
    55   29   30 1    
    56   29   85 1    
    57   30   31 1    
    58   30   32 1    
    59   30   86 1    
    60   31   87 1    
    61   31   88 1    
    62   31   89 1    
    63   32   33 2    
    64   32   34 am   BACKBONE|DICT|INTERRES
    65   34   35 1    
    66   34   90 1    
    67   35   36 1    
    68   35   37 1    
    69   35   91 1    
    70   36   92 1    
    71   36   93 1    
    72   36   94 1    
    73   37   38 2    
    74   37   39 am   BACKBONE|DICT|INTERRES
    75   39   40 1    
    76   39   95 1    
    77   40   41 1    
    78   40   42 1    
    79   40   96 1    
    80   41   97 1    
    81   41   98 1    
    82   41   99 1    
    83   42   43 2    
    84   42   44 am   BACKBONE|DICT|INTERRES
    85   44   45 1    
    86   44  100 1    
    87   45   46 1    
    88   45   47 1    
    89   45  101 1    
    90   46  102 1    
    91   46  103 1    
    92   46  104 1    
    93   47   48 2    
    94   47   49 am   BACKBONE|DICT|INTERRES
    95   49   50 1    
    96   49  105 1    
    97   50   51 1    
    98   50   52 1    
    99   50  106 1    
   100   51  107 1    
   101   51  108 1    
   102   51  109 1    
   103   52   53 2    
   104   52   54 am   BACKBONE|DICT|INTERRES
   105   54   55 1    
   106   54  110 1    
   107   55   56 1    
   108   55   59 1    
   109   55  111 1    
   110   56   57 am   BACKBONE|DICT|INTERRES
   111   56   58 2    
   112   57  112 1    
   113   57  113 1    
   114   59   60 1    
   115   59  114 1    
   116   59  115 1    
   117   60   61 1    
   118   61  116 1    
   119   61  117 1    
@<TRIPOS>SUBSTRUCTURE
     1 UNK         1 GROUP             0       ****    0 ROOT    
