@<TRIPOS>MOLECULE
3R8
117   119    1
SMALL
USER_CHARGES


@<TRIPOS>ATOM
      1 CA         19.2906  -22.9603  -47.0564 C.3       0 UNK        -0.2013 
      2 C          19.9832  -24.2668  -46.6998 C.2       0 UNK         0.4866 
      3 O          21.1607  -24.2572  -46.3411 O.2       0 UNK        -0.5176 
      4 N          19.2620  -25.3910  -46.7994 N.am      1 UNK        -0.4884 
      5 CA         19.7446  -26.7379  -46.4644 C.3       1 UNK         0.0853 
      6 C6         18.8677  -27.8503  -47.0940 C.3       10 UNK        -0.0849 
      7 S7         17.0699  -27.6052  -46.8710 S.3       10 UNK        -0.2776 
      8 C8         16.4429  -29.2939  -47.1315 C.3       10 UNK         0.0316 
      9 C9         16.6468  -30.1505  -45.8929 C.ar      10 UNK        -0.0863 
     10 C10        17.6758  -31.0935  -45.8369 C.ar      10 UNK        -0.1009 
     11 C11        17.8872  -31.8520  -44.6779 C.ar      10 UNK        -0.0712 
     12 C12        17.0352  -31.6736  -43.5815 C.ar      10 UNK        -0.0894 
     13 C13        15.9868  -30.7504  -43.6380 C.ar      10 UNK        -0.0745 
     14 C14        15.7991  -29.9930  -44.7959 C.ar      10 UNK        -0.0972 
     15 C15        15.0356  -30.5699  -42.4663 C.3       10 UNK         0.0209 
     16 S16        15.2781  -28.9552  -41.6643 S.3       10 UNK        -0.2568 
     17 C17        16.4903  -29.3495  -40.3613 C.3       10 UNK        -0.0983 
     18 CA         17.9775  -29.1496  -40.7591 C.3       3 UNK         0.0876 
     19 N          18.2052  -27.8786  -41.4661 N.am      3 UNK        -0.4424 
     20 C          19.3850  -27.3878  -41.8711 C.2       2 UNK         0.4918 
     21 O          20.4703  -27.9122  -41.6170 O.2       2 UNK        -0.4875 
     22 CA         19.3330  -26.0657  -42.6620 C.3       2 UNK         0.0481 
     23 CB         20.5536  -25.1740  -42.3610 C.3       2 UNK        -0.1831 
     24 N          19.1905  -26.2363  -44.1144 N.am      2 UNK        -0.4498 
     25 C          19.9714  -26.9438  -44.9502 C.2       1 UNK         0.5027 
     26 O          20.8794  -27.6913  -44.5933 O.2       1 UNK        -0.4969 
     27 C          18.8472  -29.3414  -39.4959 C.2       3 UNK         0.5005 
     28 O          19.3220  -30.4501  -39.2431 O.2       3 UNK        -0.5279 
     29 N          19.0202  -28.2617  -38.7203 N.am      4 UNK        -0.4463 
     30 CA         19.7652  -28.2542  -37.4593 C.3       4 UNK         0.0283 
     31 CB         19.2645  -27.0870  -36.5925 C.3       4 UNK        -0.1875 
     32 C          21.2904  -28.1632  -37.6407 C.2       4 UNK         0.4949 
     33 O          22.0211  -28.4941  -36.7060 O.2       4 UNK        -0.5039 
     34 N          21.7540  -27.7049  -38.8102 N.am      5 UNK        -0.4663 
     35 CA         23.1697  -27.5441  -39.1274 C.3       5 UNK         0.0242 
     36 CB         23.3525  -26.2874  -39.9967 C.3       5 UNK        -0.1982 
     37 C          23.6517  -28.8091  -39.8419 C.2       5 UNK         0.5017 
     38 O          23.6156  -28.8618  -41.0706 O.2       5 UNK        -0.5012 
     39 N          24.0825  -29.8122  -39.0649 N.am      6 UNK        -0.4439 
     40 CA         24.5033  -31.1406  -39.5359 C.3       6 UNK         0.0297 
     41 CB         24.9243  -31.9936  -38.3286 C.3       6 UNK        -0.2006 
     42 C          25.6140  -31.1421  -40.6063 C.2       6 UNK         0.4892 
     43 O          25.6766  -32.0764  -41.4056 O.2       6 UNK        -0.5089 
     44 N          26.4524  -30.0959  -40.6169 N.am      7 UNK        -0.4243 
     45 CA         27.4704  -29.8501  -41.6409 C.3       7 UNK         0.0196 
     46 CB         28.4376  -28.7662  -41.1379 C.3       7 UNK        -0.2007 
     47 C          26.8803  -29.4505  -43.0076 C.2       7 UNK         0.5020 
     48 O          27.5229  -29.6989  -44.0281 O.2       7 UNK        -0.5147 
     49 N          25.6865  -28.8414  -43.0120 N.am      8 UNK        -0.4734 
     50 CA         24.9338  -28.4942  -44.2169 C.3       8 UNK         0.0238 
     51 CB         24.1644  -27.1799  -43.9950 C.3       8 UNK        -0.1912 
     52 C          23.9843  -29.6400  -44.5921 C.2       8 UNK         0.5038 
     53 O          24.0399  -30.1158  -45.7270 O.2       8 UNK        -0.5046 
     54 N          23.1661  -30.0832  -43.6294 N.am      9 UNK        -0.4200 
     55 CA         22.2458  -31.2191  -43.7522 C.3       9 UNK         0.0839 
     56 C          21.7163  -31.6669  -42.3689 C.2       9 UNK         0.5513 
     57 N          21.2327  -30.7508  -41.5418 N.am      9 UNK        -0.7519 
     58 O          21.7416  -32.8507  -42.0440 O.2       9 UNK        -0.4960 
     59 C59        21.0781  -30.9616  -44.7471 C.3       10 UNK        -0.0876 
     60 S60        20.5043  -32.4935  -45.5545 S.3       10 UNK        -0.2414 
     61 C61        19.0046  -32.8911  -44.5901 C.3       10 UNK         0.0169 
     62 H62        19.2925  -22.2887  -46.1983 H         1 UNK         0.0903 
     63 H63        19.8156  -22.4688  -47.8751 H         1 UNK         0.0903 
     64 H64        18.2563  -23.1166  -47.3625 H         1 UNK         0.0903 
     65 H65        18.2993  -25.3481  -47.1065 H         1 UNK         0.3096 
     66 H66        20.7365  -26.8338  -46.9133 H         1 UNK         0.1121 
     67 H67        19.1621  -28.8299  -46.7130 H         1 UNK         0.0849 
     68 H68        19.0573  -27.8885  -48.1678 H         1 UNK         0.0849 
     69 H69        15.3784  -29.2442  -47.3659 H         1 UNK         0.0865 
     70 H70        16.9255  -29.7394  -48.0030 H         1 UNK         0.0865 
     71 H71        18.3175  -31.2268  -46.6964 H         1 UNK         0.1346 
     72 H72        17.1821  -32.2621  -42.6860 H         1 UNK         0.1412 
     73 H73        14.9972  -29.2681  -44.8376 H         1 UNK         0.1426 
     74 H74        15.1385  -31.3791  -41.7421 H         1 UNK         0.0716 
     75 H75        14.0099  -30.6239  -42.8342 H         1 UNK         0.0716 
     76 H76        16.3249  -30.3714  -40.0147 H         1 UNK         0.0695 
     77 H77        16.2364  -28.7089  -39.5139 H         1 UNK         0.0695 
     78 H78        18.2536  -29.9406  -41.4594 H         1 UNK         0.0983 
     79 H79        17.3634  -27.3892  -41.7348 H         1 UNK         0.3095 
     80 H80        18.4480  -25.5220  -42.3278 H         1 UNK         0.0454 
     81 H81        21.4767  -25.6138  -42.7397 H         1 UNK         0.0851 
     82 H82        20.6762  -25.0236  -41.2878 H         1 UNK         0.0851 
     83 H83        20.4464  -24.1899  -42.8169 H         1 UNK         0.0851 
     84 H84        18.4590  -25.6881  -44.5442 H         1 UNK         0.2976 
     85 H85        18.5966  -27.3913  -39.0085 H         1 UNK         0.3116 
     86 H86        19.5564  -29.1840  -36.9253 H         1 UNK         0.0646 
     87 H87        18.1965  -27.1709  -36.3903 H         1 UNK         0.0847 
     88 H88        19.7734  -27.0711  -35.6276 H         1 UNK         0.0847 
     89 H89        19.4431  -26.1224  -37.0694 H         1 UNK         0.0847 
     90 H90        21.1082  -27.5729  -39.5799 H         1 UNK         0.3040 
     91 H91        23.7576  -27.4069  -38.2168 H         1 UNK         0.1015 
     92 H92        22.7987  -26.3609  -40.9318 H         1 UNK         0.0786 
     93 H93        24.4024  -26.1396  -40.2527 H         1 UNK         0.0786 
     94 H94        23.0138  -25.3916  -39.4763 H         1 UNK         0.0786 
     95 H95        24.0386  -29.6838  -38.0630 H         1 UNK         0.3172 
     96 H96        23.6269  -31.6080  -39.9882 H         1 UNK         0.0595 
     97 H97        25.7747  -31.5576  -37.8028 H         1 UNK         0.0839 
     98 H98        25.2151  -32.9974  -38.6420 H         1 UNK         0.0839 
     99 H99        24.1073  -32.1051  -37.6155 H         1 UNK         0.0839 
    100 H100       26.3318  -29.3835  -39.9120 H         1 UNK         0.2998 
    101 H101       28.0357  -30.7735  -41.7854 H         1 UNK         0.0822 
    102 H102       29.2273  -28.5799  -41.8673 H         1 UNK         0.0787 
    103 H103       27.9267  -27.8185  -40.9621 H         1 UNK         0.0787 
    104 H104       28.9221  -29.0659  -40.2083 H         1 UNK         0.0787 
    105 H105       25.1809  -28.7451  -42.1359 H         1 UNK         0.3055 
    106 H106       25.6230  -28.3405  -45.0506 H         1 UNK         0.1106 
    107 H107       24.8377  -26.3634  -43.7348 H         1 UNK         0.0828 
    108 H108       23.6307  -26.8865  -44.9000 H         1 UNK         0.0828 
    109 H109       23.4214  -27.2676  -43.2017 H         1 UNK         0.0828 
    110 H110       23.2031  -29.6474  -42.7098 H         1 UNK         0.2931 
    111 H111       22.8524  -32.0423  -44.1359 H         1 UNK         0.0412 
    112 H112       20.8564  -31.0335  -40.6476 H         1 UNK         0.3472 
    113 H113       21.2077  -29.7673  -41.7918 H         1 UNK         0.3472 
    114 H114       20.2499  -30.4365  -44.2667 H         1 UNK         0.0970 
    115 H115       21.3962  -30.2987  -45.5518 H         1 UNK         0.0970 
    116 H116       19.2952  -33.0444  -43.5500 H         1 UNK         0.0612 
    117 H117       18.6128  -33.8454  -44.9438 H         1 UNK         0.0612 
@<TRIPOS>BOND
     1    1    2 1    
     2    1   62 1    
     3    1   63 1    
     4    1   64 1    
     5    2    3 2    
     6    2    4 am   BACKBONE|DICT|INTERRES
     7    4    5 1    
     8    4   65 1    
     9    5    6 1    
    10    5   25 1    
    11    5   66 1    
    12    6    7 1    
    13    6   67 1    
    14    6   68 1    
    15    7    8 1    
    16    8    9 1    
    17    8   69 1    
    18    8   70 1    
    19    9   10 ar   
    20    9   14 ar   
    21   10   11 ar   
    22   10   71 1    
    23   11   12 ar   
    24   11   61 1    
    25   12   13 ar   
    26   12   72 1    
    27   13   14 ar   
    28   13   15 1    
    29   14   73 1    
    30   15   16 1    
    31   15   74 1    
    32   15   75 1    
    33   16   17 1    
    34   17   18 1    
    35   17   76 1    
    36   17   77 1    
    37   18   19 1    
    38   18   27 1    
    39   18   78 1    
    40   19   20 am   BACKBONE|DICT|INTERRES
    41   19   79 1    
    42   20   21 2    
    43   20   22 1    
    44   22   23 1    
    45   22   24 1    
    46   22   80 1    
    47   23   81 1    
    48   23   82 1    
    49   23   83 1    
    50   24   25 am   BACKBONE|DICT|INTERRES
    51   24   84 1    
    52   25   26 2    
    53   27   28 2    
    54   27   29 am   BACKBONE|DICT|INTERRES
    55   29   30 1    
    56   29   85 1    
    57   30   31 1    
    58   30   32 1    
    59   30   86 1    
    60   31   87 1    
    61   31   88 1    
    62   31   89 1    
    63   32   33 2    
    64   32   34 am   BACKBONE|DICT|INTERRES
    65   34   35 1    
    66   34   90 1    
    67   35   36 1    
    68   35   37 1    
    69   35   91 1    
    70   36   92 1    
    71   36   93 1    
    72   36   94 1    
    73   37   38 2    
    74   37   39 am   BACKBONE|DICT|INTERRES
    75   39   40 1    
    76   39   95 1    
    77   40   41 1    
    78   40   42 1    
    79   40   96 1    
    80   41   97 1    
    81   41   98 1    
    82   41   99 1    
    83   42   43 2    
    84   42   44 am   BACKBONE|DICT|INTERRES
    85   44   45 1    
    86   44  100 1    
    87   45   46 1    
    88   45   47 1    
    89   45  101 1    
    90   46  102 1    
    91   46  103 1    
    92   46  104 1    
    93   47   48 2    
    94   47   49 am   BACKBONE|DICT|INTERRES
    95   49   50 1    
    96   49  105 1    
    97   50   51 1    
    98   50   52 1    
    99   50  106 1    
   100   51  107 1    
   101   51  108 1    
   102   51  109 1    
   103   52   53 2    
   104   52   54 am   BACKBONE|DICT|INTERRES
   105   54   55 1    
   106   54  110 1    
   107   55   56 1    
   108   55   59 1    
   109   55  111 1    
   110   56   57 am   BACKBONE|DICT|INTERRES
   111   56   58 2    
   112   57  112 1    
   113   57  113 1    
   114   59   60 1    
   115   59  114 1    
   116   59  115 1    
   117   60   61 1    
   118   61  116 1    
   119   61  117 1    
@<TRIPOS>SUBSTRUCTURE
     1 UNK         1 GROUP             0       ****    0 ROOT    
