@<TRIPOS>MOLECULE
3R8
117   119    1
SMALL
USER_CHARGES


@<TRIPOS>ATOM
      1 CA         13.8691  -25.3844  -42.0959 C.3       0 UNK        -0.2013 
      2 C          14.7939  -25.8758  -43.1993 C.2       0 UNK         0.4866 
      3 O          14.6315  -25.4811  -44.3541 O.2       0 UNK        -0.5176 
      4 N          15.7597  -26.7377  -42.8534 N.am      1 UNK        -0.4884 
      5 CA         16.7406  -27.3168  -43.7802 C.3       1 UNK         0.0853 
      6 C6         17.5468  -28.4596  -43.1160 C.3       10 UNK        -0.0849 
      7 S7         16.5896  -29.9977  -42.9256 S.3       10 UNK        -0.2776 
      8 C8         16.7570  -30.7469  -44.5818 C.3       10 UNK         0.0316 
      9 C9         18.1661  -31.2568  -44.8572 C.ar      10 UNK        -0.0863 
     10 C10        18.5219  -32.5614  -44.5055 C.ar      10 UNK        -0.1009 
     11 C11        19.8024  -33.0503  -44.7837 C.ar      10 UNK        -0.0712 
     12 C12        20.7329  -32.2112  -45.4073 C.ar      10 UNK        -0.0894 
     13 C13        20.3923  -30.9041  -45.7742 C.ar      10 UNK        -0.0745 
     14 C14        19.0974  -30.4440  -45.5109 C.ar      10 UNK        -0.0972 
     15 C15        21.4086  -30.0423  -46.5271 C.3       10 UNK         0.0209 
     16 S16        21.3173  -28.2506  -46.1724 S.3       10 UNK        -0.2568 
     17 C17        21.9988  -28.1832  -44.4869 C.3       10 UNK        -0.0983 
     18 CA         22.1250  -26.7369  -43.9341 C.3       3 UNK         0.0876 
     19 N          20.8170  -26.0663  -43.8875 N.am      3 UNK        -0.4424 
     20 C          20.5879  -24.7462  -43.8781 C.2       2 UNK         0.4918 
     21 O          21.4944  -23.9128  -43.8910 O.2       2 UNK        -0.4875 
     22 CA         19.1273  -24.2529  -43.7702 C.3       2 UNK         0.0481 
     23 CB         18.7412  -23.3726  -44.9762 C.3       2 UNK        -0.1831 
     24 N          18.1241  -25.3023  -43.5232 N.am      2 UNK        -0.4498 
     25 C          17.7219  -26.2764  -44.3546 C.2       1 UNK         0.5027 
     26 O          18.1350  -26.4158  -45.5047 O.2       1 UNK        -0.4969 
     27 C          22.8316  -26.7131  -42.5556 C.2       3 UNK         0.5005 
     28 O          23.3262  -27.7480  -42.1021 O.2       3 UNK        -0.5279 
     29 N          22.8385  -25.5472  -41.8929 N.am      4 UNK        -0.4463 
     30 CA         23.3707  -25.3179  -40.5473 C.3       4 UNK         0.0283 
     31 CB         23.1704  -23.8431  -40.1651 C.3       4 UNK        -0.1875 
     32 C          24.8508  -25.7113  -40.4359 C.2       4 UNK         0.4949 
     33 O          25.6485  -25.3152  -41.2878 O.2       4 UNK        -0.5039 
     34 N          25.1701  -26.5240  -39.4199 N.am      5 UNK        -0.4663 
     35 CA         26.4622  -27.1645  -39.1204 C.3       5 UNK         0.0242 
     36 CB         27.5695  -26.1191  -38.8802 C.3       5 UNK        -0.1982 
     37 C          26.9159  -28.2270  -40.1435 C.2       5 UNK         0.5017 
     38 O          27.5699  -29.1913  -39.7451 O.2       5 UNK        -0.5012 
     39 N          26.5682  -28.0476  -41.4238 N.am      6 UNK        -0.4439 
     40 CA         26.8619  -28.9609  -42.5271 C.3       6 UNK         0.0297 
     41 CB         26.5627  -28.2629  -43.8643 C.3       6 UNK        -0.2006 
     42 C          26.0941  -30.2884  -42.4244 C.2       6 UNK         0.4892 
     43 O          26.6972  -31.3447  -42.6199 O.2       6 UNK        -0.5089 
     44 N          24.7916  -30.2143  -42.1231 N.am      7 UNK        -0.4243 
     45 CA         23.9013  -31.3639  -41.9973 C.3       7 UNK         0.0196 
     46 CB         23.5437  -31.9257  -43.3905 C.3       7 UNK        -0.2007 
     47 C          22.6828  -30.9574  -41.1599 C.2       7 UNK         0.5020 
     48 O          22.7643  -31.0001  -39.9325 O.2       7 UNK        -0.5147 
     49 N          21.5916  -30.5724  -41.8392 N.am      8 UNK        -0.4734 
     50 CA         20.2799  -30.1936  -41.2969 C.3       8 UNK         0.0238 
     51 CB         20.3611  -28.9037  -40.4524 C.3       8 UNK        -0.1912 
     52 C          19.6159  -31.3656  -40.5581 C.2       8 UNK         0.5038 
     53 O          19.3770  -31.2958  -39.3510 O.2       8 UNK        -0.5046 
     54 N          19.3793  -32.4417  -41.3154 N.am      9 UNK        -0.4200 
     55 CA         18.9006  -33.7428  -40.8288 C.3       9 UNK         0.0839 
     56 C          17.4468  -33.7555  -40.2740 C.2       9 UNK         0.5513 
     57 N          16.6172  -32.7585  -40.5575 N.am      9 UNK        -0.7519 
     58 O          17.0668  -34.6926  -39.5771 O.2       9 UNK        -0.4960 
     59 C59        19.0870  -34.8642  -41.8879 C.3       10 UNK        -0.0876 
     60 S60        20.6873  -34.7976  -42.7736 S.3       10 UNK        -0.2414 
     61 C61        20.1573  -34.5061  -44.4936 C.3       10 UNK         0.0169 
     62 H62        12.8374  -25.6497  -42.3256 H         1 UNK         0.0903 
     63 H63        14.1222  -25.8163  -41.1278 H         1 UNK         0.0903 
     64 H64        13.9310  -24.2999  -42.0099 H         1 UNK         0.0903 
     65 H65        15.8201  -27.0537  -41.8955 H         1 UNK         0.3096 
     66 H66        16.1910  -27.7199  -44.6337 H         1 UNK         0.1121 
     67 H67        17.8902  -28.1504  -42.1274 H         1 UNK         0.0849 
     68 H68        18.4546  -28.6848  -43.6727 H         1 UNK         0.0849 
     69 H69        16.0480  -31.5725  -44.6613 H         1 UNK         0.0865 
     70 H70        16.4583  -30.0275  -45.3453 H         1 UNK         0.0865 
     71 H71        17.7850  -33.2022  -44.0433 H         1 UNK         0.1346 
     72 H72        21.7163  -32.5934  -45.6454 H         1 UNK         0.1412 
     73 H73        18.8076  -29.4510  -45.8269 H         1 UNK         0.1426 
     74 H74        21.2436  -30.1852  -47.5957 H         1 UNK         0.0716 
     75 H75        22.4249  -30.3852  -46.3275 H         1 UNK         0.0716 
     76 H76        22.9734  -28.6750  -44.5063 H         1 UNK         0.0695 
     77 H77        21.3555  -28.7791  -43.8407 H         1 UNK         0.0695 
     78 H78        22.7697  -26.1772  -44.6154 H         1 UNK         0.0983 
     79 H79        20.0150  -26.6751  -43.9122 H         1 UNK         0.3095 
     80 H80        19.0975  -23.6158  -42.8851 H         1 UNK         0.0454 
     81 H81        18.8162  -23.9139  -45.9195 H         1 UNK         0.0851 
     82 H82        19.3992  -22.5060  -45.0517 H         1 UNK         0.0851 
     83 H83        17.7222  -22.9969  -44.8841 H         1 UNK         0.0851 
     84 H84        17.7167  -25.2955  -42.5978 H         1 UNK         0.2976 
     85 H85        22.4500  -24.7434  -42.3755 H         1 UNK         0.3116 
     86 H86        22.7866  -25.9342  -39.8607 H         1 UNK         0.0646 
     87 H87        22.1161  -23.5662  -40.1826 H         1 UNK         0.0847 
     88 H88        23.7045  -23.1757  -40.8428 H         1 UNK         0.0847 
     89 H89        23.5393  -23.6471  -39.1574 H         1 UNK         0.0847 
     90 H90        24.4160  -26.8077  -38.8085 H         1 UNK         0.3040 
     91 H91        26.3113  -27.6986  -38.1804 H         1 UNK         0.1015 
     92 H92        27.8132  -25.5637  -39.7862 H         1 UNK         0.0786 
     93 H93        28.4885  -26.5992  -38.5412 H         1 UNK         0.0786 
     94 H94        27.2781  -25.4009  -38.1138 H         1 UNK         0.0786 
     95 H95        26.0620  -27.1960  -41.6460 H         1 UNK         0.3172 
     96 H96        27.9295  -29.1888  -42.4957 H         1 UNK         0.0595 
     97 H97        25.5135  -27.9775  -43.9475 H         1 UNK         0.0839 
     98 H98        26.7895  -28.9190  -44.7057 H         1 UNK         0.0839 
     99 H99        27.1649  -27.3622  -43.9849 H         1 UNK         0.0839 
    100 H100       24.3616  -29.3013  -41.9734 H         1 UNK         0.2998 
    101 H101       24.4161  -32.1473  -41.4366 H         1 UNK         0.0822 
    102 H102       24.4162  -32.3669  -43.8723 H         1 UNK         0.0787 
    103 H103       22.7946  -32.7139  -43.3144 H         1 UNK         0.0787 
    104 H104       23.1605  -31.1534  -44.0563 H         1 UNK         0.0787 
    105 H105       21.6535  -30.6003  -42.8465 H         1 UNK         0.3055 
    106 H106       19.6460  -29.9854  -42.1567 H         1 UNK         0.1106 
    107 H107       21.0167  -29.0195  -39.5894 H         1 UNK         0.0828 
    108 H108       19.3775  -28.6233  -40.0738 H         1 UNK         0.0828 
    109 H109       20.7292  -28.0662  -41.0421 H         1 UNK         0.0828 
    110 H110       19.6240  -32.4135  -42.2948 H         1 UNK         0.2931 
    111 H111       19.5440  -33.9968  -39.9839 H         1 UNK         0.0412 
    112 H112       15.6787  -32.7790  -40.1909 H         1 UNK         0.3472 
    113 H113       16.9168  -31.9857  -41.1319 H         1 UNK         0.3472 
    114 H114       18.2711  -34.8541  -42.6106 H         1 UNK         0.0970 
    115 H115       19.0217  -35.8389  -41.4008 H         1 UNK         0.0970 
    116 H116       19.3123  -35.1529  -44.7342 H         1 UNK         0.0612 
    117 H117       20.9663  -34.8235  -45.1532 H         1 UNK         0.0612 
@<TRIPOS>BOND
     1    1    2 1    
     2    1   62 1    
     3    1   63 1    
     4    1   64 1    
     5    2    3 2    
     6    2    4 am   BACKBONE|DICT|INTERRES
     7    4    5 1    
     8    4   65 1    
     9    5    6 1    
    10    5   25 1    
    11    5   66 1    
    12    6    7 1    
    13    6   67 1    
    14    6   68 1    
    15    7    8 1    
    16    8    9 1    
    17    8   69 1    
    18    8   70 1    
    19    9   10 ar   
    20    9   14 ar   
    21   10   11 ar   
    22   10   71 1    
    23   11   12 ar   
    24   11   61 1    
    25   12   13 ar   
    26   12   72 1    
    27   13   14 ar   
    28   13   15 1    
    29   14   73 1    
    30   15   16 1    
    31   15   74 1    
    32   15   75 1    
    33   16   17 1    
    34   17   18 1    
    35   17   76 1    
    36   17   77 1    
    37   18   19 1    
    38   18   27 1    
    39   18   78 1    
    40   19   20 am   BACKBONE|DICT|INTERRES
    41   19   79 1    
    42   20   21 2    
    43   20   22 1    
    44   22   23 1    
    45   22   24 1    
    46   22   80 1    
    47   23   81 1    
    48   23   82 1    
    49   23   83 1    
    50   24   25 am   BACKBONE|DICT|INTERRES
    51   24   84 1    
    52   25   26 2    
    53   27   28 2    
    54   27   29 am   BACKBONE|DICT|INTERRES
    55   29   30 1    
    56   29   85 1    
    57   30   31 1    
    58   30   32 1    
    59   30   86 1    
    60   31   87 1    
    61   31   88 1    
    62   31   89 1    
    63   32   33 2    
    64   32   34 am   BACKBONE|DICT|INTERRES
    65   34   35 1    
    66   34   90 1    
    67   35   36 1    
    68   35   37 1    
    69   35   91 1    
    70   36   92 1    
    71   36   93 1    
    72   36   94 1    
    73   37   38 2    
    74   37   39 am   BACKBONE|DICT|INTERRES
    75   39   40 1    
    76   39   95 1    
    77   40   41 1    
    78   40   42 1    
    79   40   96 1    
    80   41   97 1    
    81   41   98 1    
    82   41   99 1    
    83   42   43 2    
    84   42   44 am   BACKBONE|DICT|INTERRES
    85   44   45 1    
    86   44  100 1    
    87   45   46 1    
    88   45   47 1    
    89   45  101 1    
    90   46  102 1    
    91   46  103 1    
    92   46  104 1    
    93   47   48 2    
    94   47   49 am   BACKBONE|DICT|INTERRES
    95   49   50 1    
    96   49  105 1    
    97   50   51 1    
    98   50   52 1    
    99   50  106 1    
   100   51  107 1    
   101   51  108 1    
   102   51  109 1    
   103   52   53 2    
   104   52   54 am   BACKBONE|DICT|INTERRES
   105   54   55 1    
   106   54  110 1    
   107   55   56 1    
   108   55   59 1    
   109   55  111 1    
   110   56   57 am   BACKBONE|DICT|INTERRES
   111   56   58 2    
   112   57  112 1    
   113   57  113 1    
   114   59   60 1    
   115   59  114 1    
   116   59  115 1    
   117   60   61 1    
   118   61  116 1    
   119   61  117 1    
@<TRIPOS>SUBSTRUCTURE
     1 UNK         1 GROUP             0       ****    0 ROOT    
