@<TRIPOS>MOLECULE
3R8
117   119    1
SMALL
USER_CHARGES


@<TRIPOS>ATOM
      1 CA         15.9701  -24.2046  -40.2821 C.3       0 UNK        -0.2013 
      2 C          16.2686  -24.5588  -41.7313 C.2       0 UNK         0.4866 
      3 O          16.0972  -23.7184  -42.6153 O.2       0 UNK        -0.5176 
      4 N          16.7043  -25.7991  -41.9827 N.am      1 UNK        -0.4884 
      5 CA         17.0898  -26.3014  -43.3057 C.3       1 UNK         0.0853 
      6 C6         17.2677  -27.8399  -43.3071 C.3       10 UNK        -0.0849 
      7 S7         15.7537  -28.7386  -42.8246 S.3       10 UNK        -0.2776 
      8 C8         15.2848  -29.5805  -44.3731 C.3       10 UNK         0.0316 
      9 C9         16.2882  -30.6544  -44.7762 C.ar      10 UNK        -0.0863 
     10 C10        16.3471  -31.8641  -44.0764 C.ar      10 UNK        -0.1009 
     11 C11        17.2662  -32.8527  -44.4420 C.ar      10 UNK        -0.0712 
     12 C12        18.1332  -32.6204  -45.5143 C.ar      10 UNK        -0.0894 
     13 C13        18.0796  -31.4210  -46.2311 C.ar      10 UNK        -0.0745 
     14 C14        17.1446  -30.4473  -45.8625 C.ar      10 UNK        -0.0972 
     15 C15        19.0133  -31.2095  -47.4211 C.3       10 UNK         0.0209 
     16 S16        19.8111  -29.5690  -47.4572 S.3       10 UNK        -0.2568 
     17 C17        20.7464  -29.5922  -45.8919 C.3       10 UNK        -0.0983 
     18 CA         21.4696  -28.2527  -45.6021 C.3       3 UNK         0.0876 
     19 N          20.5399  -27.1222  -45.6459 N.am      3 UNK        -0.4424 
     20 C          20.8726  -25.8286  -45.7361 C.2       2 UNK         0.4918 
     21 O          22.0312  -25.4206  -45.8107 O.2       2 UNK        -0.4875 
     22 CA         19.7072  -24.8185  -45.7259 C.3       2 UNK         0.0481 
     23 CB         19.3734  -24.3745  -47.1589 C.3       2 UNK        -0.1831 
     24 N          18.4906  -25.3337  -45.0811 N.am      2 UNK        -0.4498 
     25 C          18.3991  -25.6400  -43.7786 C.2       1 UNK         0.5027 
     26 O          19.3273  -25.4923  -42.9805 O.2       1 UNK        -0.4969 
     27 C          22.2358  -28.3551  -44.2653 C.2       3 UNK         0.5005 
     28 O          23.2689  -29.0243  -44.2284 O.2       3 UNK        -0.5279 
     29 N          21.7385  -27.7067  -43.1985 N.am      4 UNK        -0.4463 
     30 CA         22.1820  -27.8494  -41.8060 C.3       4 UNK         0.0283 
     31 CB         21.0731  -27.3282  -40.8725 C.3       4 UNK        -0.1875 
     32 C          23.5557  -27.2262  -41.4760 C.2       4 UNK         0.4949 
     33 O          23.7487  -26.7303  -40.3640 O.2       4 UNK        -0.5039 
     34 N          24.5105  -27.2967  -42.4103 N.am      5 UNK        -0.4663 
     35 CA         25.9186  -26.9573  -42.2059 C.3       5 UNK         0.0242 
     36 CB         26.6455  -26.9705  -43.5606 C.3       5 UNK        -0.1982 
     37 C          26.5390  -27.9639  -41.2258 C.2       5 UNK         0.5017 
     38 O          26.5921  -29.1526  -41.5431 O.2       5 UNK        -0.5012 
     39 N          26.9048  -27.4858  -40.0280 N.am      6 UNK        -0.4439 
     40 CA         27.2970  -28.2833  -38.8563 C.3       6 UNK         0.0297 
     41 CB         28.6409  -29.0045  -39.0980 C.3       6 UNK        -0.2006 
     42 C          26.1786  -29.2373  -38.3762 C.2       6 UNK         0.4892 
     43 O          26.4731  -30.3263  -37.8813 O.2       6 UNK        -0.5089 
     44 N          24.9173  -28.8018  -38.5360 N.am      7 UNK        -0.4243 
     45 CA         23.6747  -29.5022  -38.1887 C.3       7 UNK         0.0196 
     46 CB         23.5708  -29.7295  -36.6651 C.3       7 UNK        -0.2007 
     47 C          23.4267  -30.7876  -39.0047 C.2       7 UNK         0.5020 
     48 O          22.7553  -31.6976  -38.5151 O.2       7 UNK        -0.5147 
     49 N          23.9345  -30.8441  -40.2448 N.am      8 UNK        -0.4734 
     50 CA         23.7893  -31.9659  -41.1831 C.3       8 UNK         0.0238 
     51 CB         24.8858  -31.8527  -42.2582 C.3       8 UNK        -0.1912 
     52 C          22.3740  -32.0920  -41.7951 C.2       8 UNK         0.5038 
     53 O          22.2351  -32.1143  -43.0187 O.2       8 UNK        -0.5046 
     54 N          21.3639  -32.2085  -40.9239 N.am      9 UNK        -0.4200 
     55 CA         19.9246  -32.3183  -41.2046 C.3       9 UNK         0.0839 
     56 C          19.2785  -30.9738  -41.6370 C.2       9 UNK         0.5513 
     57 N          18.1021  -30.6661  -41.1086 N.am      9 UNK        -0.7519 
     58 O          19.8080  -30.2246  -42.4500 O.2       9 UNK        -0.4960 
     59 C59        19.5819  -33.4821  -42.1760 C.3       10 UNK        -0.0876 
     60 S60        17.8599  -34.0586  -41.9839 S.3       10 UNK        -0.2414 
     61 C61        17.2969  -34.1902  -43.7113 C.3       10 UNK         0.0169 
     62 H62        16.1528  -25.0437  -39.6110 H         1 UNK         0.0903 
     63 H63        16.5973  -23.3727  -39.9629 H         1 UNK         0.0903 
     64 H64        14.9275  -23.9063  -40.1756 H         1 UNK         0.0903 
     65 H65        16.8291  -26.4480  -41.2192 H         1 UNK         0.3096 
     66 H66        16.2941  -26.0406  -44.0074 H         1 UNK         0.1121 
     67 H67        17.5923  -28.1855  -44.2889 H         1 UNK         0.0849 
     68 H68        18.0637  -28.1283  -42.6187 H         1 UNK         0.0849 
     69 H69        14.3045  -30.0403  -44.2396 H         1 UNK         0.0865 
     70 H70        15.1654  -28.8396  -45.1652 H         1 UNK         0.0865 
     71 H71        15.6796  -32.0355  -43.2428 H         1 UNK         0.1346 
     72 H72        18.8425  -33.3843  -45.8024 H         1 UNK         0.1412 
     73 H73        17.0900  -29.5231  -46.4211 H         1 UNK         0.1426 
     74 H74        18.4394  -31.3383  -48.3396 H         1 UNK         0.0716 
     75 H75        19.7953  -31.9703  -47.4373 H         1 UNK         0.0716 
     76 H76        21.4634  -30.4147  -45.9348 H         1 UNK         0.0695 
     77 H77        20.0562  -29.8313  -45.0808 H         1 UNK         0.0695 
     78 H78        22.2175  -28.0952  -46.3825 H         1 UNK         0.0983 
     79 H79        19.5613  -27.3630  -45.6374 H         1 UNK         0.3095 
     80 H80        20.0384  -23.9416  -45.1656 H         1 UNK         0.0454 
     81 H81        20.2529  -23.9589  -47.6529 H         1 UNK         0.0851 
     82 H82        18.6055  -23.6009  -47.1674 H         1 UNK         0.0851 
     83 H83        19.0211  -25.2068  -47.7696 H         1 UNK         0.0851 
     84 H84        17.6886  -25.4755  -45.6793 H         1 UNK         0.2976 
     85 H85        20.9213  -27.1267  -43.3369 H         1 UNK         0.3116 
     86 H86        22.2823  -28.9195  -41.6170 H         1 UNK         0.0646 
     87 H87        20.1130  -27.7947  -41.0927 H         1 UNK         0.0847 
     88 H88        20.9502  -26.2484  -40.9617 H         1 UNK         0.0847 
     89 H89        21.2983  -27.5436  -39.8280 H         1 UNK         0.0847 
     90 H90        24.2812  -27.8198  -43.2524 H         1 UNK         0.3040 
     91 H91        25.9785  -25.9498  -41.7885 H         1 UNK         0.1015 
     92 H92        27.7009  -26.7232  -43.4390 H         1 UNK         0.0786 
     93 H93        26.2171  -26.2396  -44.2468 H         1 UNK         0.0786 
     94 H94        26.5918  -27.9496  -44.0391 H         1 UNK         0.0786 
     95 H95        26.7969  -26.4941  -39.8600 H         1 UNK         0.3172 
     96 H96        27.4506  -27.5716  -38.0439 H         1 UNK         0.0595 
     97 H97        29.0036  -29.4718  -38.1816 H         1 UNK         0.0839 
     98 H98        29.4111  -28.3093  -39.4317 H         1 UNK         0.0839 
     99 H99        28.5512  -29.7916  -39.8473 H         1 UNK         0.0839 
    100 H100       24.7823  -27.9025  -38.9875 H         1 UNK         0.2998 
    101 H101       22.8683  -28.8225  -38.4656 H         1 UNK         0.0822 
    102 H102       23.7337  -28.8037  -36.1133 H         1 UNK         0.0787 
    103 H103       22.5815  -30.0975  -36.3903 H         1 UNK         0.0787 
    104 H104       24.2971  -30.4628  -36.3135 H         1 UNK         0.0787 
    105 H105       24.5066  -30.0739  -40.5642 H         1 UNK         0.3055 
    106 H106       23.9703  -32.8914  -40.6317 H         1 UNK         0.1106 
    107 H107       25.8807  -31.8451  -41.8124 H         1 UNK         0.0828 
    108 H108       24.8498  -32.6959  -42.9492 H         1 UNK         0.0828 
    109 H109       24.7764  -30.9416  -42.8483 H         1 UNK         0.0828 
    110 H110       21.6121  -32.1475  -39.9399 H         1 UNK         0.2931 
    111 H111       19.5047  -32.5762  -40.2308 H         1 UNK         0.0412 
    112 H112       17.6433  -31.2957  -40.4697 H         1 UNK         0.3472 
    113 H113       17.6282  -29.8332  -41.4198 H         1 UNK         0.3472 
    114 H114       19.7803  -33.1932  -43.2091 H         1 UNK         0.0970 
    115 H115       20.2284  -34.3379  -41.9773 H         1 UNK         0.0970 
    116 H116       16.2931  -34.6171  -43.7173 H         1 UNK         0.0612 
    117 H117       17.9337  -34.9052  -44.2345 H         1 UNK         0.0612 
@<TRIPOS>BOND
     1    1    2 1    
     2    1   62 1    
     3    1   63 1    
     4    1   64 1    
     5    2    3 2    
     6    2    4 am   BACKBONE|DICT|INTERRES
     7    4    5 1    
     8    4   65 1    
     9    5    6 1    
    10    5   25 1    
    11    5   66 1    
    12    6    7 1    
    13    6   67 1    
    14    6   68 1    
    15    7    8 1    
    16    8    9 1    
    17    8   69 1    
    18    8   70 1    
    19    9   10 ar   
    20    9   14 ar   
    21   10   11 ar   
    22   10   71 1    
    23   11   12 ar   
    24   11   61 1    
    25   12   13 ar   
    26   12   72 1    
    27   13   14 ar   
    28   13   15 1    
    29   14   73 1    
    30   15   16 1    
    31   15   74 1    
    32   15   75 1    
    33   16   17 1    
    34   17   18 1    
    35   17   76 1    
    36   17   77 1    
    37   18   19 1    
    38   18   27 1    
    39   18   78 1    
    40   19   20 am   BACKBONE|DICT|INTERRES
    41   19   79 1    
    42   20   21 2    
    43   20   22 1    
    44   22   23 1    
    45   22   24 1    
    46   22   80 1    
    47   23   81 1    
    48   23   82 1    
    49   23   83 1    
    50   24   25 am   BACKBONE|DICT|INTERRES
    51   24   84 1    
    52   25   26 2    
    53   27   28 2    
    54   27   29 am   BACKBONE|DICT|INTERRES
    55   29   30 1    
    56   29   85 1    
    57   30   31 1    
    58   30   32 1    
    59   30   86 1    
    60   31   87 1    
    61   31   88 1    
    62   31   89 1    
    63   32   33 2    
    64   32   34 am   BACKBONE|DICT|INTERRES
    65   34   35 1    
    66   34   90 1    
    67   35   36 1    
    68   35   37 1    
    69   35   91 1    
    70   36   92 1    
    71   36   93 1    
    72   36   94 1    
    73   37   38 2    
    74   37   39 am   BACKBONE|DICT|INTERRES
    75   39   40 1    
    76   39   95 1    
    77   40   41 1    
    78   40   42 1    
    79   40   96 1    
    80   41   97 1    
    81   41   98 1    
    82   41   99 1    
    83   42   43 2    
    84   42   44 am   BACKBONE|DICT|INTERRES
    85   44   45 1    
    86   44  100 1    
    87   45   46 1    
    88   45   47 1    
    89   45  101 1    
    90   46  102 1    
    91   46  103 1    
    92   46  104 1    
    93   47   48 2    
    94   47   49 am   BACKBONE|DICT|INTERRES
    95   49   50 1    
    96   49  105 1    
    97   50   51 1    
    98   50   52 1    
    99   50  106 1    
   100   51  107 1    
   101   51  108 1    
   102   51  109 1    
   103   52   53 2    
   104   52   54 am   BACKBONE|DICT|INTERRES
   105   54   55 1    
   106   54  110 1    
   107   55   56 1    
   108   55   59 1    
   109   55  111 1    
   110   56   57 am   BACKBONE|DICT|INTERRES
   111   56   58 2    
   112   57  112 1    
   113   57  113 1    
   114   59   60 1    
   115   59  114 1    
   116   59  115 1    
   117   60   61 1    
   118   61  116 1    
   119   61  117 1    
@<TRIPOS>SUBSTRUCTURE
     1 UNK         1 GROUP             0       ****    0 ROOT    
