@<TRIPOS>MOLECULE
3R8
117   119    1
SMALL
USER_CHARGES


@<TRIPOS>ATOM
      1 CA         22.3764  -27.1845  -46.3117 C.3       0 UNK        -0.2013 
      2 C          20.9124  -27.1113  -45.9092 C.2       0 UNK         0.4866 
      3 O          20.5971  -27.1959  -44.7227 O.2       0 UNK        -0.5176 
      4 N          20.0095  -26.9250  -46.8826 N.am      1 UNK        -0.4884 
      5 CA         18.5463  -26.9310  -46.7090 C.3       1 UNK         0.0853 
      6 C6         17.8262  -27.3441  -48.0228 C.3       10 UNK        -0.0849 
      7 S7         16.2369  -28.2164  -47.7782 S.3       10 UNK        -0.2776 
      8 C8         16.7527  -29.9331  -47.4158 C.3       10 UNK         0.0316 
      9 C9         17.3596  -30.0567  -46.0245 C.ar      10 UNK        -0.0863 
     10 C10        18.7034  -30.4093  -45.8624 C.ar      10 UNK        -0.1009 
     11 C11        19.2855  -30.4188  -44.5903 C.ar      10 UNK        -0.0712 
     12 C12        18.5095  -30.0902  -43.4743 C.ar      10 UNK        -0.0894 
     13 C13        17.1628  -29.7475  -43.6227 C.ar      10 UNK        -0.0745 
     14 C14        16.5909  -29.7494  -44.8977 C.ar      10 UNK        -0.0972 
     15 C15        16.3194  -29.3517  -42.4197 C.3       10 UNK         0.0209 
     16 S16        16.0942  -27.5441  -42.3386 S.3       10 UNK        -0.2568 
     17 C17        17.3777  -27.0337  -41.1458 C.3       10 UNK        -0.0983 
     18 CA         18.7734  -26.8044  -41.7814 C.3       3 UNK         0.0876 
     19 N          18.8055  -25.8806  -42.9231 N.am      3 UNK        -0.4424 
     20 C          18.3736  -24.6124  -43.0091 C.2       2 UNK         0.4918 
     21 O          17.9113  -23.9869  -42.0552 O.2       2 UNK        -0.4875 
     22 CA         18.5318  -23.8975  -44.3705 C.3       2 UNK         0.0481 
     23 CB         19.6430  -22.8381  -44.2883 C.3       2 UNK        -0.1831 
     24 N          18.8460  -24.8320  -45.4544 N.am      2 UNK        -0.4498 
     25 C          17.9656  -25.6746  -46.0126 C.2       1 UNK         0.5027 
     26 O          16.7472  -25.5239  -45.9210 O.2       1 UNK        -0.4969 
     27 C          19.8299  -26.4770  -40.7111 C.2       3 UNK         0.5005 
     28 O          20.4496  -27.3995  -40.1792 O.2       3 UNK        -0.5279 
     29 N          20.0671  -25.1821  -40.4562 N.am      4 UNK        -0.4463 
     30 CA         21.0729  -24.6408  -39.5334 C.3       4 UNK         0.0283 
     31 CB         20.9390  -23.1098  -39.4963 C.3       4 UNK        -0.1875 
     32 C          22.5263  -25.0439  -39.8549 C.2       4 UNK         0.4949 
     33 O          23.3828  -24.9520  -38.9756 O.2       4 UNK        -0.5039 
     34 N          22.7760  -25.4975  -41.0918 N.am      5 UNK        -0.4663 
     35 CA         24.0385  -26.0887  -41.5380 C.3       5 UNK         0.0242 
     36 CB         23.9827  -26.2919  -43.0607 C.3       5 UNK        -0.1982 
     37 C          24.3766  -27.4178  -40.8349 C.2       5 UNK         0.5017 
     38 O          25.5616  -27.7119  -40.6756 O.2       5 UNK        -0.5012 
     39 N          23.3442  -28.1744  -40.4215 N.am      6 UNK        -0.4439 
     40 CA         23.4037  -29.4627  -39.7215 C.3       6 UNK         0.0297 
     41 CB         23.8253  -29.2483  -38.2503 C.3       6 UNK        -0.2006 
     42 C          24.2531  -30.5056  -40.4771 C.2       6 UNK         0.4892 
     43 O          23.8189  -30.9790  -41.5293 O.2       6 UNK        -0.5089 
     44 N          25.4370  -30.8337  -39.9363 N.am      7 UNK        -0.4243 
     45 CA         26.4153  -31.7961  -40.4505 C.3       7 UNK         0.0196 
     46 CB         27.0345  -31.2959  -41.7770 C.3       7 UNK        -0.2007 
     47 C          25.8106  -33.2088  -40.5224 C.2       7 UNK         0.5020 
     48 O          25.5616  -33.8055  -39.4742 O.2       7 UNK        -0.5147 
     49 N          25.5788  -33.7168  -41.7389 N.am      8 UNK        -0.4734 
     50 CA         24.9388  -35.0104  -41.9875 C.3       8 UNK         0.0238 
     51 CB         25.1935  -35.4249  -43.4461 C.3       8 UNK        -0.1912 
     52 C          23.4292  -35.0164  -41.6842 C.2       8 UNK         0.5038 
     53 O          22.8818  -36.0895  -41.4254 O.2       8 UNK        -0.5046 
     54 N          22.7825  -33.8447  -41.7378 N.am      9 UNK        -0.4200 
     55 CA         21.3498  -33.6775  -41.4668 C.3       9 UNK         0.0839 
     56 C          21.0759  -33.6093  -39.9427 C.2       9 UNK         0.5513 
     57 N          20.0371  -34.2819  -39.4673 N.am      9 UNK        -0.7519 
     58 O          21.7667  -32.9171  -39.1980 O.2       9 UNK        -0.4960 
     59 C59        20.7653  -32.4362  -42.1857 C.3       10 UNK        -0.0876 
     60 S60        21.0307  -32.4833  -43.9916 S.3       10 UNK        -0.2414 
     61 C61        20.7644  -30.7393  -44.4313 C.3       10 UNK         0.0169 
     62 H62        22.4990  -27.2425  -47.3930 H         1 UNK         0.0903 
     63 H63        22.9090  -26.3040  -45.9542 H         1 UNK         0.0903 
     64 H64        22.8405  -28.0667  -45.8714 H         1 UNK         0.0903 
     65 H65        20.3325  -26.8162  -47.8343 H         1 UNK         0.3096 
     66 H66        18.3544  -27.7065  -45.9717 H         1 UNK         0.1121 
     67 H67        17.6546  -26.4712  -48.6553 H         1 UNK         0.0849 
     68 H68        18.4626  -28.0082  -48.6101 H         1 UNK         0.0849 
     69 H69        15.8801  -30.5847  -47.4786 H         1 UNK         0.0865 
     70 H70        17.4474  -30.2767  -48.1839 H         1 UNK         0.0865 
     71 H71        19.3083  -30.6396  -46.7288 H         1 UNK         0.1346 
     72 H72        18.9602  -30.0858  -42.4920 H         1 UNK         0.1412 
     73 H73        15.5551  -29.4617  -45.0190 H         1 UNK         0.1426 
     74 H74        16.7572  -29.7273  -41.4939 H         1 UNK         0.0716 
     75 H75        15.3381  -29.8214  -42.5011 H         1 UNK         0.0716 
     76 H76        17.4360  -27.7847  -40.3557 H         1 UNK         0.0695 
     77 H77        17.0295  -26.1215  -40.6585 H         1 UNK         0.0695 
     78 H78        19.0925  -27.7549  -42.2054 H         1 UNK         0.0983 
     79 H79        19.2684  -26.2767  -43.7374 H         1 UNK         0.3095 
     80 H80        17.5898  -23.3936  -44.5954 H         1 UNK         0.0454 
     81 H81        19.4249  -22.1025  -43.5127 H         1 UNK         0.0851 
     82 H82        19.7423  -22.2940  -45.2277 H         1 UNK         0.0851 
     83 H83        20.6111  -23.2820  -44.0527 H         1 UNK         0.0851 
     84 H84        19.8247  -25.0338  -45.6036 H         1 UNK         0.2976 
     85 H85        19.4691  -24.5104  -40.9276 H         1 UNK         0.3116 
     86 H86        20.8451  -25.0308  -38.5394 H         1 UNK         0.0646 
     87 H87        21.1293  -22.6645  -40.4737 H         1 UNK         0.0847 
     88 H88        19.9425  -22.8047  -39.1761 H         1 UNK         0.0847 
     89 H89        21.6500  -22.6713  -38.7945 H         1 UNK         0.0847 
     90 H90        22.0087  -25.5197  -41.7469 H         1 UNK         0.3040 
     91 H91        24.8404  -25.3830  -41.3096 H         1 UNK         0.1015 
     92 H92        24.9195  -26.7084  -43.4338 H         1 UNK         0.0786 
     93 H93        23.8178  -25.3491  -43.5827 H         1 UNK         0.0786 
     94 H94        23.1847  -26.9794  -43.3451 H         1 UNK         0.0786 
     95 H95        22.4050  -27.8213  -40.5784 H         1 UNK         0.3172 
     96 H96        22.3848  -29.8535  -39.7142 H         1 UNK         0.0595 
     97 H97        24.8097  -28.7874  -38.1621 H         1 UNK         0.0839 
     98 H98        23.8441  -30.1924  -37.7037 H         1 UNK         0.0839 
     99 H99        23.1161  -28.5990  -37.7366 H         1 UNK         0.0839 
    100 H100       25.6853  -30.3877  -39.0649 H         1 UNK         0.2998 
    101 H101       27.2185  -31.8466  -39.7137 H         1 UNK         0.0822 
    102 H102       27.7954  -31.9873  -42.1419 H         1 UNK         0.0787 
    103 H103       27.5223  -30.3312  -41.6355 H         1 UNK         0.0787 
    104 H104       26.2925  -31.1695  -42.5659 H         1 UNK         0.0787 
    105 H105       25.7967  -33.1479  -42.5447 H         1 UNK         0.3055 
    106 H106       25.4024  -35.7533  -41.3341 H         1 UNK         0.1106 
    107 H107       26.2602  -35.4985  -43.6587 H         1 UNK         0.0828 
    108 H108       24.7555  -36.4019  -43.6558 H         1 UNK         0.0828 
    109 H109       24.7568  -34.7153  -44.1502 H         1 UNK         0.0828 
    110 H110       23.3065  -32.9901  -41.8886 H         1 UNK         0.2931 
    111 H111       20.8298  -34.5510  -41.8669 H         1 UNK         0.0412 
    112 H112       19.8333  -34.2360  -38.4809 H         1 UNK         0.3472 
    113 H113       19.4599  -34.8464  -40.0719 H         1 UNK         0.3472 
    114 H114       19.6912  -32.3712  -42.0043 H         1 UNK         0.0970 
    115 H115       21.2034  -31.5216  -41.7819 H         1 UNK         0.0970 
    116 H116       21.2910  -30.5334  -45.3643 H         1 UNK         0.0612 
    117 H117       21.2171  -30.0856  -43.6837 H         1 UNK         0.0612 
@<TRIPOS>BOND
     1    1    2 1    
     2    1   62 1    
     3    1   63 1    
     4    1   64 1    
     5    2    3 2    
     6    2    4 am   BACKBONE|DICT|INTERRES
     7    4    5 1    
     8    4   65 1    
     9    5    6 1    
    10    5   25 1    
    11    5   66 1    
    12    6    7 1    
    13    6   67 1    
    14    6   68 1    
    15    7    8 1    
    16    8    9 1    
    17    8   69 1    
    18    8   70 1    
    19    9   10 ar   
    20    9   14 ar   
    21   10   11 ar   
    22   10   71 1    
    23   11   12 ar   
    24   11   61 1    
    25   12   13 ar   
    26   12   72 1    
    27   13   14 ar   
    28   13   15 1    
    29   14   73 1    
    30   15   16 1    
    31   15   74 1    
    32   15   75 1    
    33   16   17 1    
    34   17   18 1    
    35   17   76 1    
    36   17   77 1    
    37   18   19 1    
    38   18   27 1    
    39   18   78 1    
    40   19   20 am   BACKBONE|DICT|INTERRES
    41   19   79 1    
    42   20   21 2    
    43   20   22 1    
    44   22   23 1    
    45   22   24 1    
    46   22   80 1    
    47   23   81 1    
    48   23   82 1    
    49   23   83 1    
    50   24   25 am   BACKBONE|DICT|INTERRES
    51   24   84 1    
    52   25   26 2    
    53   27   28 2    
    54   27   29 am   BACKBONE|DICT|INTERRES
    55   29   30 1    
    56   29   85 1    
    57   30   31 1    
    58   30   32 1    
    59   30   86 1    
    60   31   87 1    
    61   31   88 1    
    62   31   89 1    
    63   32   33 2    
    64   32   34 am   BACKBONE|DICT|INTERRES
    65   34   35 1    
    66   34   90 1    
    67   35   36 1    
    68   35   37 1    
    69   35   91 1    
    70   36   92 1    
    71   36   93 1    
    72   36   94 1    
    73   37   38 2    
    74   37   39 am   BACKBONE|DICT|INTERRES
    75   39   40 1    
    76   39   95 1    
    77   40   41 1    
    78   40   42 1    
    79   40   96 1    
    80   41   97 1    
    81   41   98 1    
    82   41   99 1    
    83   42   43 2    
    84   42   44 am   BACKBONE|DICT|INTERRES
    85   44   45 1    
    86   44  100 1    
    87   45   46 1    
    88   45   47 1    
    89   45  101 1    
    90   46  102 1    
    91   46  103 1    
    92   46  104 1    
    93   47   48 2    
    94   47   49 am   BACKBONE|DICT|INTERRES
    95   49   50 1    
    96   49  105 1    
    97   50   51 1    
    98   50   52 1    
    99   50  106 1    
   100   51  107 1    
   101   51  108 1    
   102   51  109 1    
   103   52   53 2    
   104   52   54 am   BACKBONE|DICT|INTERRES
   105   54   55 1    
   106   54  110 1    
   107   55   56 1    
   108   55   59 1    
   109   55  111 1    
   110   56   57 am   BACKBONE|DICT|INTERRES
   111   56   58 2    
   112   57  112 1    
   113   57  113 1    
   114   59   60 1    
   115   59  114 1    
   116   59  115 1    
   117   60   61 1    
   118   61  116 1    
   119   61  117 1    
@<TRIPOS>SUBSTRUCTURE
     1 UNK         1 GROUP             0       ****    0 ROOT    
