@<TRIPOS>MOLECULE
3R8
117   119    1
SMALL
USER_CHARGES


@<TRIPOS>ATOM
      1 CA         14.4185  -24.7725  -44.7530 C.3       0 UNK        -0.2013 
      2 C          15.3034  -25.1340  -45.9369 C.2       0 UNK         0.4866 
      3 O          15.1996  -24.5070  -46.9920 O.2       0 UNK        -0.5176 
      4 N          16.1660  -26.1431  -45.7685 N.am      1 UNK        -0.4884 
      5 CA         17.1578  -26.5795  -46.7568 C.3       1 UNK         0.0853 
      6 C6         17.2768  -28.1323  -46.7815 C.3       10 UNK        -0.0849 
      7 S7         18.2456  -28.8700  -45.4201 S.3       10 UNK        -0.2776 
      8 C8         16.9668  -29.3050  -44.2021 C.3       10 UNK         0.0316 
      9 C9         17.5918  -29.4123  -42.8205 C.ar      10 UNK        -0.0863 
     10 C10        17.8084  -30.6569  -42.2223 C.ar      10 UNK        -0.1009 
     11 C11        18.4281  -30.7452  -40.9705 C.ar      10 UNK        -0.0712 
     12 C12        18.8336  -29.5726  -40.3213 C.ar      10 UNK        -0.0894 
     13 C13        18.6215  -28.3222  -40.9113 C.ar      10 UNK        -0.0745 
     14 C14        17.9814  -28.2506  -42.1505 C.ar      10 UNK        -0.0972 
     15 C15        19.0680  -27.0502  -40.2044 C.3       10 UNK         0.0209 
     16 S16        20.7574  -26.5562  -40.6769 S.3       10 UNK        -0.2568 
     17 C17        20.4972  -25.6806  -42.2573 C.3       10 UNK        -0.0983 
     18 CA         21.5663  -26.0358  -43.3224 C.3       3 UNK         0.0876 
     19 N          21.0656  -25.7712  -44.6703 N.am      3 UNK        -0.4424 
     20 C          21.6100  -26.2161  -45.8073 C.2       2 UNK         0.4918 
     21 O          22.5865  -26.9663  -45.8482 O.2       2 UNK        -0.4875 
     22 CA         20.9269  -25.7542  -47.1142 C.3       2 UNK         0.0481 
     23 CB         21.7224  -26.1614  -48.3683 C.3       2 UNK        -0.1831 
     24 N          19.5566  -26.2641  -47.2371 N.am      2 UNK        -0.4498 
     25 C          18.4959  -25.8278  -46.5424 C.2       1 UNK         0.5027 
     26 O          18.5604  -24.8851  -45.7458 O.2       1 UNK        -0.4969 
     27 C          22.8760  -25.2630  -43.0649 C.2       3 UNK         0.5005 
     28 O          22.9595  -24.0756  -43.3914 O.2       3 UNK        -0.5279 
     29 N          23.8446  -25.9320  -42.4349 N.am      4 UNK        -0.4463 
     30 CA         25.0714  -25.3522  -41.8946 C.3       4 UNK         0.0283 
     31 CB         26.2487  -25.6666  -42.8360 C.3       4 UNK        -0.1875 
     32 C          25.2482  -25.9335  -40.4866 C.2       4 UNK         0.4949 
     33 O          26.1395  -26.7519  -40.2629 O.2       4 UNK        -0.5039 
     34 N          24.3029  -25.5901  -39.5975 N.am      5 UNK        -0.4663 
     35 CA         24.0364  -26.1515  -38.2580 C.3       5 UNK         0.0242 
     36 CB         25.2756  -26.0963  -37.3424 C.3       5 UNK        -0.1982 
     37 C          23.4135  -27.5634  -38.2858 C.2       5 UNK         0.5017 
     38 O          22.6634  -27.9107  -37.3733 O.2       5 UNK        -0.5012 
     39 N          23.6928  -28.3222  -39.3465 N.am      6 UNK        -0.4439 
     40 CA         23.0419  -29.5567  -39.7597 C.3       6 UNK         0.0297 
     41 CB         23.7944  -30.7589  -39.1611 C.3       6 UNK        -0.2006 
     42 C          23.0467  -29.5864  -41.2966 C.2       6 UNK         0.4892 
     43 O          23.6623  -28.7192  -41.9262 O.2       6 UNK        -0.5089 
     44 N          22.3740  -30.5853  -41.8706 N.am      7 UNK        -0.4243 
     45 CA         22.3729  -30.8802  -43.3017 C.3       7 UNK         0.0196 
     46 CB         21.0895  -30.3256  -43.9474 C.3       7 UNK        -0.2007 
     47 C          22.5641  -32.3944  -43.4570 C.2       7 UNK         0.5020 
     48 O          23.5859  -32.9130  -43.0058 O.2       7 UNK        -0.5147 
     49 N          21.5772  -33.0969  -44.0335 N.am      8 UNK        -0.4734 
     50 CA         21.5513  -34.5627  -44.1720 C.3       8 UNK         0.0238 
     51 CB         20.3181  -34.9702  -44.9944 C.3       8 UNK        -0.1912 
     52 C          21.5762  -35.3181  -42.8273 C.2       8 UNK         0.5038 
     53 O          22.0303  -36.4615  -42.7782 O.2       8 UNK        -0.5046 
     54 N          21.1144  -34.6460  -41.7672 N.am      9 UNK        -0.4200 
     55 CA         21.2556  -35.0280  -40.3566 C.3       9 UNK         0.0839 
     56 C          22.7131  -35.0018  -39.8039 C.2       9 UNK         0.5513 
     57 N          23.6937  -34.4355  -40.4982 N.am      9 UNK        -0.7519 
     58 O          22.9594  -35.5211  -38.7183 O.2       9 UNK        -0.4960 
     59 C59        20.2891  -34.2071  -39.4579 C.3       10 UNK        -0.0876 
     60 S60        20.3409  -32.4056  -39.7876 S.3       10 UNK        -0.2414 
     61 C61        18.6232  -32.1084  -40.3175 C.3       10 UNK         0.0169 
     62 H62        14.6033  -23.7428  -44.4483 H         1 UNK         0.0903 
     63 H63        13.3680  -24.8635  -45.0279 H         1 UNK         0.0903 
     64 H64        14.6008  -25.4180  -43.8939 H         1 UNK         0.0903 
     65 H65        16.2450  -26.5766  -44.8611 H         1 UNK         0.3096 
     66 H66        16.8114  -26.2783  -47.7483 H         1 UNK         0.1121 
     67 H67        16.2841  -28.5853  -46.8046 H         1 UNK         0.0849 
     68 H68        17.7464  -28.4462  -47.7151 H         1 UNK         0.0849 
     69 H69        16.1806  -28.5501  -44.1861 H         1 UNK         0.0865 
     70 H70        16.4914  -30.2426  -44.4942 H         1 UNK         0.0865 
     71 H71        17.5004  -31.5570  -42.7366 H         1 UNK         0.1346 
     72 H72        19.3150  -29.6344  -39.3548 H         1 UNK         0.1412 
     73 H73        17.7999  -27.2911  -42.6116 H         1 UNK         0.1426 
     74 H74        19.0435  -27.2040  -39.1245 H         1 UNK         0.0716 
     75 H75        18.3734  -26.2337  -40.4078 H         1 UNK         0.0716 
     76 H76        19.5093  -25.9346  -42.6353 H         1 UNK         0.0695 
     77 H77        20.4618  -24.6061  -42.0662 H         1 UNK         0.0695 
     78 H78        21.7744  -27.1063  -43.2659 H         1 UNK         0.0983 
     79 H79        20.2449  -25.1795  -44.7471 H         1 UNK         0.3095 
     80 H80        20.8894  -24.6630  -47.0905 H         1 UNK         0.0454 
     81 H81        21.7899  -27.2451  -48.4713 H         1 UNK         0.0851 
     82 H82        21.2653  -25.7652  -49.2752 H         1 UNK         0.0851 
     83 H83        22.7414  -25.7742  -48.3267 H         1 UNK         0.0851 
     84 H84        19.4384  -27.0693  -47.8347 H         1 UNK         0.2976 
     85 H85        23.7024  -26.9212  -42.2254 H         1 UNK         0.3116 
     86 H86        24.9796  -24.2684  -41.7955 H         1 UNK         0.0646 
     87 H87        26.3771  -26.7406  -42.9773 H         1 UNK         0.0847 
     88 H88        27.1840  -25.2735  -42.4360 H         1 UNK         0.0847 
     89 H89        26.0993  -25.2168  -43.8175 H         1 UNK         0.0847 
     90 H90        23.5939  -24.9462  -39.9231 H         1 UNK         0.3040 
     91 H91        23.2792  -25.5003  -37.8175 H         1 UNK         0.1015 
     92 H92        25.7020  -25.0937  -37.3099 H         1 UNK         0.0786 
     93 H93        26.0566  -26.7852  -37.6649 H         1 UNK         0.0786 
     94 H94        25.0114  -26.3700  -36.3202 H         1 UNK         0.0786 
     95 H95        24.3304  -27.9459  -40.0397 H         1 UNK         0.3172 
     96 H96        22.0039  -29.5564  -39.4200 H         1 UNK         0.0595 
     97 H97        24.8271  -30.8005  -39.5098 H         1 UNK         0.0839 
     98 H98        23.3205  -31.7019  -39.4338 H         1 UNK         0.0839 
     99 H99        23.8105  -30.7124  -38.0722 H         1 UNK         0.0839 
    100 H100       21.9047  -31.2566  -41.2768 H         1 UNK         0.2998 
    101 H101       23.2322  -30.4095  -43.7844 H         1 UNK         0.0822 
    102 H102       21.0008  -29.2517  -43.7874 H         1 UNK         0.0787 
    103 H103       21.0857  -30.4857  -45.0263 H         1 UNK         0.0787 
    104 H104       20.1933  -30.7855  -43.5350 H         1 UNK         0.0787 
    105 H105       20.7744  -32.5930  -44.3833 H         1 UNK         0.3055 
    106 H106       22.4476  -34.8598  -44.7212 H         1 UNK         0.1106 
    107 H107       19.3892  -34.6768  -44.5036 H         1 UNK         0.0828 
    108 H108       20.3333  -34.5170  -45.9858 H         1 UNK         0.0828 
    109 H109       20.2836  -36.0515  -45.1363 H         1 UNK         0.0828 
    110 H110       20.7587  -33.7154  -41.9222 H         1 UNK         0.2931 
    111 H111       20.9443  -36.0720  -40.2876 H         1 UNK         0.0412 
    112 H112       23.5274  -33.9975  -41.3984 H         1 UNK         0.3472 
    113 H113       24.6259  -34.4441  -40.1170 H         1 UNK         0.3472 
    114 H114       20.4918  -34.3758  -38.3984 H         1 UNK         0.0970 
    115 H115       19.2723  -34.5721  -39.6085 H         1 UNK         0.0970 
    116 H116       18.3269  -32.8996  -41.0080 H         1 UNK         0.0612 
    117 H117       17.9645  -32.1865  -39.4516 H         1 UNK         0.0612 
@<TRIPOS>BOND
     1    1    2 1    
     2    1   62 1    
     3    1   63 1    
     4    1   64 1    
     5    2    3 2    
     6    2    4 am   BACKBONE|DICT|INTERRES
     7    4    5 1    
     8    4   65 1    
     9    5    6 1    
    10    5   25 1    
    11    5   66 1    
    12    6    7 1    
    13    6   67 1    
    14    6   68 1    
    15    7    8 1    
    16    8    9 1    
    17    8   69 1    
    18    8   70 1    
    19    9   10 ar   
    20    9   14 ar   
    21   10   11 ar   
    22   10   71 1    
    23   11   12 ar   
    24   11   61 1    
    25   12   13 ar   
    26   12   72 1    
    27   13   14 ar   
    28   13   15 1    
    29   14   73 1    
    30   15   16 1    
    31   15   74 1    
    32   15   75 1    
    33   16   17 1    
    34   17   18 1    
    35   17   76 1    
    36   17   77 1    
    37   18   19 1    
    38   18   27 1    
    39   18   78 1    
    40   19   20 am   BACKBONE|DICT|INTERRES
    41   19   79 1    
    42   20   21 2    
    43   20   22 1    
    44   22   23 1    
    45   22   24 1    
    46   22   80 1    
    47   23   81 1    
    48   23   82 1    
    49   23   83 1    
    50   24   25 am   BACKBONE|DICT|INTERRES
    51   24   84 1    
    52   25   26 2    
    53   27   28 2    
    54   27   29 am   BACKBONE|DICT|INTERRES
    55   29   30 1    
    56   29   85 1    
    57   30   31 1    
    58   30   32 1    
    59   30   86 1    
    60   31   87 1    
    61   31   88 1    
    62   31   89 1    
    63   32   33 2    
    64   32   34 am   BACKBONE|DICT|INTERRES
    65   34   35 1    
    66   34   90 1    
    67   35   36 1    
    68   35   37 1    
    69   35   91 1    
    70   36   92 1    
    71   36   93 1    
    72   36   94 1    
    73   37   38 2    
    74   37   39 am   BACKBONE|DICT|INTERRES
    75   39   40 1    
    76   39   95 1    
    77   40   41 1    
    78   40   42 1    
    79   40   96 1    
    80   41   97 1    
    81   41   98 1    
    82   41   99 1    
    83   42   43 2    
    84   42   44 am   BACKBONE|DICT|INTERRES
    85   44   45 1    
    86   44  100 1    
    87   45   46 1    
    88   45   47 1    
    89   45  101 1    
    90   46  102 1    
    91   46  103 1    
    92   46  104 1    
    93   47   48 2    
    94   47   49 am   BACKBONE|DICT|INTERRES
    95   49   50 1    
    96   49  105 1    
    97   50   51 1    
    98   50   52 1    
    99   50  106 1    
   100   51  107 1    
   101   51  108 1    
   102   51  109 1    
   103   52   53 2    
   104   52   54 am   BACKBONE|DICT|INTERRES
   105   54   55 1    
   106   54  110 1    
   107   55   56 1    
   108   55   59 1    
   109   55  111 1    
   110   56   57 am   BACKBONE|DICT|INTERRES
   111   56   58 2    
   112   57  112 1    
   113   57  113 1    
   114   59   60 1    
   115   59  114 1    
   116   59  115 1    
   117   60   61 1    
   118   61  116 1    
   119   61  117 1    
@<TRIPOS>SUBSTRUCTURE
     1 UNK         1 GROUP             0       ****    0 ROOT    
