@<TRIPOS>MOLECULE
3R8
117   119    1
SMALL
USER_CHARGES


@<TRIPOS>ATOM
      1 CA         15.3363  -24.3349  -47.4382 C.3       0 UNK        -0.2013 
      2 C          16.6957  -24.0482  -46.8179 C.2       0 UNK         0.4866 
      3 O          16.9397  -22.9285  -46.3665 O.2       0 UNK        -0.5176 
      4 N          17.5858  -25.0473  -46.8004 N.am      1 UNK        -0.4884 
      5 CA         18.9096  -24.9825  -46.1740 C.3       1 UNK         0.0853 
      6 C6         19.8543  -26.0854  -46.7214 C.3       10 UNK        -0.0849 
      7 S7         19.1870  -27.7817  -46.5776 S.3       10 UNK        -0.2776 
      8 C8         20.2153  -28.4503  -45.2356 C.3       10 UNK         0.0316 
      9 C9         19.5980  -29.7091  -44.6511 C.ar      10 UNK        -0.0863 
     10 C10        19.7032  -30.9289  -45.3232 C.ar      10 UNK        -0.1009 
     11 C11        19.1234  -32.0847  -44.7919 C.ar      10 UNK        -0.0712 
     12 C12        18.4787  -32.0218  -43.5503 C.ar      10 UNK        -0.0894 
     13 C13        18.3769  -30.8065  -42.8612 C.ar      10 UNK        -0.0745 
     14 C14        18.9108  -29.6510  -43.4374 C.ar      10 UNK        -0.0972 
     15 C15        17.6523  -30.7337  -41.5205 C.3       10 UNK         0.0209 
     16 S16        18.7467  -30.2276  -40.1456 S.3       10 UNK        -0.2568 
     17 C17        18.5616  -28.4080  -40.1184 C.3       10 UNK        -0.0983 
     18 CA         19.8362  -27.6643  -40.5951 C.3       3 UNK         0.0876 
     19 N          19.5119  -26.3825  -41.2259 N.am      3 UNK        -0.4424 
     20 C          20.3734  -25.6550  -41.9462 C.2       2 UNK         0.4918 
     21 O          21.5323  -26.0009  -42.1892 O.2       2 UNK        -0.4875 
     22 CA         19.8517  -24.3196  -42.4981 C.3       2 UNK         0.0481 
     23 CB         20.7608  -23.1508  -42.0874 C.3       2 UNK        -0.1831 
     24 N          19.7584  -24.3655  -43.9565 N.am      2 UNK        -0.4498 
     25 C          18.8026  -25.0157  -44.6329 C.2       1 UNK         0.5027 
     26 O          17.8796  -25.6284  -44.0881 O.2       1 UNK        -0.4969 
     27 C          20.8741  -27.4783  -39.4690 C.2       3 UNK         0.5005 
     28 O          20.8323  -26.4718  -38.7575 O.2       3 UNK        -0.5279 
     29 N          21.8131  -28.4271  -39.3751 N.am      4 UNK        -0.4463 
     30 CA         23.0129  -28.4724  -38.5281 C.3       4 UNK         0.0283 
     31 CB         22.6891  -28.2803  -37.0338 C.3       4 UNK        -0.1875 
     32 C          24.1427  -27.5385  -38.9935 C.2       4 UNK         0.4949 
     33 O          25.3088  -27.8803  -38.7965 O.2       4 UNK        -0.5039 
     34 N          23.8030  -26.4039  -39.6174 N.am      5 UNK        -0.4663 
     35 CA         24.7601  -25.4767  -40.2184 C.3       5 UNK         0.0242 
     36 CB         24.1224  -24.0852  -40.3500 C.3       5 UNK        -0.1982 
     37 C          25.2697  -25.9929  -41.5729 C.2       5 UNK         0.5017 
     38 O          26.4821  -26.1125  -41.7529 O.2       5 UNK        -0.5012 
     39 N          24.3425  -26.2882  -42.4955 N.am      6 UNK        -0.4439 
     40 CA         24.6524  -26.7904  -43.8358 C.3       6 UNK         0.0297 
     41 CB         23.5498  -26.3603  -44.8174 C.3       6 UNK        -0.2006 
     42 C          24.8329  -28.3158  -43.8523 C.2       6 UNK         0.4892 
     43 O          25.7904  -28.8032  -44.4540 O.2       6 UNK        -0.5089 
     44 N          23.9170  -29.0361  -43.1947 N.am      7 UNK        -0.4243 
     45 CA         23.8734  -30.4938  -43.0911 C.3       7 UNK         0.0196 
     46 CB         23.4662  -31.1198  -44.4406 C.3       7 UNK        -0.2007 
     47 C          22.8666  -30.8707  -41.9995 C.2       7 UNK         0.5020 
     48 O          22.0627  -30.0285  -41.5995 O.2       7 UNK        -0.5147 
     49 N          22.9121  -32.1241  -41.5436 N.am      8 UNK        -0.4734 
     50 CA         21.9677  -32.6928  -40.5836 C.3       8 UNK         0.0238 
     51 CB         22.4969  -32.5338  -39.1459 C.3       8 UNK        -0.1912 
     52 C          21.7284  -34.1538  -40.9684 C.2       8 UNK         0.5038 
     53 O          22.3275  -35.0532  -40.3754 O.2       8 UNK        -0.5046 
     54 N          20.9096  -34.3506  -42.0064 N.am      9 UNK        -0.4200 
     55 CA         20.5463  -35.6618  -42.5610 C.3       9 UNK         0.0839 
     56 C          19.8169  -36.5764  -41.5384 C.2       9 UNK         0.5513 
     57 N          20.0818  -37.8752  -41.5677 N.am      9 UNK        -0.7519 
     58 O          18.9816  -36.1249  -40.7575 O.2       9 UNK        -0.4960 
     59 C59        19.6974  -35.5171  -43.8476 C.3       10 UNK        -0.0876 
     60 S60        20.5026  -34.4858  -45.1223 S.3       10 UNK        -0.2414 
     61 C61        19.1444  -33.3746  -45.6016 C.3       10 UNK         0.0169 
     62 H62        14.5486  -24.1846  -46.7004 H         1 UNK         0.0903 
     63 H63        15.1547  -23.6594  -48.2737 H         1 UNK         0.0903 
     64 H64        15.2642  -25.3578  -47.8074 H         1 UNK         0.0903 
     65 H65        17.3248  -25.9606  -47.1461 H         1 UNK         0.3096 
     66 H66        19.3458  -24.0176  -46.4441 H         1 UNK         0.1121 
     67 H67        20.8361  -26.0261  -46.2484 H         1 UNK         0.0849 
     68 H68        20.0390  -25.9002  -47.7808 H         1 UNK         0.0849 
     69 H69        21.2157  -28.6658  -45.6138 H         1 UNK         0.0865 
     70 H70        20.3338  -27.6991  -44.4533 H         1 UNK         0.0865 
     71 H71        20.2105  -30.9696  -46.2776 H         1 UNK         0.1346 
     72 H72        18.0282  -32.9120  -43.1347 H         1 UNK         0.1412 
     73 H73        18.7899  -28.7000  -42.9420 H         1 UNK         0.1426 
     74 H74        17.2360  -31.7103  -41.2690 H         1 UNK         0.0716 
     75 H75        16.7986  -30.0598  -41.5995 H         1 UNK         0.0716 
     76 H76        18.2744  -28.0970  -39.1119 H         1 UNK         0.0695 
     77 H77        17.7137  -28.1434  -40.7515 H         1 UNK         0.0695 
     78 H78        20.3096  -28.2586  -41.3761 H         1 UNK         0.0983 
     79 H79        18.5859  -26.0181  -41.0578 H         1 UNK         0.3095 
     80 H80        18.8583  -24.1277  -42.0867 H         1 UNK         0.0454 
     81 H81        21.7481  -23.2251  -42.5442 H         1 UNK         0.0851 
     82 H82        20.8977  -23.1224  -41.0055 H         1 UNK         0.0851 
     83 H83        20.3302  -22.1939  -42.3825 H         1 UNK         0.0851 
     84 H84        20.5010  -23.9093  -44.4664 H         1 UNK         0.2976 
     85 H85        21.7822  -29.1591  -40.0878 H         1 UNK         0.3116 
     86 H86        23.4081  -29.4807  -38.6438 H         1 UNK         0.0646 
     87 H87        22.3598  -27.2652  -36.8114 H         1 UNK         0.0847 
     88 H88        23.5709  -28.4711  -36.4210 H         1 UNK         0.0847 
     89 H89        21.9103  -28.9679  -36.7045 H         1 UNK         0.0847 
     90 H90        22.8185  -26.1863  -39.7073 H         1 UNK         0.3040 
     91 H91        25.6228  -25.3844  -39.5540 H         1 UNK         0.1015 
     92 H92        23.2236  -24.1122  -40.9626 H         1 UNK         0.0786 
     93 H93        24.8140  -23.3794  -40.8121 H         1 UNK         0.0786 
     94 H94        23.8496  -23.6814  -39.3748 H         1 UNK         0.0786 
     95 H95        23.3570  -26.1595  -42.2713 H         1 UNK         0.3172 
     96 H96        25.5872  -26.3399  -44.1771 H         1 UNK         0.0595 
     97 H97        23.7669  -26.7105  -45.8274 H         1 UNK         0.0839 
     98 H98        23.4611  -25.2747  -44.8616 H         1 UNK         0.0839 
     99 H99        22.5784  -26.7622  -44.5341 H         1 UNK         0.0839 
    100 H100       23.1725  -28.5692  -42.6915 H         1 UNK         0.2998 
    101 H101       24.8594  -30.8564  -42.7937 H         1 UNK         0.0822 
    102 H102       23.3825  -32.2049  -44.3682 H         1 UNK         0.0787 
    103 H103       22.5015  -30.7426  -44.7785 H         1 UNK         0.0787 
    104 H104       24.1979  -30.9082  -45.2201 H         1 UNK         0.0787 
    105 H105       23.5848  -32.7708  -41.9341 H         1 UNK         0.3055 
    106 H106       21.0050  -32.1798  -40.6509 H         1 UNK         0.1106 
    107 H107       21.8702  -33.0762  -38.4368 H         1 UNK         0.0828 
    108 H108       23.5144  -32.9120  -39.0417 H         1 UNK         0.0828 
    109 H109       22.4881  -31.4909  -38.8395 H         1 UNK         0.0828 
    110 H110       20.4975  -33.5507  -42.4635 H         1 UNK         0.2931 
    111 H111       21.4841  -36.1498  -42.8355 H         1 UNK         0.0412 
    112 H112       20.7581  -38.2553  -42.2124 H         1 UNK         0.3472 
    113 H113       19.6056  -38.4879  -40.9236 H         1 UNK         0.3472 
    114 H114       18.7135  -35.1132  -43.6052 H         1 UNK         0.0970 
    115 H115       19.5137  -36.4985  -44.2892 H         1 UNK         0.0970 
    116 H116       18.1855  -33.8883  -45.5198 H         1 UNK         0.0612 
    117 H117       19.2597  -33.1402  -46.6610 H         1 UNK         0.0612 
@<TRIPOS>BOND
     1    1    2 1    
     2    1   62 1    
     3    1   63 1    
     4    1   64 1    
     5    2    3 2    
     6    2    4 am   BACKBONE|DICT|INTERRES
     7    4    5 1    
     8    4   65 1    
     9    5    6 1    
    10    5   25 1    
    11    5   66 1    
    12    6    7 1    
    13    6   67 1    
    14    6   68 1    
    15    7    8 1    
    16    8    9 1    
    17    8   69 1    
    18    8   70 1    
    19    9   10 ar   
    20    9   14 ar   
    21   10   11 ar   
    22   10   71 1    
    23   11   12 ar   
    24   11   61 1    
    25   12   13 ar   
    26   12   72 1    
    27   13   14 ar   
    28   13   15 1    
    29   14   73 1    
    30   15   16 1    
    31   15   74 1    
    32   15   75 1    
    33   16   17 1    
    34   17   18 1    
    35   17   76 1    
    36   17   77 1    
    37   18   19 1    
    38   18   27 1    
    39   18   78 1    
    40   19   20 am   BACKBONE|DICT|INTERRES
    41   19   79 1    
    42   20   21 2    
    43   20   22 1    
    44   22   23 1    
    45   22   24 1    
    46   22   80 1    
    47   23   81 1    
    48   23   82 1    
    49   23   83 1    
    50   24   25 am   BACKBONE|DICT|INTERRES
    51   24   84 1    
    52   25   26 2    
    53   27   28 2    
    54   27   29 am   BACKBONE|DICT|INTERRES
    55   29   30 1    
    56   29   85 1    
    57   30   31 1    
    58   30   32 1    
    59   30   86 1    
    60   31   87 1    
    61   31   88 1    
    62   31   89 1    
    63   32   33 2    
    64   32   34 am   BACKBONE|DICT|INTERRES
    65   34   35 1    
    66   34   90 1    
    67   35   36 1    
    68   35   37 1    
    69   35   91 1    
    70   36   92 1    
    71   36   93 1    
    72   36   94 1    
    73   37   38 2    
    74   37   39 am   BACKBONE|DICT|INTERRES
    75   39   40 1    
    76   39   95 1    
    77   40   41 1    
    78   40   42 1    
    79   40   96 1    
    80   41   97 1    
    81   41   98 1    
    82   41   99 1    
    83   42   43 2    
    84   42   44 am   BACKBONE|DICT|INTERRES
    85   44   45 1    
    86   44  100 1    
    87   45   46 1    
    88   45   47 1    
    89   45  101 1    
    90   46  102 1    
    91   46  103 1    
    92   46  104 1    
    93   47   48 2    
    94   47   49 am   BACKBONE|DICT|INTERRES
    95   49   50 1    
    96   49  105 1    
    97   50   51 1    
    98   50   52 1    
    99   50  106 1    
   100   51  107 1    
   101   51  108 1    
   102   51  109 1    
   103   52   53 2    
   104   52   54 am   BACKBONE|DICT|INTERRES
   105   54   55 1    
   106   54  110 1    
   107   55   56 1    
   108   55   59 1    
   109   55  111 1    
   110   56   57 am   BACKBONE|DICT|INTERRES
   111   56   58 2    
   112   57  112 1    
   113   57  113 1    
   114   59   60 1    
   115   59  114 1    
   116   59  115 1    
   117   60   61 1    
   118   61  116 1    
   119   61  117 1    
@<TRIPOS>SUBSTRUCTURE
     1 UNK         1 GROUP             0       ****    0 ROOT    
