@<TRIPOS>MOLECULE
3R8
117   119    1
SMALL
USER_CHARGES


@<TRIPOS>ATOM
      1 CA         18.1169  -23.0614  -48.6976 C.3       0 UNK        -0.2013 
      2 C          19.1054  -24.1051  -48.1998 C.2       0 UNK         0.4866 
      3 O          20.3144  -23.9158  -48.3339 O.2       0 UNK        -0.5176 
      4 N          18.6014  -25.2064  -47.6257 N.am      1 UNK        -0.4884 
      5 CA         19.4083  -26.3090  -47.0819 C.3       1 UNK         0.0853 
      6 C6         18.5610  -27.5998  -46.9394 C.3       10 UNK        -0.0849 
      7 S7         19.5628  -29.1154  -47.1091 S.3       10 UNK        -0.2776 
      8 C8         18.3755  -30.3979  -46.5992 C.3       10 UNK         0.0316 
      9 C9         18.1371  -30.3873  -45.0961 C.ar      10 UNK        -0.0863 
     10 C10        19.0456  -31.0098  -44.2357 C.ar      10 UNK        -0.1009 
     11 C11        18.8248  -31.0238  -42.8543 C.ar      10 UNK        -0.0712 
     12 C12        17.6927  -30.3874  -42.3345 C.ar      10 UNK        -0.0894 
     13 C13        16.7905  -29.7408  -43.1844 C.ar      10 UNK        -0.0745 
     14 C14        17.0079  -29.7600  -44.5644 C.ar      10 UNK        -0.0972 
     15 C15        15.5847  -29.0054  -42.6234 C.3       10 UNK         0.0209 
     16 S16        15.8842  -27.2100  -42.5608 S.3       10 UNK        -0.2568 
     17 C17        16.8543  -27.0330  -41.0244 C.3       10 UNK        -0.0983 
     18 CA         18.3828  -26.8899  -41.2462 C.3       3 UNK         0.0876 
     19 N          18.7088  -25.8475  -42.2320 N.am      3 UNK        -0.4424 
     20 C          19.9383  -25.5015  -42.6375 C.2       2 UNK         0.4918 
     21 O          20.9741  -25.9851  -42.1777 O.2       2 UNK        -0.4875 
     22 CA         20.0022  -24.4259  -43.7349 C.3       2 UNK         0.0481 
     23 CB         21.3945  -23.7679  -43.8443 C.3       2 UNK        -0.1831 
     24 N          19.5566  -24.9492  -45.0313 N.am      2 UNK        -0.4498 
     25 C          20.1111  -25.9386  -45.7539 C.2       1 UNK         0.5027 
     26 O          21.1352  -26.5395  -45.4285 O.2       1 UNK        -0.4969 
     27 C          19.0819  -26.7031  -39.8798 C.2       3 UNK         0.5005 
     28 O          19.3699  -27.6950  -39.2102 O.2       3 UNK        -0.5279 
     29 N          19.3434  -25.4441  -39.4944 N.am      4 UNK        -0.4463 
     30 CA         20.0668  -25.0738  -38.2751 C.3       4 UNK         0.0283 
     31 CB         19.8465  -23.5801  -37.9865 C.3       4 UNK        -0.1875 
     32 C          21.5725  -25.3905  -38.3385 C.2       4 UNK         0.4949 
     33 O          22.1635  -25.6914  -37.3013 O.2       4 UNK        -0.5039 
     34 N          22.1661  -25.3177  -39.5388 N.am      5 UNK        -0.4663 
     35 CA         23.5551  -25.7097  -39.7944 C.3       5 UNK         0.0242 
     36 CB         24.1000  -24.9390  -41.0084 C.3       5 UNK        -0.1982 
     37 C          23.6604  -27.2253  -40.0161 C.2       5 UNK         0.5017 
     38 O          24.5861  -27.8518  -39.4986 O.2       5 UNK        -0.5012 
     39 N          22.6917  -27.7790  -40.7603 N.am      6 UNK        -0.4439 
     40 CA         22.4333  -29.1923  -41.0556 C.3       6 UNK         0.0297 
     41 CB         22.1664  -29.9955  -39.7654 C.3       6 UNK        -0.2006 
     42 C          23.4949  -29.8900  -41.9231 C.2       6 UNK         0.4892 
     43 O          23.1329  -30.5331  -42.9077 O.2       6 UNK        -0.5089 
     44 N          24.7695  -29.7887  -41.5236 N.am      7 UNK        -0.4243 
     45 CA         25.9386  -30.4643  -42.1031 C.3       7 UNK         0.0196 
     46 CB         26.2339  -29.9317  -43.5219 C.3       7 UNK        -0.2007 
     47 C          25.8427  -32.0056  -42.0436 C.2       7 UNK         0.5020 
     48 O          26.3495  -32.6839  -42.9382 O.2       7 UNK        -0.5147 
     49 N          25.2102  -32.5200  -40.9753 N.am      8 UNK        -0.4734 
     50 CA         24.9954  -33.9375  -40.6514 C.3       8 UNK         0.0238 
     51 CB         26.3359  -34.6196  -40.3003 C.3       8 UNK        -0.1912 
     52 C          24.2077  -34.6923  -41.7417 C.2       8 UNK         0.5038 
     53 O          24.7274  -35.6408  -42.3340 O.2       8 UNK        -0.5046 
     54 N          22.9650  -34.2529  -41.9867 N.am      9 UNK        -0.4200 
     55 CA         22.0390  -34.8657  -42.9567 C.3       9 UNK         0.0839 
     56 C          21.5242  -36.2925  -42.5966 C.2       9 UNK         0.5513 
     57 N          21.6926  -36.7740  -41.3705 N.am      9 UNK        -0.7519 
     58 O          20.9713  -36.9779  -43.4531 O.2       9 UNK        -0.4960 
     59 C59        20.8795  -33.9075  -43.3400 C.3       10 UNK        -0.0876 
     60 S60        19.7485  -33.5001  -41.9574 S.3       10 UNK        -0.2414 
     61 C61        19.8261  -31.6836  -41.9162 C.3       10 UNK         0.0169 
     62 H62        18.2431  -22.9067  -49.7689 H         1 UNK         0.0903 
     63 H63        17.0837  -23.3577  -48.5178 H         1 UNK         0.0903 
     64 H64        18.2897  -22.1107  -48.1938 H         1 UNK         0.0903 
     65 H65        17.5987  -25.3122  -47.5532 H         1 UNK         0.3096 
     66 H66        20.2025  -26.5020  -47.8076 H         1 UNK         0.1121 
     67 H67        18.0170  -27.6076  -45.9937 H         1 UNK         0.0849 
     68 H68        17.8014  -27.6429  -47.7219 H         1 UNK         0.0849 
     69 H69        17.4379  -30.2671  -47.1422 H         1 UNK         0.0865 
     70 H70        18.7623  -31.3736  -46.8972 H         1 UNK         0.0865 
     71 H71        19.9272  -31.4775  -44.6484 H         1 UNK         0.1346 
     72 H72        17.5239  -30.3770  -41.2662 H         1 UNK         0.1412 
     73 H73        16.3051  -29.2667  -45.2222 H         1 UNK         0.1426 
     74 H74        15.3184  -29.3806  -41.6342 H         1 UNK         0.0716 
     75 H75        14.7189  -29.1934  -43.2603 H         1 UNK         0.0716 
     76 H76        16.4662  -26.1550  -40.5040 H         1 UNK         0.0695 
     77 H77        16.6436  -27.8816  -40.3705 H         1 UNK         0.0695 
     78 H78        18.7570  -27.8281  -41.6602 H         1 UNK         0.0983 
     79 H79        17.9128  -25.4170  -42.6804 H         1 UNK         0.3095 
     80 H80        19.2956  -23.6426  -43.4564 H         1 UNK         0.0454 
     81 H81        22.1716  -24.4878  -44.1026 H         1 UNK         0.0851 
     82 H82        21.4030  -22.9830  -44.6003 H         1 UNK         0.0851 
     83 H83        21.6831  -23.3101  -42.8975 H         1 UNK         0.0851 
     84 H84        18.7203  -24.5262  -45.4086 H         1 UNK         0.2976 
     85 H85        19.0496  -24.6907  -40.0991 H         1 UNK         0.3116 
     86 H86        19.6451  -25.6451  -37.4451 H         1 UNK         0.0646 
     87 H87        18.7883  -23.3510  -37.8595 H         1 UNK         0.0847 
     88 H88        20.2344  -22.9501  -38.7880 H         1 UNK         0.0847 
     89 H89        20.3521  -23.2829  -37.0666 H         1 UNK         0.0847 
     90 H90        21.5952  -25.1246  -40.3520 H         1 UNK         0.3040 
     91 H91        24.1683  -25.4535  -38.9270 H         1 UNK         0.1015 
     92 H92        24.0508  -23.8619  -40.8480 H         1 UNK         0.0786 
     93 H93        23.5477  -25.1672  -41.9205 H         1 UNK         0.0786 
     94 H94        25.1453  -25.1919  -41.1906 H         1 UNK         0.0786 
     95 H95        22.0366  -27.1348  -41.2003 H         1 UNK         0.3172 
     96 H96        21.5098  -29.1872  -41.6364 H         1 UNK         0.0595 
     97 H97        21.9615  -31.0433  -39.9848 H         1 UNK         0.0839 
     98 H98        21.3024  -29.6028  -39.2297 H         1 UNK         0.0839 
     99 H99        23.0159  -29.9748  -39.0827 H         1 UNK         0.0839 
    100 H100       24.9419  -29.2079  -40.7047 H         1 UNK         0.2998 
    101 H101       26.7858  -30.1946  -41.4708 H         1 UNK         0.0822 
    102 H102       26.3053  -28.8441  -43.5302 H         1 UNK         0.0787 
    103 H103       27.1816  -30.3202  -43.8966 H         1 UNK         0.0787 
    104 H104       25.4602  -30.2228  -44.2331 H         1 UNK         0.0787 
    105 H105       24.8315  -31.8602  -40.3103 H         1 UNK         0.3055 
    106 H106       24.3759  -33.9644  -39.7532 H         1 UNK         0.1106 
    107 H107       27.0158  -34.6465  -41.1525 H         1 UNK         0.0828 
    108 H108       26.8423  -34.1034  -39.4847 H         1 UNK         0.0828 
    109 H109       26.1769  -35.6503  -39.9808 H         1 UNK         0.0828 
    110 H110       22.6056  -33.4670  -41.4667 H         1 UNK         0.2931 
    111 H111       22.6217  -35.0055  -43.8696 H         1 UNK         0.0412 
    112 H112       22.1362  -36.2174  -40.6584 H         1 UNK         0.3472 
    113 H113       21.3590  -37.7002  -41.1533 H         1 UNK         0.3472 
    114 H114       21.3116  -32.9937  -43.7480 H         1 UNK         0.0970 
    115 H115       20.2859  -34.3334  -44.1511 H         1 UNK         0.0970 
    116 H116       19.6511  -31.3558  -40.8905 H         1 UNK         0.0612 
    117 H117       20.8315  -31.3613  -42.1717 H         1 UNK         0.0612 
@<TRIPOS>BOND
     1    1    2 1    
     2    1   62 1    
     3    1   63 1    
     4    1   64 1    
     5    2    3 2    
     6    2    4 am   BACKBONE|DICT|INTERRES
     7    4    5 1    
     8    4   65 1    
     9    5    6 1    
    10    5   25 1    
    11    5   66 1    
    12    6    7 1    
    13    6   67 1    
    14    6   68 1    
    15    7    8 1    
    16    8    9 1    
    17    8   69 1    
    18    8   70 1    
    19    9   10 ar   
    20    9   14 ar   
    21   10   11 ar   
    22   10   71 1    
    23   11   12 ar   
    24   11   61 1    
    25   12   13 ar   
    26   12   72 1    
    27   13   14 ar   
    28   13   15 1    
    29   14   73 1    
    30   15   16 1    
    31   15   74 1    
    32   15   75 1    
    33   16   17 1    
    34   17   18 1    
    35   17   76 1    
    36   17   77 1    
    37   18   19 1    
    38   18   27 1    
    39   18   78 1    
    40   19   20 am   BACKBONE|DICT|INTERRES
    41   19   79 1    
    42   20   21 2    
    43   20   22 1    
    44   22   23 1    
    45   22   24 1    
    46   22   80 1    
    47   23   81 1    
    48   23   82 1    
    49   23   83 1    
    50   24   25 am   BACKBONE|DICT|INTERRES
    51   24   84 1    
    52   25   26 2    
    53   27   28 2    
    54   27   29 am   BACKBONE|DICT|INTERRES
    55   29   30 1    
    56   29   85 1    
    57   30   31 1    
    58   30   32 1    
    59   30   86 1    
    60   31   87 1    
    61   31   88 1    
    62   31   89 1    
    63   32   33 2    
    64   32   34 am   BACKBONE|DICT|INTERRES
    65   34   35 1    
    66   34   90 1    
    67   35   36 1    
    68   35   37 1    
    69   35   91 1    
    70   36   92 1    
    71   36   93 1    
    72   36   94 1    
    73   37   38 2    
    74   37   39 am   BACKBONE|DICT|INTERRES
    75   39   40 1    
    76   39   95 1    
    77   40   41 1    
    78   40   42 1    
    79   40   96 1    
    80   41   97 1    
    81   41   98 1    
    82   41   99 1    
    83   42   43 2    
    84   42   44 am   BACKBONE|DICT|INTERRES
    85   44   45 1    
    86   44  100 1    
    87   45   46 1    
    88   45   47 1    
    89   45  101 1    
    90   46  102 1    
    91   46  103 1    
    92   46  104 1    
    93   47   48 2    
    94   47   49 am   BACKBONE|DICT|INTERRES
    95   49   50 1    
    96   49  105 1    
    97   50   51 1    
    98   50   52 1    
    99   50  106 1    
   100   51  107 1    
   101   51  108 1    
   102   51  109 1    
   103   52   53 2    
   104   52   54 am   BACKBONE|DICT|INTERRES
   105   54   55 1    
   106   54  110 1    
   107   55   56 1    
   108   55   59 1    
   109   55  111 1    
   110   56   57 am   BACKBONE|DICT|INTERRES
   111   56   58 2    
   112   57  112 1    
   113   57  113 1    
   114   59   60 1    
   115   59  114 1    
   116   59  115 1    
   117   60   61 1    
   118   61  116 1    
   119   61  117 1    
@<TRIPOS>SUBSTRUCTURE
     1 UNK         1 GROUP             0       ****    0 ROOT    
