@<TRIPOS>MOLECULE
3R8
117   119    1
SMALL
USER_CHARGES


@<TRIPOS>ATOM
      1 CA         13.5318  -24.6590  -44.7289 C.3       0 UNK        -0.2013 
      2 C          14.8343  -24.3104  -45.4334 C.2       0 UNK         0.4866 
      3 O          14.9549  -23.2222  -45.9957 O.2       0 UNK        -0.5176 
      4 N          15.8150  -25.2231  -45.4017 N.am      1 UNK        -0.4884 
      5 CA         17.1303  -25.0650  -46.0406 C.3       1 UNK         0.0853 
      6 C6         17.7223  -26.4445  -46.4527 C.3       10 UNK        -0.0849 
      7 S7         18.5657  -27.3863  -45.1307 S.3       10 UNK        -0.2776 
      8 C8         17.2564  -28.4802  -44.4982 C.3       10 UNK         0.0316 
      9 C9         17.7785  -29.2422  -43.2907 C.ar      10 UNK        -0.0863 
     10 C10        18.1764  -30.5762  -43.4073 C.ar      10 UNK        -0.1009 
     11 C11        18.7312  -31.2456  -42.3130 C.ar      10 UNK        -0.0712 
     12 C12        18.9223  -30.5590  -41.1091 C.ar      10 UNK        -0.0894 
     13 C13        18.5228  -29.2247  -40.9737 C.ar      10 UNK        -0.0745 
     14 C14        17.9082  -28.5908  -42.0610 C.ar      10 UNK        -0.0972 
     15 C15        18.7498  -28.5118  -39.6380 C.3       10 UNK         0.0209 
     16 S16        18.9156  -26.6912  -39.7378 S.3       10 UNK        -0.2568 
     17 C17        20.5533  -26.4693  -40.5202 C.3       10 UNK        -0.0983 
     18 CA         20.4771  -26.3038  -42.0635 C.3       3 UNK         0.0876 
     19 N          19.5287  -25.2770  -42.5127 N.am      3 UNK        -0.4424 
     20 C          19.6358  -23.9479  -42.3724 C.2       2 UNK         0.4918 
     21 O          20.5741  -23.3889  -41.8031 O.2       2 UNK        -0.4875 
     22 CA         18.4856  -23.1022  -42.9614 C.3       2 UNK         0.0481 
     23 CB         18.9603  -21.7203  -43.4586 C.3       2 UNK        -0.1831 
     24 N          17.7054  -23.8050  -43.9924 N.am      2 UNK        -0.4498 
     25 C          18.1146  -24.2035  -45.2096 C.2       1 UNK         0.5027 
     26 O          19.2343  -23.9664  -45.6640 O.2       1 UNK        -0.4969 
     27 C          21.8537  -26.1480  -42.7397 C.2       3 UNK         0.5005 
     28 O          22.8892  -26.2949  -42.0881 O.2       3 UNK        -0.5279 
     29 N          21.8363  -25.8835  -44.0565 N.am      4 UNK        -0.4463 
     30 CA         23.0120  -25.7069  -44.9188 C.3       4 UNK         0.0283 
     31 CB         22.5401  -25.3404  -46.3349 C.3       4 UNK        -0.1875 
     32 C          23.9624  -26.9198  -44.9659 C.2       4 UNK         0.4949 
     33 O          25.1399  -26.7516  -45.2825 O.2       4 UNK        -0.5039 
     34 N          23.4472  -28.1091  -44.6248 N.am      5 UNK        -0.4663 
     35 CA         24.2144  -29.3421  -44.4396 C.3       5 UNK         0.0242 
     36 CB         23.2338  -30.5243  -44.3632 C.3       5 UNK        -0.1982 
     37 C          25.1229  -29.3313  -43.1940 C.2       5 UNK         0.5017 
     38 O          26.0217  -30.1702  -43.1172 O.2       5 UNK        -0.5012 
     39 N          24.8666  -28.4235  -42.2362 N.am      6 UNK        -0.4439 
     40 CA         25.5246  -28.2293  -40.9341 C.3       6 UNK         0.0297 
     41 CB         27.0225  -27.9036  -41.0935 C.3       6 UNK        -0.2006 
     42 C          25.3023  -29.3777  -39.9318 C.2       6 UNK         0.4892 
     43 O          24.9624  -29.1153  -38.7772 O.2       6 UNK        -0.5089 
     44 N          25.4898  -30.6198  -40.3873 N.am      7 UNK        -0.4243 
     45 CA         25.1893  -31.8545  -39.6672 C.3       7 UNK         0.0196 
     46 CB         25.9931  -32.9950  -40.3187 C.3       7 UNK        -0.2007 
     47 C          23.6820  -32.1683  -39.6850 C.2       7 UNK         0.5020 
     48 O          22.9096  -31.5143  -40.3877 O.2       7 UNK        -0.5147 
     49 N          23.2973  -33.2190  -38.9495 N.am      8 UNK        -0.4734 
     50 CA         21.9292  -33.7515  -38.8740 C.3       8 UNK         0.0238 
     51 CB         21.7901  -34.5651  -37.5743 C.3       8 UNK        -0.1912 
     52 C          21.4975  -34.5828  -40.1040 C.2       8 UNK         0.5038 
     53 O          20.4466  -35.2232  -40.0521 O.2       8 UNK        -0.5046 
     54 N          22.3037  -34.5677  -41.1739 N.am      9 UNK        -0.4200 
     55 CA         22.0886  -35.2483  -42.4634 C.3       9 UNK         0.0839 
     56 C          22.2322  -36.7998  -42.4115 C.2       9 UNK         0.5513 
     57 N          22.7961  -37.3780  -41.3577 N.am      9 UNK        -0.7519 
     58 O          21.8566  -37.4924  -43.3541 O.2       9 UNK        -0.4960 
     59 C59        20.7948  -34.7964  -43.2041 C.3       10 UNK        -0.0876 
     60 S60        20.6320  -32.9819  -43.3579 S.3       10 UNK        -0.2414 
     61 C61        19.0944  -32.7180  -42.4239 C.3       10 UNK         0.0169 
     62 H62        13.5672  -25.6457  -44.2675 H         1 UNK         0.0903 
     63 H63        13.3189  -23.9277  -43.9496 H         1 UNK         0.0903 
     64 H64        12.7067  -24.6477  -45.4406 H         1 UNK         0.0903 
     65 H65        15.6579  -26.1009  -44.9287 H         1 UNK         0.3096 
     66 H66        16.9750  -24.5064  -46.9670 H         1 UNK         0.1121 
     67 H67        16.9550  -27.0688  -46.9137 H         1 UNK         0.0849 
     68 H68        18.4639  -26.2854  -47.2377 H         1 UNK         0.0849 
     69 H69        16.9379  -29.1656  -45.2854 H         1 UNK         0.0865 
     70 H70        16.3803  -27.8972  -44.2136 H         1 UNK         0.0865 
     71 H71        18.0633  -31.0949  -44.3497 H         1 UNK         0.1346 
     72 H72        19.3744  -31.0705  -40.2700 H         1 UNK         0.1412 
     73 H73        17.5759  -27.5664  -41.9735 H         1 UNK         0.1426 
     74 H74        19.6367  -28.9126  -39.1445 H         1 UNK         0.0716 
     75 H75        17.9062  -28.7408  -38.9858 H         1 UNK         0.0716 
     76 H76        21.1863  -27.3188  -40.2566 H         1 UNK         0.0695 
     77 H77        21.0216  -25.5920  -40.0707 H         1 UNK         0.0695 
     78 H78        20.1092  -27.2468  -42.4625 H         1 UNK         0.0983 
     79 H79        18.7200  -25.6237  -43.0063 H         1 UNK         0.3095 
     80 H80        17.7941  -22.9291  -42.1358 H         1 UNK         0.0454 
     81 H81        18.1356  -21.1431  -43.8764 H         1 UNK         0.0851 
     82 H82        19.7329  -21.8055  -44.2231 H         1 UNK         0.0851 
     83 H83        19.3812  -21.1345  -42.6406 H         1 UNK         0.0851 
     84 H84        16.7610  -24.0517  -43.7303 H         1 UNK         0.2976 
     85 H85        20.9368  -25.7638  -44.5035 H         1 UNK         0.3116 
     86 H86        23.5836  -24.8668  -44.5193 H         1 UNK         0.0646 
     87 H87        23.3884  -25.1819  -47.0024 H         1 UNK         0.0847 
     88 H88        21.9561  -24.4197  -46.3333 H         1 UNK         0.0847 
     89 H89        21.9235  -26.1274  -46.7712 H         1 UNK         0.0847 
     90 H90        22.4628  -28.1510  -44.4054 H         1 UNK         0.3040 
     91 H91        24.8585  -29.4789  -45.3111 H         1 UNK         0.1015 
     92 H92        22.5680  -30.4417  -43.5024 H         1 UNK         0.0786 
     93 H93        23.7670  -31.4713  -44.2672 H         1 UNK         0.0786 
     94 H94        22.6171  -30.5924  -45.2596 H         1 UNK         0.0786 
     95 H95        24.0928  -27.7823  -42.3957 H         1 UNK         0.3172 
     96 H96        25.0475  -27.3471  -40.5042 H         1 UNK         0.0595 
     97 H97        27.5851  -28.7427  -41.5034 H         1 UNK         0.0839 
     98 H98        27.4694  -27.6566  -40.1296 H         1 UNK         0.0839 
     99 H99        27.1731  -27.0465  -41.7498 H         1 UNK         0.0839 
    100 H100       25.7420  -30.7099  -41.3681 H         1 UNK         0.2998 
    101 H101       25.5047  -31.7424  -38.6276 H         1 UNK         0.0822 
    102 H102       25.6934  -33.1585  -41.3550 H         1 UNK         0.0787 
    103 H103       27.0613  -32.7762  -40.3137 H         1 UNK         0.0787 
    104 H104       25.8601  -33.9371  -39.7858 H         1 UNK         0.0787 
    105 H105       23.9975  -33.7143  -38.4148 H         1 UNK         0.3055 
    106 H106       21.2381  -32.9072  -38.8186 H         1 UNK         0.1106 
    107 H107       20.7659  -34.9140  -37.4344 H         1 UNK         0.0828 
    108 H108       22.4354  -35.4442  -37.5774 H         1 UNK         0.0828 
    109 H109       22.0428  -33.9645  -36.7003 H         1 UNK         0.0828 
    110 H110       23.1345  -33.9991  -41.1184 H         1 UNK         0.2931 
    111 H111       22.9264  -34.9239  -43.0817 H         1 UNK         0.0412 
    112 H112       23.1165  -36.8230  -40.5807 H         1 UNK         0.3472 
    113 H113       22.8945  -38.3812  -41.3379 H         1 UNK         0.3472 
    114 H114       20.7803  -35.2063  -44.2155 H         1 UNK         0.0970 
    115 H115       19.9141  -35.2086  -42.7089 H         1 UNK         0.0970 
    116 H116       19.1952  -33.1556  -41.4303 H         1 UNK         0.0612 
    117 H117       18.2812  -33.2548  -42.9148 H         1 UNK         0.0612 
@<TRIPOS>BOND
     1    1    2 1    
     2    1   62 1    
     3    1   63 1    
     4    1   64 1    
     5    2    3 2    
     6    2    4 am   BACKBONE|DICT|INTERRES
     7    4    5 1    
     8    4   65 1    
     9    5    6 1    
    10    5   25 1    
    11    5   66 1    
    12    6    7 1    
    13    6   67 1    
    14    6   68 1    
    15    7    8 1    
    16    8    9 1    
    17    8   69 1    
    18    8   70 1    
    19    9   10 ar   
    20    9   14 ar   
    21   10   11 ar   
    22   10   71 1    
    23   11   12 ar   
    24   11   61 1    
    25   12   13 ar   
    26   12   72 1    
    27   13   14 ar   
    28   13   15 1    
    29   14   73 1    
    30   15   16 1    
    31   15   74 1    
    32   15   75 1    
    33   16   17 1    
    34   17   18 1    
    35   17   76 1    
    36   17   77 1    
    37   18   19 1    
    38   18   27 1    
    39   18   78 1    
    40   19   20 am   BACKBONE|DICT|INTERRES
    41   19   79 1    
    42   20   21 2    
    43   20   22 1    
    44   22   23 1    
    45   22   24 1    
    46   22   80 1    
    47   23   81 1    
    48   23   82 1    
    49   23   83 1    
    50   24   25 am   BACKBONE|DICT|INTERRES
    51   24   84 1    
    52   25   26 2    
    53   27   28 2    
    54   27   29 am   BACKBONE|DICT|INTERRES
    55   29   30 1    
    56   29   85 1    
    57   30   31 1    
    58   30   32 1    
    59   30   86 1    
    60   31   87 1    
    61   31   88 1    
    62   31   89 1    
    63   32   33 2    
    64   32   34 am   BACKBONE|DICT|INTERRES
    65   34   35 1    
    66   34   90 1    
    67   35   36 1    
    68   35   37 1    
    69   35   91 1    
    70   36   92 1    
    71   36   93 1    
    72   36   94 1    
    73   37   38 2    
    74   37   39 am   BACKBONE|DICT|INTERRES
    75   39   40 1    
    76   39   95 1    
    77   40   41 1    
    78   40   42 1    
    79   40   96 1    
    80   41   97 1    
    81   41   98 1    
    82   41   99 1    
    83   42   43 2    
    84   42   44 am   BACKBONE|DICT|INTERRES
    85   44   45 1    
    86   44  100 1    
    87   45   46 1    
    88   45   47 1    
    89   45  101 1    
    90   46  102 1    
    91   46  103 1    
    92   46  104 1    
    93   47   48 2    
    94   47   49 am   BACKBONE|DICT|INTERRES
    95   49   50 1    
    96   49  105 1    
    97   50   51 1    
    98   50   52 1    
    99   50  106 1    
   100   51  107 1    
   101   51  108 1    
   102   51  109 1    
   103   52   53 2    
   104   52   54 am   BACKBONE|DICT|INTERRES
   105   54   55 1    
   106   54  110 1    
   107   55   56 1    
   108   55   59 1    
   109   55  111 1    
   110   56   57 am   BACKBONE|DICT|INTERRES
   111   56   58 2    
   112   57  112 1    
   113   57  113 1    
   114   59   60 1    
   115   59  114 1    
   116   59  115 1    
   117   60   61 1    
   118   61  116 1    
   119   61  117 1    
@<TRIPOS>SUBSTRUCTURE
     1 UNK         1 GROUP             0       ****    0 ROOT    
