@<TRIPOS>MOLECULE
3R8
117   119    1
SMALL
USER_CHARGES


@<TRIPOS>ATOM
      1 CA         17.4137  -24.4122  -40.0437 C.3       0 UNK        -0.2013 
      2 C          17.3963  -25.9178  -39.7891 C.2       0 UNK         0.4866 
      3 O          17.3290  -26.3282  -38.6327 O.2       0 UNK        -0.5176 
      4 N          17.4369  -26.7801  -40.8152 N.am      1 UNK        -0.4884 
      5 CA         17.5449  -26.4653  -42.2434 C.3       1 UNK         0.0853 
      6 C6         17.1845  -27.7002  -43.1061 C.3       10 UNK        -0.0849 
      7 S7         16.7067  -27.2517  -44.8092 S.3       10 UNK        -0.2776 
      8 C8         16.2299  -28.8766  -45.4874 C.3       10 UNK         0.0316 
      9 C9         17.4163  -29.8276  -45.5431 C.ar      10 UNK        -0.0863 
     10 C10        17.5460  -30.8540  -44.6032 C.ar      10 UNK        -0.1009 
     11 C11        18.6663  -31.6887  -44.6185 C.ar      10 UNK        -0.0712 
     12 C12        19.6641  -31.4867  -45.5765 C.ar      10 UNK        -0.0894 
     13 C13        19.5479  -30.4642  -46.5236 C.ar      10 UNK        -0.0745 
     14 C14        18.4032  -29.6580  -46.5177 C.ar      10 UNK        -0.0972 
     15 C15        20.6782  -30.2369  -47.5276 C.3       10 UNK         0.0209 
     16 S16        21.0607  -28.4769  -47.8473 S.3       10 UNK        -0.2568 
     17 C17        21.1188  -27.7897  -46.1585 C.3       10 UNK        -0.0983 
     18 CA         22.1018  -26.5953  -46.0178 C.3       3 UNK         0.0876 
     19 N          21.6806  -25.6847  -44.9587 N.am      3 UNK        -0.4424 
     20 C          20.6406  -24.8519  -45.0229 C.2       2 UNK         0.4918 
     21 O          19.9644  -24.6668  -46.0365 O.2       2 UNK        -0.4875 
     22 CA         20.2501  -24.1493  -43.7146 C.3       2 UNK         0.0481 
     23 CB         20.0383  -22.6401  -43.9218 C.3       2 UNK        -0.1831 
     24 N          19.0182  -24.7494  -43.2033 N.am      2 UNK        -0.4498 
     25 C          18.9541  -25.9352  -42.5815 C.2       1 UNK         0.5027 
     26 O          19.9436  -26.6050  -42.2766 O.2       1 UNK        -0.4969 
     27 C          23.5293  -27.0686  -45.6991 C.2       3 UNK         0.5005 
     28 O          24.0479  -26.7726  -44.6177 O.2       3 UNK        -0.5279 
     29 N          24.1162  -27.8562  -46.6112 N.am      4 UNK        -0.4463 
     30 CA         25.4291  -28.5021  -46.4673 C.3       4 UNK         0.0283 
     31 CB         25.7733  -29.2384  -47.7719 C.3       4 UNK        -0.1875 
     32 C          25.5348  -29.4635  -45.2655 C.2       4 UNK         0.4949 
     33 O          26.6410  -29.7151  -44.7884 O.2       4 UNK        -0.5039 
     34 N          24.3855  -29.9536  -44.7793 N.am      5 UNK        -0.4663 
     35 CA         24.2478  -30.7306  -43.5455 C.3       5 UNK         0.0242 
     36 CB         22.8713  -31.4165  -43.5457 C.3       5 UNK        -0.1982 
     37 C          24.4332  -29.8998  -42.2592 C.2       5 UNK         0.5017 
     38 O          24.5302  -30.4944  -41.1862 O.2       5 UNK        -0.5012 
     39 N          24.4493  -28.5595  -42.3664 N.am      6 UNK        -0.4439 
     40 CA         24.6535  -27.5834  -41.2857 C.3       6 UNK         0.0297 
     41 CB         26.1157  -27.6311  -40.7940 C.3       6 UNK        -0.2006 
     42 C          23.6354  -27.7096  -40.1334 C.2       6 UNK         0.4892 
     43 O          23.9904  -27.4909  -38.9741 O.2       6 UNK        -0.5089 
     44 N          22.3966  -28.0904  -40.4817 N.am      7 UNK        -0.4243 
     45 CA         21.2569  -28.3727  -39.6001 C.3       7 UNK         0.0196 
     46 CB         20.8333  -27.1078  -38.8240 C.3       7 UNK        -0.2007 
     47 C          21.4420  -29.5878  -38.6655 C.2       7 UNK         0.5020 
     48 O          20.5896  -29.8076  -37.8037 O.2       7 UNK        -0.5147 
     49 N          22.5048  -30.3889  -38.8500 N.am      8 UNK        -0.4734 
     50 CA         22.8042  -31.5699  -38.0262 C.3       8 UNK         0.0238 
     51 CB         24.2219  -32.0723  -38.3408 C.3       8 UNK        -0.1912 
     52 C          21.7813  -32.7083  -38.1884 C.2       8 UNK         0.5038 
     53 O          21.6288  -33.5206  -37.2754 O.2       8 UNK        -0.5046 
     54 N          21.0919  -32.7283  -39.3344 N.am      9 UNK        -0.4200 
     55 CA         19.9438  -33.5930  -39.6288 C.3       9 UNK         0.0839 
     56 C          18.6199  -33.1867  -38.9133 C.2       9 UNK         0.5513 
     57 N          18.5460  -32.0572  -38.2171 N.am      9 UNK        -0.7519 
     58 O          17.6404  -33.9250  -38.9800 O.2       9 UNK        -0.4960 
     59 C59        19.7597  -33.7706  -41.1586 C.3       10 UNK        -0.0876 
     60 S60        19.5753  -32.1955  -42.0660 S.3       10 UNK        -0.2414 
     61 C61        18.8040  -32.8025  -43.5942 C.3       10 UNK         0.0169 
     62 H62        18.4047  -24.0840  -40.3553 H         1 UNK         0.0903 
     63 H63        16.6868  -24.1211  -40.8004 H         1 UNK         0.0903 
     64 H64        17.1621  -23.8728  -39.1306 H         1 UNK         0.0903 
     65 H65        17.4517  -27.7658  -40.5972 H         1 UNK         0.3096 
     66 H66        16.8094  -25.6889  -42.4621 H         1 UNK         0.1121 
     67 H67        18.0068  -28.4189  -43.1289 H         1 UNK         0.0849 
     68 H68        16.3365  -28.2279  -42.6659 H         1 UNK         0.0849 
     69 H69        15.4200  -29.2978  -44.8897 H         1 UNK         0.0865 
     70 H70        15.8274  -28.7387  -46.4921 H         1 UNK         0.0865 
     71 H71        16.7861  -30.9934  -43.8464 H         1 UNK         0.1346 
     72 H72        20.5379  -32.1234  -45.5757 H         1 UNK         0.1412 
     73 H73        18.3008  -28.8616  -47.2421 H         1 UNK         0.1426 
     74 H74        20.4126  -30.7157  -48.4708 H         1 UNK         0.0716 
     75 H75        21.5928  -30.7214  -47.1820 H         1 UNK         0.0716 
     76 H76        20.1001  -27.4719  -45.9313 H         1 UNK         0.0695 
     77 H77        21.3385  -28.5750  -45.4320 H         1 UNK         0.0695 
     78 H78        22.1395  -26.0257  -46.9493 H         1 UNK         0.0983 
     79 H79        22.2274  -25.7629  -44.1100 H         1 UNK         0.3095 
     80 H80        21.0467  -24.2805  -42.9786 H         1 UNK         0.0454 
     81 H81        19.2375  -22.4334  -44.6330 H         1 UNK         0.0851 
     82 H82        20.9442  -22.1705  -44.3070 H         1 UNK         0.0851 
     83 H83        19.7899  -22.1426  -42.9842 H         1 UNK         0.0851 
     84 H84        18.1597  -24.2863  -43.4651 H         1 UNK         0.2976 
     85 H85        23.6006  -28.0664  -47.4560 H         1 UNK         0.3116 
     86 H86        26.1674  -27.7124  -46.3134 H         1 UNK         0.0646 
     87 H87        25.0517  -30.0256  -47.9943 H         1 UNK         0.0847 
     88 H88        26.7564  -29.7073  -47.7081 H         1 UNK         0.0847 
     89 H89        25.7989  -28.5548  -48.6206 H         1 UNK         0.0847 
     90 H90        23.5315  -29.7070  -45.2560 H         1 UNK         0.3040 
     91 H91        25.0189  -31.5042  -43.5387 H         1 UNK         0.1015 
     92 H92        22.0554  -30.6925  -43.5659 H         1 UNK         0.0786 
     93 H93        22.7385  -32.0303  -42.6533 H         1 UNK         0.0786 
     94 H94        22.7578  -32.0765  -44.4055 H         1 UNK         0.0786 
     95 H95        24.3432  -28.1477  -43.2904 H         1 UNK         0.3172 
     96 H96        24.4865  -26.6009  -41.7296 H         1 UNK         0.0595 
     97 H97        26.3404  -28.5707  -40.2881 H         1 UNK         0.0839 
     98 H98        26.3200  -26.8245  -40.0888 H         1 UNK         0.0839 
     99 H99        26.8159  -27.5202  -41.6220 H         1 UNK         0.0839 
    100 H100       22.2164  -28.2261  -41.4668 H         1 UNK         0.2998 
    101 H101       20.4315  -28.6365  -40.2635 H         1 UNK         0.0822 
    102 H102       20.6572  -26.2704  -39.4991 H         1 UNK         0.0787 
    103 H103       19.9067  -27.2782  -38.2750 H         1 UNK         0.0787 
    104 H104       21.5856  -26.8032  -38.0965 H         1 UNK         0.0787 
    105 H105       23.1662  -30.1720  -39.5887 H         1 UNK         0.3055 
    106 H106       22.7765  -31.2590  -36.9794 H         1 UNK         0.1106 
    107 H107       24.3004  -32.4443  -39.3630 H         1 UNK         0.0828 
    108 H108       24.5018  -32.8903  -37.6757 H         1 UNK         0.0828 
    109 H109       24.9625  -31.2824  -38.2135 H         1 UNK         0.0828 
    110 H110       21.2822  -32.0101  -40.0172 H         1 UNK         0.2931 
    111 H111       20.1858  -34.5809  -39.2321 H         1 UNK         0.0412 
    112 H112       19.3391  -31.4317  -38.1386 H         1 UNK         0.3472 
    113 H113       17.6802  -31.8220  -37.7587 H         1 UNK         0.3472 
    114 H114       18.9039  -34.4158  -41.3673 H         1 UNK         0.0970 
    115 H115       20.6254  -34.2924  -41.5695 H         1 UNK         0.0970 
    116 H116       19.4037  -33.6170  -44.0036 H         1 UNK         0.0612 
    117 H117       17.8237  -33.2227  -43.3638 H         1 UNK         0.0612 
@<TRIPOS>BOND
     1    1    2 1    
     2    1   62 1    
     3    1   63 1    
     4    1   64 1    
     5    2    3 2    
     6    2    4 am   BACKBONE|DICT|INTERRES
     7    4    5 1    
     8    4   65 1    
     9    5    6 1    
    10    5   25 1    
    11    5   66 1    
    12    6    7 1    
    13    6   67 1    
    14    6   68 1    
    15    7    8 1    
    16    8    9 1    
    17    8   69 1    
    18    8   70 1    
    19    9   10 ar   
    20    9   14 ar   
    21   10   11 ar   
    22   10   71 1    
    23   11   12 ar   
    24   11   61 1    
    25   12   13 ar   
    26   12   72 1    
    27   13   14 ar   
    28   13   15 1    
    29   14   73 1    
    30   15   16 1    
    31   15   74 1    
    32   15   75 1    
    33   16   17 1    
    34   17   18 1    
    35   17   76 1    
    36   17   77 1    
    37   18   19 1    
    38   18   27 1    
    39   18   78 1    
    40   19   20 am   BACKBONE|DICT|INTERRES
    41   19   79 1    
    42   20   21 2    
    43   20   22 1    
    44   22   23 1    
    45   22   24 1    
    46   22   80 1    
    47   23   81 1    
    48   23   82 1    
    49   23   83 1    
    50   24   25 am   BACKBONE|DICT|INTERRES
    51   24   84 1    
    52   25   26 2    
    53   27   28 2    
    54   27   29 am   BACKBONE|DICT|INTERRES
    55   29   30 1    
    56   29   85 1    
    57   30   31 1    
    58   30   32 1    
    59   30   86 1    
    60   31   87 1    
    61   31   88 1    
    62   31   89 1    
    63   32   33 2    
    64   32   34 am   BACKBONE|DICT|INTERRES
    65   34   35 1    
    66   34   90 1    
    67   35   36 1    
    68   35   37 1    
    69   35   91 1    
    70   36   92 1    
    71   36   93 1    
    72   36   94 1    
    73   37   38 2    
    74   37   39 am   BACKBONE|DICT|INTERRES
    75   39   40 1    
    76   39   95 1    
    77   40   41 1    
    78   40   42 1    
    79   40   96 1    
    80   41   97 1    
    81   41   98 1    
    82   41   99 1    
    83   42   43 2    
    84   42   44 am   BACKBONE|DICT|INTERRES
    85   44   45 1    
    86   44  100 1    
    87   45   46 1    
    88   45   47 1    
    89   45  101 1    
    90   46  102 1    
    91   46  103 1    
    92   46  104 1    
    93   47   48 2    
    94   47   49 am   BACKBONE|DICT|INTERRES
    95   49   50 1    
    96   49  105 1    
    97   50   51 1    
    98   50   52 1    
    99   50  106 1    
   100   51  107 1    
   101   51  108 1    
   102   51  109 1    
   103   52   53 2    
   104   52   54 am   BACKBONE|DICT|INTERRES
   105   54   55 1    
   106   54  110 1    
   107   55   56 1    
   108   55   59 1    
   109   55  111 1    
   110   56   57 am   BACKBONE|DICT|INTERRES
   111   56   58 2    
   112   57  112 1    
   113   57  113 1    
   114   59   60 1    
   115   59  114 1    
   116   59  115 1    
   117   60   61 1    
   118   61  116 1    
   119   61  117 1    
@<TRIPOS>SUBSTRUCTURE
     1 UNK         1 GROUP             0       ****    0 ROOT    
