@<TRIPOS>MOLECULE
3R8
117   119    1
SMALL
USER_CHARGES


@<TRIPOS>ATOM
      1 CA         24.2826  -29.8946  -46.5071 C.3       0 UNK        -0.2013 
      2 C          22.7653  -29.7895  -46.5280 C.2       0 UNK         0.4866 
      3 O          22.0808  -30.8123  -46.5542 O.2       0 UNK        -0.5176 
      4 N          22.2337  -28.5625  -46.5063 N.am      1 UNK        -0.4884 
      5 CA         20.8035  -28.2608  -46.4715 C.3       1 UNK         0.0853 
      6 C6         20.0788  -28.5977  -47.8072 C.3       10 UNK        -0.0849 
      7 S7         18.2660  -28.7780  -47.6621 S.3       10 UNK        -0.2776 
      8 C8         18.0859  -30.3359  -46.7277 C.3       10 UNK         0.0316 
      9 C9         17.8297  -30.0958  -45.2428 C.ar      10 UNK        -0.0863 
     10 C10        18.6924  -30.6223  -44.2740 C.ar      10 UNK        -0.1009 
     11 C11        18.4261  -30.4369  -42.9126 C.ar      10 UNK        -0.0712 
     12 C12        17.2918  -29.7201  -42.5225 C.ar      10 UNK        -0.0894 
     13 C13        16.4368  -29.1661  -43.4783 C.ar      10 UNK        -0.0745 
     14 C14        16.7028  -29.3725  -44.8354 C.ar      10 UNK        -0.0972 
     15 C15        15.2251  -28.3490  -43.0473 C.3       10 UNK         0.0209 
     16 S16        15.3890  -26.5885  -43.4947 S.3       10 UNK        -0.2568 
     17 C17        16.5133  -25.9306  -42.2090 C.3       10 UNK        -0.0983 
     18 CA         18.0184  -26.2206  -42.4671 C.3       3 UNK         0.0876 
     19 N          18.4452  -25.9663  -43.8462 N.am      3 UNK        -0.4424 
     20 C          18.5900  -24.7866  -44.4639 C.2       2 UNK         0.4918 
     21 O          18.3809  -23.6983  -43.9270 O.2       2 UNK        -0.4875 
     22 CA         19.0393  -24.8371  -45.9405 C.3       2 UNK         0.0481 
     23 CB         20.0608  -23.7305  -46.2770 C.3       2 UNK        -0.1831 
     24 N          19.5201  -26.1611  -46.3706 N.am      2 UNK        -0.4498 
     25 C          20.6178  -26.8161  -45.9626 C.2       1 UNK         0.5027 
     26 O          21.4417  -26.3419  -45.1768 O.2       1 UNK        -0.4969 
     27 C          18.9578  -25.6069  -41.4036 C.2       3 UNK         0.5005 
     28 O          18.5203  -25.3173  -40.2877 O.2       3 UNK        -0.5279 
     29 N          20.2409  -25.4439  -41.7565 N.am      4 UNK        -0.4463 
     30 CA         21.3136  -25.0423  -40.8483 C.3       4 UNK         0.0283 
     31 CB         22.4908  -24.5121  -41.6836 C.3       4 UNK        -0.1875 
     32 C          21.7670  -26.2352  -39.9941 C.2       4 UNK         0.4949 
     33 O          21.6810  -27.3771  -40.4472 O.2       4 UNK        -0.5039 
     34 N          22.3106  -25.9586  -38.8015 N.am      5 UNK        -0.4663 
     35 CA         22.8604  -26.9771  -37.8933 C.3       5 UNK         0.0242 
     36 CB         23.2388  -26.3187  -36.5570 C.3       5 UNK        -0.1982 
     37 C          24.0646  -27.7399  -38.4796 C.2       5 UNK         0.5017 
     38 O          24.2647  -28.9096  -38.1520 O.2       5 UNK        -0.5012 
     39 N          24.8171  -27.0705  -39.3633 N.am      6 UNK        -0.4439 
     40 CA         25.9574  -27.6157  -40.1010 C.3       6 UNK         0.0297 
     41 CB         26.7710  -26.4470  -40.6829 C.3       6 UNK        -0.2006 
     42 C          25.5772  -28.6116  -41.2152 C.2       6 UNK         0.4892 
     43 O          26.4744  -29.2750  -41.7365 O.2       6 UNK        -0.5089 
     44 N          24.2870  -28.6998  -41.5805 N.am      7 UNK        -0.4243 
     45 CA         23.7873  -29.6021  -42.6238 C.3       7 UNK         0.0196 
     46 CB         22.3467  -29.2176  -42.9877 C.3       7 UNK        -0.2007 
     47 C          23.8787  -31.0914  -42.2443 C.2       7 UNK         0.5020 
     48 O          24.0804  -31.9198  -43.1315 O.2       7 UNK        -0.5147 
     49 N          23.7571  -31.3921  -40.9405 N.am      8 UNK        -0.4734 
     50 CA         23.9652  -32.7031  -40.3064 C.3       8 UNK         0.0238 
     51 CB         25.4687  -33.0538  -40.3092 C.3       8 UNK        -0.1912 
     52 C          23.0891  -33.8368  -40.8826 C.2       8 UNK         0.5038 
     53 O          23.5791  -34.9482  -41.0943 O.2       8 UNK        -0.5046 
     54 N          21.8059  -33.5360  -41.1203 N.am      9 UNK        -0.4200 
     55 CA         20.7947  -34.4867  -41.6167 C.3       9 UNK         0.0839 
     56 C          20.3325  -35.5632  -40.5890 C.2       9 UNK         0.5513 
     57 N          20.6625  -35.4504  -39.3076 N.am      9 UNK        -0.7519 
     58 O          19.6714  -36.5269  -40.9675 O.2       9 UNK        -0.4960 
     59 C59        19.5926  -33.7592  -42.2787 C.3       10 UNK        -0.0876 
     60 S60        18.7702  -32.5613  -41.1695 S.3       10 UNK        -0.2414 
     61 C61        19.3650  -30.9848  -41.8495 C.3       10 UNK         0.0169 
     62 H62        24.7546  -28.9365  -46.2900 H         1 UNK         0.0903 
     63 H63        24.5986  -30.6079  -45.7460 H         1 UNK         0.0903 
     64 H64        24.6467  -30.2449  -47.4724 H         1 UNK         0.0903 
     65 H65        22.8284  -27.7474  -46.4186 H         1 UNK         0.3096 
     66 H66        20.3830  -28.8900  -45.6870 H         1 UNK         0.1121 
     67 H67        20.3020  -27.8442  -48.5650 H         1 UNK         0.0849 
     68 H68        20.4545  -29.5338  -48.2219 H         1 UNK         0.0849 
     69 H69        17.2410  -30.8909  -47.1378 H         1 UNK         0.0865 
     70 H70        18.9637  -30.9663  -46.8802 H         1 UNK         0.0865 
     71 H71        19.5675  -31.1806  -44.5788 H         1 UNK         0.1346 
     72 H72        17.0880  -29.5766  -41.4699 H         1 UNK         0.1412 
     73 H73        16.0340  -28.9586  -45.5782 H         1 UNK         0.1426 
     74 H74        15.0473  -28.4388  -41.9745 H         1 UNK         0.0716 
     75 H75        14.3380  -28.7520  -43.5376 H         1 UNK         0.0716 
     76 H76        16.2060  -26.3318  -41.2416 H         1 UNK         0.0695 
     77 H77        16.3490  -24.8530  -42.1550 H         1 UNK         0.0695 
     78 H78        18.1656  -27.2879  -42.3293 H         1 UNK         0.0983 
     79 H79        18.6085  -26.7938  -44.3994 H         1 UNK         0.3095 
     80 H80        18.1423  -24.6438  -46.5305 H         1 UNK         0.0454 
     81 H81        19.6313  -22.7411  -46.1159 H         1 UNK         0.0851 
     82 H82        20.3717  -23.7800  -47.3203 H         1 UNK         0.0851 
     83 H83        20.9543  -23.7969  -45.6557 H         1 UNK         0.0851 
     84 H84        18.9010  -26.6619  -46.9987 H         1 UNK         0.2976 
     85 H85        20.5219  -25.7380  -42.6818 H         1 UNK         0.3116 
     86 H86        20.9522  -24.2464  -40.1936 H         1 UNK         0.0646 
     87 H87        22.1875  -23.6679  -42.3033 H         1 UNK         0.0847 
     88 H88        22.8976  -25.2803  -42.3436 H         1 UNK         0.0847 
     89 H89        23.3038  -24.1657  -41.0445 H         1 UNK         0.0847 
     90 H90        22.3530  -24.9977  -38.4911 H         1 UNK         0.3040 
     91 H91        22.0755  -27.7131  -37.7039 H         1 UNK         0.1015 
     92 H92        23.6293  -27.0572  -35.8552 H         1 UNK         0.0786 
     93 H93        22.3737  -25.8528  -36.0847 H         1 UNK         0.0786 
     94 H94        24.0058  -25.5537  -36.6850 H         1 UNK         0.0786 
     95 H95        24.5646  -26.1132  -39.5602 H         1 UNK         0.3172 
     96 H96        26.5919  -28.1528  -39.3927 H         1 UNK         0.0595 
     97 H97        27.6581  -26.8090  -41.2048 H         1 UNK         0.0839 
     98 H98        27.1148  -25.7716  -39.8992 H         1 UNK         0.0839 
     99 H99        26.1884  -25.8654  -41.3985 H         1 UNK         0.0839 
    100 H100       23.5954  -28.1344  -41.1017 H         1 UNK         0.2998 
    101 H101       24.4079  -29.4568  -43.5100 H         1 UNK         0.0822 
    102 H102       21.9374  -29.8882  -43.7432 H         1 UNK         0.0787 
    103 H103       22.2961  -28.2041  -43.3845 H         1 UNK         0.0787 
    104 H104       21.6896  -29.2674  -42.1220 H         1 UNK         0.0787 
    105 H105       23.5893  -30.6234  -40.3046 H         1 UNK         0.3055 
    106 H106       23.6601  -32.5925  -39.2644 H         1 UNK         0.1106 
    107 H107       26.0626  -32.2569  -39.8612 H         1 UNK         0.0828 
    108 H108       25.6629  -33.9615  -39.7364 H         1 UNK         0.0828 
    109 H109       25.8418  -33.2200  -41.3205 H         1 UNK         0.0828 
    110 H110       21.4739  -32.6091  -40.9024 H         1 UNK         0.2931 
    111 H111       21.2770  -35.0552  -42.4146 H         1 UNK         0.0412 
    112 H112       20.3605  -36.1577  -38.6558 H         1 UNK         0.3472 
    113 H113       21.1972  -34.6611  -38.9839 H         1 UNK         0.3472 
    114 H114       18.8468  -34.4787  -42.6221 H         1 UNK         0.0970 
    115 H115       19.9289  -33.2510  -43.1831 H         1 UNK         0.0970 
    116 H116       20.3668  -31.1215  -42.2542 H         1 UNK         0.0612 
    117 H117       19.4588  -30.2622  -41.0371 H         1 UNK         0.0612 
@<TRIPOS>BOND
     1    1    2 1    
     2    1   62 1    
     3    1   63 1    
     4    1   64 1    
     5    2    3 2    
     6    2    4 am   BACKBONE|DICT|INTERRES
     7    4    5 1    
     8    4   65 1    
     9    5    6 1    
    10    5   25 1    
    11    5   66 1    
    12    6    7 1    
    13    6   67 1    
    14    6   68 1    
    15    7    8 1    
    16    8    9 1    
    17    8   69 1    
    18    8   70 1    
    19    9   10 ar   
    20    9   14 ar   
    21   10   11 ar   
    22   10   71 1    
    23   11   12 ar   
    24   11   61 1    
    25   12   13 ar   
    26   12   72 1    
    27   13   14 ar   
    28   13   15 1    
    29   14   73 1    
    30   15   16 1    
    31   15   74 1    
    32   15   75 1    
    33   16   17 1    
    34   17   18 1    
    35   17   76 1    
    36   17   77 1    
    37   18   19 1    
    38   18   27 1    
    39   18   78 1    
    40   19   20 am   BACKBONE|DICT|INTERRES
    41   19   79 1    
    42   20   21 2    
    43   20   22 1    
    44   22   23 1    
    45   22   24 1    
    46   22   80 1    
    47   23   81 1    
    48   23   82 1    
    49   23   83 1    
    50   24   25 am   BACKBONE|DICT|INTERRES
    51   24   84 1    
    52   25   26 2    
    53   27   28 2    
    54   27   29 am   BACKBONE|DICT|INTERRES
    55   29   30 1    
    56   29   85 1    
    57   30   31 1    
    58   30   32 1    
    59   30   86 1    
    60   31   87 1    
    61   31   88 1    
    62   31   89 1    
    63   32   33 2    
    64   32   34 am   BACKBONE|DICT|INTERRES
    65   34   35 1    
    66   34   90 1    
    67   35   36 1    
    68   35   37 1    
    69   35   91 1    
    70   36   92 1    
    71   36   93 1    
    72   36   94 1    
    73   37   38 2    
    74   37   39 am   BACKBONE|DICT|INTERRES
    75   39   40 1    
    76   39   95 1    
    77   40   41 1    
    78   40   42 1    
    79   40   96 1    
    80   41   97 1    
    81   41   98 1    
    82   41   99 1    
    83   42   43 2    
    84   42   44 am   BACKBONE|DICT|INTERRES
    85   44   45 1    
    86   44  100 1    
    87   45   46 1    
    88   45   47 1    
    89   45  101 1    
    90   46  102 1    
    91   46  103 1    
    92   46  104 1    
    93   47   48 2    
    94   47   49 am   BACKBONE|DICT|INTERRES
    95   49   50 1    
    96   49  105 1    
    97   50   51 1    
    98   50   52 1    
    99   50  106 1    
   100   51  107 1    
   101   51  108 1    
   102   51  109 1    
   103   52   53 2    
   104   52   54 am   BACKBONE|DICT|INTERRES
   105   54   55 1    
   106   54  110 1    
   107   55   56 1    
   108   55   59 1    
   109   55  111 1    
   110   56   57 am   BACKBONE|DICT|INTERRES
   111   56   58 2    
   112   57  112 1    
   113   57  113 1    
   114   59   60 1    
   115   59  114 1    
   116   59  115 1    
   117   60   61 1    
   118   61  116 1    
   119   61  117 1    
@<TRIPOS>SUBSTRUCTURE
     1 UNK         1 GROUP             0       ****    0 ROOT    
