@<TRIPOS>MOLECULE
3R8
117   119    1
SMALL
USER_CHARGES


@<TRIPOS>ATOM
      1 CA         12.6549  -24.9487  -45.4729 C.3       0 UNK        -0.2013 
      2 C          14.0784  -24.5020  -45.7712 C.2       0 UNK         0.4866 
      3 O          14.3635  -23.3040  -45.7428 O.2       0 UNK        -0.5176 
      4 N          14.9715  -25.4539  -46.0665 N.am      1 UNK        -0.4884 
      5 CA         16.4005  -25.2212  -46.2986 C.3       1 UNK         0.0853 
      6 C6         17.0316  -26.3810  -47.1150 C.3       10 UNK        -0.0849 
      7 S7         16.9022  -28.0263  -46.3232 S.3       10 UNK        -0.2776 
      8 C8         18.6249  -28.2640  -45.7826 C.3       10 UNK         0.0316 
      9 C9         18.7374  -29.1255  -44.5335 C.ar      10 UNK        -0.0863 
     10 C10        19.5416  -30.2685  -44.5353 C.ar      10 UNK        -0.1009 
     11 C11        19.7248  -31.0078  -43.3631 C.ar      10 UNK        -0.0712 
     12 C12        19.0923  -30.5993  -42.1852 C.ar      10 UNK        -0.0894 
     13 C13        18.2708  -29.4686  -42.1714 C.ar      10 UNK        -0.0745 
     14 C14        18.0932  -28.7411  -43.3532 C.ar      10 UNK        -0.0972 
     15 C15        17.5720  -29.0524  -40.8806 C.3       10 UNK         0.0209 
     16 S16        17.7204  -27.2716  -40.5123 S.3       10 UNK        -0.2568 
     17 C17        19.5102  -27.0883  -40.2035 C.3       10 UNK        -0.0983 
     18 CA         20.3120  -26.6469  -41.4561 C.3       3 UNK         0.0876 
     19 N          19.7248  -25.4692  -42.1103 N.am      3 UNK        -0.4424 
     20 C          19.8933  -25.1545  -43.3997 C.2       2 UNK         0.4918 
     21 O          20.6196  -25.7791  -44.1736 O.2       2 UNK        -0.4875 
     22 CA         19.1386  -23.9158  -43.9090 C.3       2 UNK         0.0481 
     23 CB         20.1251  -22.8046  -44.3048 C.3       2 UNK        -0.1831 
     24 N          18.2884  -24.2464  -45.0555 N.am      2 UNK        -0.4498 
     25 C          17.1458  -24.9430  -44.9710 C.2       1 UNK         0.5027 
     26 O          16.6834  -25.3582  -43.9046 O.2       1 UNK        -0.4969 
     27 C          21.8018  -26.4609  -41.0982 C.2       3 UNK         0.5005 
     28 O          22.4582  -27.4445  -40.7509 O.2       3 UNK        -0.5279 
     29 N          22.3116  -25.2204  -41.1688 N.am      4 UNK        -0.4463 
     30 CA         23.7052  -24.8494  -40.9056 C.3       4 UNK         0.0283 
     31 CB         23.8786  -23.3372  -41.1185 C.3       4 UNK        -0.1875 
     32 C          24.6867  -25.6346  -41.7911 C.2       4 UNK         0.4949 
     33 O          24.4618  -25.7418  -42.9977 O.2       4 UNK        -0.5039 
     34 N          25.7228  -26.2066  -41.1636 N.am      5 UNK        -0.4663 
     35 CA         26.7481  -27.1102  -41.7141 C.3       5 UNK         0.0242 
     36 CB         27.5495  -26.4393  -42.8476 C.3       5 UNK        -0.1982 
     37 C          26.2277  -28.4972  -42.1464 C.2       5 UNK         0.5017 
     38 O          26.9641  -29.4740  -42.0064 O.2       5 UNK        -0.5012 
     39 N          24.9861  -28.5725  -42.6437 N.am      6 UNK        -0.4439 
     40 CA         24.2908  -29.8042  -43.0231 C.3       6 UNK         0.0297 
     41 CB         23.0223  -29.4474  -43.8129 C.3       6 UNK        -0.2006 
     42 C          23.9638  -30.6913  -41.8078 C.2       6 UNK         0.4892 
     43 O          24.1520  -31.9067  -41.8825 O.2       6 UNK        -0.5089 
     44 N          23.5244  -30.0589  -40.7083 N.am      7 UNK        -0.4243 
     45 CA         23.3091  -30.6224  -39.3728 C.3       7 UNK         0.0196 
     46 CB         24.6723  -30.8673  -38.6859 C.3       7 UNK        -0.2007 
     47 C          22.3789  -31.8511  -39.3792 C.2       7 UNK         0.5020 
     48 O          21.1842  -31.7014  -39.6309 O.2       7 UNK        -0.5147 
     49 N          22.9346  -33.0358  -39.0945 N.am      8 UNK        -0.4734 
     50 CA         22.2236  -34.3168  -39.0402 C.3       8 UNK         0.0238 
     51 CB         23.0177  -35.2779  -38.1378 C.3       8 UNK        -0.1912 
     52 C          21.9641  -34.9548  -40.4199 C.2       8 UNK         0.5038 
     53 O          21.3276  -36.0089  -40.4670 O.2       8 UNK        -0.5046 
     54 N          22.4582  -34.3304  -41.4982 N.am      9 UNK        -0.4200 
     55 CA         22.4031  -34.7956  -42.8938 C.3       9 UNK         0.0839 
     56 C          23.3772  -35.9794  -43.1745 C.2       9 UNK         0.5513 
     57 N          23.4199  -36.4766  -44.4039 N.am      9 UNK        -0.7519 
     58 O          24.1205  -36.4391  -42.3091 O.2       9 UNK        -0.4960 
     59 C59        20.9556  -35.0748  -43.4151 C.3       10 UNK        -0.0876 
     60 S60        19.6991  -33.7680  -43.1541 S.3       10 UNK        -0.2414 
     61 C61        20.6370  -32.2242  -43.3560 C.3       10 UNK         0.0169 
     62 H62        12.5425  -26.0301  -45.5489 H         1 UNK         0.0903 
     63 H63        12.3718  -24.6487  -44.4643 H         1 UNK         0.0903 
     64 H64        11.9610  -24.4858  -46.1741 H         1 UNK         0.0903 
     65 H65        14.6980  -26.4264  -46.0365 H         1 UNK         0.3096 
     66 H66        16.4868  -24.3152  -46.9036 H         1 UNK         0.1121 
     67 H67        16.5315  -26.4470  -48.0826 H         1 UNK         0.0849 
     68 H68        18.0734  -26.1592  -47.3537 H         1 UNK         0.0849 
     69 H69        19.1970  -28.6896  -46.6085 H         1 UNK         0.0865 
     70 H70        19.0799  -27.2995  -45.5634 H         1 UNK         0.0865 
     71 H71        20.0476  -30.5689  -45.4426 H         1 UNK         0.1346 
     72 H72        19.2406  -31.1709  -41.2792 H         1 UNK         0.1412 
     73 H73        17.4712  -27.8561  -43.3495 H         1 UNK         0.1426 
     74 H74        17.9551  -29.6191  -40.0303 H         1 UNK         0.0716 
     75 H75        16.5138  -29.3025  -40.9656 H         1 UNK         0.0716 
     76 H76        19.6292  -26.3587  -39.4003 H         1 UNK         0.0695 
     77 H77        19.8984  -28.0320  -39.8140 H         1 UNK         0.0695 
     78 H78        20.2858  -27.4707  -42.1718 H         1 UNK         0.0983 
     79 H79        19.0827  -24.9265  -41.5503 H         1 UNK         0.3095 
     80 H80        18.5022  -23.5297  -43.1095 H         1 UNK         0.0454 
     81 H81        20.7858  -23.1181  -45.1143 H         1 UNK         0.0851 
     82 H82        19.6016  -21.9048  -44.6280 H         1 UNK         0.0851 
     83 H83        20.7569  -22.5241  -43.4610 H         1 UNK         0.0851 
     84 H84        18.6289  -23.9631  -45.9631 H         1 UNK         0.2976 
     85 H85        21.6992  -24.4825  -41.4813 H         1 UNK         0.3116 
     86 H86        23.9102  -25.0777  -39.8576 H         1 UNK         0.0646 
     87 H87        24.9041  -23.0291  -40.9100 H         1 UNK         0.0847 
     88 H88        23.2294  -22.7634  -40.4569 H         1 UNK         0.0847 
     89 H89        23.6550  -23.0466  -42.1461 H         1 UNK         0.0847 
     90 H90        25.7833  -26.0707  -40.1631 H         1 UNK         0.3040 
     91 H91        27.4432  -27.2938  -40.8928 H         1 UNK         0.1015 
     92 H92        27.9670  -25.4847  -42.5276 H         1 UNK         0.0786 
     93 H93        26.9384  -26.2595  -43.7324 H         1 UNK         0.0786 
     94 H94        28.3839  -27.0702  -43.1571 H         1 UNK         0.0786 
     95 H95        24.4814  -27.6983  -42.7535 H         1 UNK         0.3172 
     96 H96        24.9539  -30.3679  -43.6827 H         1 UNK         0.0595 
     97 H97        23.2409  -28.7668  -44.6359 H         1 UNK         0.0839 
     98 H98        22.2649  -28.9777  -43.1837 H         1 UNK         0.0839 
     99 H99        22.5801  -30.3410  -44.2495 H         1 UNK         0.0839 
    100 H100       23.3077  -29.0660  -40.7886 H         1 UNK         0.2998 
    101 H101       22.7864  -29.8539  -38.8009 H         1 UNK         0.0822 
    102 H102       25.2349  -29.9372  -38.6015 H         1 UNK         0.0787 
    103 H103       24.5440  -31.2528  -37.6734 H         1 UNK         0.0787 
    104 H104       25.2941  -31.5722  -39.2394 H         1 UNK         0.0787 
    105 H105       23.9303  -33.0634  -38.9269 H         1 UNK         0.3055 
    106 H106       21.2453  -34.1504  -38.5833 H         1 UNK         0.1106 
    107 H107       24.0016  -35.5001  -38.5530 H         1 UNK         0.0828 
    108 H108       23.1580  -34.8627  -37.1396 H         1 UNK         0.0828 
    109 H109       22.4940  -36.2275  -38.0184 H         1 UNK         0.0828 
    110 H110       23.0060  -33.4883  -41.3552 H         1 UNK         0.2931 
    111 H111       22.8115  -33.9667  -43.4719 H         1 UNK         0.0412 
    112 H112       24.0548  -37.2353  -44.5998 H         1 UNK         0.3472 
    113 H113       22.8467  -36.1035  -45.1442 H         1 UNK         0.3472 
    114 H114       20.5679  -35.9938  -42.9730 H         1 UNK         0.0970 
    115 H115       20.9792  -35.2622  -44.4893 H         1 UNK         0.0970 
    116 H116       21.2123  -32.2805  -44.2808 H         1 UNK         0.0612 
    117 H117       21.3516  -32.1147  -42.5411 H         1 UNK         0.0612 
@<TRIPOS>BOND
     1    1    2 1    
     2    1   62 1    
     3    1   63 1    
     4    1   64 1    
     5    2    3 2    
     6    2    4 am   BACKBONE|DICT|INTERRES
     7    4    5 1    
     8    4   65 1    
     9    5    6 1    
    10    5   25 1    
    11    5   66 1    
    12    6    7 1    
    13    6   67 1    
    14    6   68 1    
    15    7    8 1    
    16    8    9 1    
    17    8   69 1    
    18    8   70 1    
    19    9   10 ar   
    20    9   14 ar   
    21   10   11 ar   
    22   10   71 1    
    23   11   12 ar   
    24   11   61 1    
    25   12   13 ar   
    26   12   72 1    
    27   13   14 ar   
    28   13   15 1    
    29   14   73 1    
    30   15   16 1    
    31   15   74 1    
    32   15   75 1    
    33   16   17 1    
    34   17   18 1    
    35   17   76 1    
    36   17   77 1    
    37   18   19 1    
    38   18   27 1    
    39   18   78 1    
    40   19   20 am   BACKBONE|DICT|INTERRES
    41   19   79 1    
    42   20   21 2    
    43   20   22 1    
    44   22   23 1    
    45   22   24 1    
    46   22   80 1    
    47   23   81 1    
    48   23   82 1    
    49   23   83 1    
    50   24   25 am   BACKBONE|DICT|INTERRES
    51   24   84 1    
    52   25   26 2    
    53   27   28 2    
    54   27   29 am   BACKBONE|DICT|INTERRES
    55   29   30 1    
    56   29   85 1    
    57   30   31 1    
    58   30   32 1    
    59   30   86 1    
    60   31   87 1    
    61   31   88 1    
    62   31   89 1    
    63   32   33 2    
    64   32   34 am   BACKBONE|DICT|INTERRES
    65   34   35 1    
    66   34   90 1    
    67   35   36 1    
    68   35   37 1    
    69   35   91 1    
    70   36   92 1    
    71   36   93 1    
    72   36   94 1    
    73   37   38 2    
    74   37   39 am   BACKBONE|DICT|INTERRES
    75   39   40 1    
    76   39   95 1    
    77   40   41 1    
    78   40   42 1    
    79   40   96 1    
    80   41   97 1    
    81   41   98 1    
    82   41   99 1    
    83   42   43 2    
    84   42   44 am   BACKBONE|DICT|INTERRES
    85   44   45 1    
    86   44  100 1    
    87   45   46 1    
    88   45   47 1    
    89   45  101 1    
    90   46  102 1    
    91   46  103 1    
    92   46  104 1    
    93   47   48 2    
    94   47   49 am   BACKBONE|DICT|INTERRES
    95   49   50 1    
    96   49  105 1    
    97   50   51 1    
    98   50   52 1    
    99   50  106 1    
   100   51  107 1    
   101   51  108 1    
   102   51  109 1    
   103   52   53 2    
   104   52   54 am   BACKBONE|DICT|INTERRES
   105   54   55 1    
   106   54  110 1    
   107   55   56 1    
   108   55   59 1    
   109   55  111 1    
   110   56   57 am   BACKBONE|DICT|INTERRES
   111   56   58 2    
   112   57  112 1    
   113   57  113 1    
   114   59   60 1    
   115   59  114 1    
   116   59  115 1    
   117   60   61 1    
   118   61  116 1    
   119   61  117 1    
@<TRIPOS>SUBSTRUCTURE
     1 UNK         1 GROUP             0       ****    0 ROOT    
