@<TRIPOS>MOLECULE
3R8
117   119    1
SMALL
USER_CHARGES


@<TRIPOS>ATOM
      1 CA         16.1590  -24.5714  -48.8232 C.3       0 UNK        -0.2013 
      2 C          16.7897  -25.1211  -47.5532 C.2       0 UNK         0.4866 
      3 O          17.5539  -24.4172  -46.8928 O.2       0 UNK        -0.5176 
      4 N          16.4610  -26.3669  -47.1890 N.am      1 UNK        -0.4884 
      5 CA         16.9946  -27.1137  -46.0376 C.3       1 UNK         0.0853 
      6 C6         16.8628  -28.6452  -46.2590 C.3       10 UNK        -0.0849 
      7 S7         17.8689  -29.1987  -47.6832 S.3       10 UNK        -0.2776 
      8 C8         19.1284  -30.2769  -46.9143 C.3       10 UNK         0.0316 
      9 C9         19.8118  -29.6402  -45.7097 C.ar      10 UNK        -0.0863 
     10 C10        19.6965  -30.2350  -44.4486 C.ar      10 UNK        -0.1009 
     11 C11        20.2814  -29.6406  -43.3278 C.ar      10 UNK        -0.0712 
     12 C12        20.9946  -28.4491  -43.4793 C.ar      10 UNK        -0.0894 
     13 C13        21.1157  -27.8411  -44.7293 C.ar      10 UNK        -0.0745 
     14 C14        20.5359  -28.4508  -45.8464 C.ar      10 UNK        -0.0972 
     15 C15        21.8480  -26.5162  -44.8715 C.3       10 UNK         0.0209 
     16 S16        20.6718  -25.1252  -44.9028 S.3       10 UNK        -0.2568 
     17 C17        20.8641  -24.3220  -43.2647 C.3       10 UNK        -0.0983 
     18 CA         19.7141  -24.5734  -42.2414 C.3       3 UNK         0.0876 
     19 N          18.4090  -24.5711  -42.9020 N.am      3 UNK        -0.4424 
     20 C          17.2083  -24.4608  -42.3208 C.2       2 UNK         0.4918 
     21 O          17.0429  -24.2091  -41.1265 O.2       2 UNK        -0.4875 
     22 CA         15.9813  -24.6536  -43.2334 C.3       2 UNK         0.0481 
     23 CB         15.3325  -23.2974  -43.5533 C.3       2 UNK        -0.1831 
     24 N          16.3338  -25.3192  -44.4912 N.am      2 UNK        -0.4498 
     25 C          16.3975  -26.6428  -44.6871 C.2       1 UNK         0.5027 
     26 O          16.0114  -27.4667  -43.8562 O.2       1 UNK        -0.4969 
     27 C          19.9403  -25.8507  -41.4014 C.2       3 UNK         0.5005 
     28 O          19.1711  -26.8092  -41.4978 O.2       3 UNK        -0.5279 
     29 N          21.0178  -25.8466  -40.6051 N.am      4 UNK        -0.4463 
     30 CA         21.4985  -26.9908  -39.8201 C.3       4 UNK         0.0283 
     31 CB         21.0533  -26.8334  -38.3543 C.3       4 UNK        -0.1875 
     32 C          23.0247  -27.1610  -39.9573 C.2       4 UNK         0.4949 
     33 O          23.6551  -27.7492  -39.0794 O.2       4 UNK        -0.5039 
     34 N          23.6000  -26.6156  -41.0394 N.am      5 UNK        -0.4663 
     35 CA         25.0451  -26.5613  -41.2834 C.3       5 UNK         0.0242 
     36 CB         25.3464  -25.3227  -42.1452 C.3       5 UNK        -0.1982 
     37 C          25.6212  -27.8242  -41.9494 C.2       5 UNK         0.5017 
     38 O          26.8428  -27.9854  -41.9554 O.2       5 UNK        -0.5012 
     39 N          24.7589  -28.6739  -42.5225 N.am      6 UNK        -0.4439 
     40 CA         25.1418  -29.9231  -43.1842 C.3       6 UNK         0.0297 
     41 CB         24.0612  -30.2967  -44.2156 C.3       6 UNK        -0.2006 
     42 C          25.3739  -31.0586  -42.1695 C.2       6 UNK         0.4892 
     43 O          25.0801  -30.9110  -40.9804 O.2       6 UNK        -0.5089 
     44 N          25.9059  -32.1830  -42.6622 N.am      7 UNK        -0.4243 
     45 CA         26.1090  -33.4016  -41.8796 C.3       7 UNK         0.0196 
     46 CB         27.0911  -34.3213  -42.6240 C.3       7 UNK        -0.2007 
     47 C          24.7795  -34.1316  -41.6237 C.2       7 UNK         0.5020 
     48 O          23.9279  -34.1789  -42.5136 O.2       7 UNK        -0.5147 
     49 N          24.6611  -34.7274  -40.4290 N.am      8 UNK        -0.4734 
     50 CA         23.5628  -35.5911  -39.9680 C.3       8 UNK         0.0238 
     51 CB         23.5109  -36.8937  -40.7971 C.3       8 UNK        -0.1912 
     52 C          22.1841  -34.9035  -39.8617 C.2       8 UNK         0.5038 
     53 O          21.1632  -35.5938  -39.9050 O.2       8 UNK        -0.5046 
     54 N          22.1656  -33.5741  -39.6963 N.am      9 UNK        -0.4200 
     55 CA         20.9523  -32.7874  -39.4198 C.3       9 UNK         0.0839 
     56 C          20.3479  -33.1078  -38.0252 C.2       9 UNK         0.5513 
     57 N          19.0291  -33.0622  -37.8960 N.am      9 UNK        -0.7519 
     58 O          21.0628  -33.3527  -37.0551 O.2       9 UNK        -0.4960 
     59 C59        21.2043  -31.2649  -39.5594 C.3       10 UNK        -0.0876 
     60 S60        21.6941  -30.7967  -41.2492 S.3       10 UNK        -0.2414 
     61 C61        20.1063  -30.2526  -41.9455 C.3       10 UNK         0.0169 
     62 H62        16.9349  -24.2933  -49.5358 H         1 UNK         0.0903 
     63 H63        15.5042  -25.2993  -49.3019 H         1 UNK         0.0903 
     64 H64        15.5706  -23.6829  -48.5957 H         1 UNK         0.0903 
     65 H65        15.8133  -26.8857  -47.7653 H         1 UNK         0.3096 
     66 H66        18.0620  -26.8912  -45.9645 H         1 UNK         0.1121 
     67 H67        15.8212  -28.9179  -46.4372 H         1 UNK         0.0849 
     68 H68        17.1648  -29.2007  -45.3701 H         1 UNK         0.0849 
     69 H69        18.6538  -31.2191  -46.6357 H         1 UNK         0.0865 
     70 H70        19.8835  -30.5270  -47.6607 H         1 UNK         0.0865 
     71 H71        19.1327  -31.1506  -44.3341 H         1 UNK         0.1346 
     72 H72        21.4346  -27.9858  -42.6112 H         1 UNK         0.1412 
     73 H73        20.6170  -27.9814  -46.8175 H         1 UNK         0.1426 
     74 H74        22.4141  -26.5151  -45.8041 H         1 UNK         0.0716 
     75 H75        22.5817  -26.3883  -44.0755 H         1 UNK         0.0716 
     76 H76        21.8470  -24.5475  -42.8500 H         1 UNK         0.0695 
     77 H77        20.8984  -23.2507  -43.4688 H         1 UNK         0.0695 
     78 H78        19.7116  -23.7440  -41.5303 H         1 UNK         0.0983 
     79 H79        18.4403  -24.7961  -43.8854 H         1 UNK         0.3095 
     80 H80        15.2541  -25.2618  -42.6917 H         1 UNK         0.0454 
     81 H81        15.0363  -22.7808  -42.6393 H         1 UNK         0.0851 
     82 H82        16.0146  -22.6397  -44.0935 H         1 UNK         0.0851 
     83 H83        14.4349  -23.4208  -44.1594 H         1 UNK         0.0851 
     84 H84        16.6742  -24.7305  -45.2482 H         1 UNK         0.2976 
     85 H85        21.5724  -25.0034  -40.5344 H         1 UNK         0.3116 
     86 H86        21.0621  -27.9140  -40.2029 H         1 UNK         0.0646 
     87 H87        21.3452  -27.6993  -37.7586 H         1 UNK         0.0847 
     88 H88        19.9696  -26.7434  -38.2783 H         1 UNK         0.0847 
     89 H89        21.4973  -25.9516  -37.8913 H         1 UNK         0.0847 
     90 H90        23.0126  -26.1601  -41.7197 H         1 UNK         0.3040 
     91 H91        25.5606  -26.4421  -40.3273 H         1 UNK         0.1015 
     92 H92        25.0099  -24.4075  -41.6577 H         1 UNK         0.0786 
     93 H93        24.8654  -25.3810  -43.1225 H         1 UNK         0.0786 
     94 H94        26.4187  -25.2177  -42.3173 H         1 UNK         0.0786 
     95 H95        23.7725  -28.5138  -42.3936 H         1 UNK         0.3172 
     96 H96        26.0781  -29.7598  -43.7225 H         1 UNK         0.0595 
     97 H97        24.3619  -31.1601  -44.8098 H         1 UNK         0.0839 
     98 H98        23.8748  -29.4793  -44.9124 H         1 UNK         0.0839 
     99 H99        23.1142  -30.5509  -43.7419 H         1 UNK         0.0839 
    100 H100       26.0874  -32.2459  -43.6533 H         1 UNK         0.2998 
    101 H101       26.5549  -33.1251  -40.9213 H         1 UNK         0.0822 
    102 H102       28.0514  -33.8307  -42.7849 H         1 UNK         0.0787 
    103 H103       27.2845  -35.2301  -42.0524 H         1 UNK         0.0787 
    104 H104       26.7013  -34.6258  -43.5964 H         1 UNK         0.0787 
    105 H105       25.4196  -34.6127  -39.7694 H         1 UNK         0.3055 
    106 H106       23.8166  -35.8733  -38.9447 H         1 UNK         0.1106 
    107 H107       23.1880  -36.7082  -41.8220 H         1 UNK         0.0828 
    108 H108       24.4853  -37.3805  -40.8349 H         1 UNK         0.0828 
    109 H109       22.8123  -37.6099  -40.3627 H         1 UNK         0.0828 
    110 H110       23.0405  -33.0716  -39.6868 H         1 UNK         0.2931 
    111 H111       20.2119  -33.0705  -40.1713 H         1 UNK         0.0412 
    112 H112       18.4341  -32.8566  -38.6838 H         1 UNK         0.3472 
    113 H113       18.6178  -33.2517  -36.9950 H         1 UNK         0.3472 
    114 H114       20.3163  -30.6949  -39.2791 H         1 UNK         0.0970 
    115 H115       21.9925  -30.9436  -38.8756 H         1 UNK         0.0970 
    116 H116       19.4258  -31.1046  -41.9800 H         1 UNK         0.0612 
    117 H117       19.6465  -29.5147  -41.2876 H         1 UNK         0.0612 
@<TRIPOS>BOND
     1    1    2 1    
     2    1   62 1    
     3    1   63 1    
     4    1   64 1    
     5    2    3 2    
     6    2    4 am   BACKBONE|DICT|INTERRES
     7    4    5 1    
     8    4   65 1    
     9    5    6 1    
    10    5   25 1    
    11    5   66 1    
    12    6    7 1    
    13    6   67 1    
    14    6   68 1    
    15    7    8 1    
    16    8    9 1    
    17    8   69 1    
    18    8   70 1    
    19    9   10 ar   
    20    9   14 ar   
    21   10   11 ar   
    22   10   71 1    
    23   11   12 ar   
    24   11   61 1    
    25   12   13 ar   
    26   12   72 1    
    27   13   14 ar   
    28   13   15 1    
    29   14   73 1    
    30   15   16 1    
    31   15   74 1    
    32   15   75 1    
    33   16   17 1    
    34   17   18 1    
    35   17   76 1    
    36   17   77 1    
    37   18   19 1    
    38   18   27 1    
    39   18   78 1    
    40   19   20 am   BACKBONE|DICT|INTERRES
    41   19   79 1    
    42   20   21 2    
    43   20   22 1    
    44   22   23 1    
    45   22   24 1    
    46   22   80 1    
    47   23   81 1    
    48   23   82 1    
    49   23   83 1    
    50   24   25 am   BACKBONE|DICT|INTERRES
    51   24   84 1    
    52   25   26 2    
    53   27   28 2    
    54   27   29 am   BACKBONE|DICT|INTERRES
    55   29   30 1    
    56   29   85 1    
    57   30   31 1    
    58   30   32 1    
    59   30   86 1    
    60   31   87 1    
    61   31   88 1    
    62   31   89 1    
    63   32   33 2    
    64   32   34 am   BACKBONE|DICT|INTERRES
    65   34   35 1    
    66   34   90 1    
    67   35   36 1    
    68   35   37 1    
    69   35   91 1    
    70   36   92 1    
    71   36   93 1    
    72   36   94 1    
    73   37   38 2    
    74   37   39 am   BACKBONE|DICT|INTERRES
    75   39   40 1    
    76   39   95 1    
    77   40   41 1    
    78   40   42 1    
    79   40   96 1    
    80   41   97 1    
    81   41   98 1    
    82   41   99 1    
    83   42   43 2    
    84   42   44 am   BACKBONE|DICT|INTERRES
    85   44   45 1    
    86   44  100 1    
    87   45   46 1    
    88   45   47 1    
    89   45  101 1    
    90   46  102 1    
    91   46  103 1    
    92   46  104 1    
    93   47   48 2    
    94   47   49 am   BACKBONE|DICT|INTERRES
    95   49   50 1    
    96   49  105 1    
    97   50   51 1    
    98   50   52 1    
    99   50  106 1    
   100   51  107 1    
   101   51  108 1    
   102   51  109 1    
   103   52   53 2    
   104   52   54 am   BACKBONE|DICT|INTERRES
   105   54   55 1    
   106   54  110 1    
   107   55   56 1    
   108   55   59 1    
   109   55  111 1    
   110   56   57 am   BACKBONE|DICT|INTERRES
   111   56   58 2    
   112   57  112 1    
   113   57  113 1    
   114   59   60 1    
   115   59  114 1    
   116   59  115 1    
   117   60   61 1    
   118   61  116 1    
   119   61  117 1    
@<TRIPOS>SUBSTRUCTURE
     1 UNK         1 GROUP             0       ****    0 ROOT    
