@<TRIPOS>MOLECULE
3R8
117   119    1
SMALL
USER_CHARGES


@<TRIPOS>ATOM
      1 CA         20.4816  -27.4739  -41.6897 C.3       0 UNK        -0.2013 
      2 C          19.6539  -26.8157  -42.7768 C.2       0 UNK         0.4866 
      3 O          19.7048  -27.2417  -43.9296 O.2       0 UNK        -0.5176 
      4 N          18.9125  -25.7581  -42.4162 N.am      1 UNK        -0.4884 
      5 CA         17.9176  -25.0467  -43.2432 C.3       1 UNK         0.0853 
      6 C6         16.6824  -25.9266  -43.5898 C.3       10 UNK        -0.0849 
      7 S7         15.9330  -26.7210  -42.1240 S.3       10 UNK        -0.2776 
      8 C8         15.2433  -28.2547  -42.8295 C.3       10 UNK         0.0316 
      9 C9         16.3109  -29.1784  -43.4048 C.ar      10 UNK        -0.0863 
     10 C10        17.1951  -29.8538  -42.5590 C.ar      10 UNK        -0.1009 
     11 C11        18.1660  -30.7196  -43.0748 C.ar      10 UNK        -0.0712 
     12 C12        18.2443  -30.8978  -44.4648 C.ar      10 UNK        -0.0894 
     13 C13        17.3625  -30.2317  -45.3231 C.ar      10 UNK        -0.0745 
     14 C14        16.3986  -29.3749  -44.7854 C.ar      10 UNK        -0.0972 
     15 C15        17.4227  -30.4541  -46.8312 C.3       10 UNK         0.0209 
     16 S16        18.9685  -29.8616  -47.5955 S.3       10 UNK        -0.2568 
     17 C17        18.9457  -28.0732  -47.2005 C.3       10 UNK        -0.0983 
     18 CA         20.2977  -27.3003  -47.3137 C.3       3 UNK         0.0876 
     19 N          20.2791  -26.1132  -46.4642 N.am      3 UNK        -0.4424 
     20 C          20.7263  -24.8939  -46.7856 C.2       2 UNK         0.4918 
     21 O          21.1800  -24.6068  -47.8942 O.2       2 UNK        -0.4875 
     22 CA         20.6805  -23.8140  -45.6781 C.3       2 UNK         0.0481 
     23 CB         20.3090  -22.4212  -46.2292 C.3       2 UNK        -0.1831 
     24 N          19.8404  -24.1798  -44.5265 N.am      2 UNK        -0.4498 
     25 C          18.5128  -24.3885  -44.5134 C.2       1 UNK         0.5027 
     26 O          17.7752  -24.1253  -45.4645 O.2       1 UNK        -0.4969 
     27 C          21.5394  -28.1345  -46.9424 C.2       3 UNK         0.5005 
     28 O          22.3169  -28.4950  -47.8290 O.2       3 UNK        -0.5279 
     29 N          21.6979  -28.4210  -45.6444 N.am      4 UNK        -0.4463 
     30 CA         22.7253  -29.2991  -45.0926 C.3       4 UNK         0.0283 
     31 CB         22.0303  -30.5576  -44.5552 C.3       4 UNK        -0.1875 
     32 C          23.5208  -28.5910  -43.9877 C.2       4 UNK         0.4949 
     33 O          23.1835  -27.4747  -43.5859 O.2       4 UNK        -0.5039 
     34 N          24.5850  -29.2579  -43.5255 N.am      5 UNK        -0.4663 
     35 CA         25.4953  -28.7704  -42.4916 C.3       5 UNK         0.0242 
     36 CB         26.8339  -29.5229  -42.6035 C.3       5 UNK        -0.1982 
     37 C          24.8794  -28.8969  -41.0873 C.2       5 UNK         0.5017 
     38 O          25.0460  -29.9343  -40.4393 O.2       5 UNK        -0.5012 
     39 N          24.2004  -27.8243  -40.6555 N.am      6 UNK        -0.4439 
     40 CA         23.6441  -27.5867  -39.3164 C.3       6 UNK         0.0297 
     41 CB         24.7912  -27.4791  -38.2853 C.3       6 UNK        -0.2006 
     42 C          22.5649  -28.6043  -38.8929 C.2       6 UNK         0.4892 
     43 O          22.0665  -29.3691  -39.7199 O.2       6 UNK        -0.5089 
     44 N          22.2181  -28.5985  -37.5972 N.am      7 UNK        -0.4243 
     45 CA         21.2497  -29.5103  -36.9727 C.3       7 UNK         0.0196 
     46 CB         21.0150  -29.0756  -35.5169 C.3       7 UNK        -0.2007 
     47 C          21.6570  -30.9955  -37.0328 C.2       7 UNK         0.5020 
     48 O          20.7910  -31.8643  -36.9308 O.2       7 UNK        -0.5147 
     49 N          22.9566  -31.2609  -37.2266 N.am      8 UNK        -0.4734 
     50 CA         23.5114  -32.5838  -37.5202 C.3       8 UNK         0.0238 
     51 CB         25.0417  -32.5221  -37.3848 C.3       8 UNK        -0.1912 
     52 C          23.1210  -33.1123  -38.9145 C.2       8 UNK         0.5038 
     53 O          23.1789  -34.3246  -39.1246 O.2       8 UNK        -0.5046 
     54 N          22.7300  -32.2116  -39.8286 N.am      9 UNK        -0.4200 
     55 CA         22.3404  -32.4992  -41.2137 C.3       9 UNK         0.0839 
     56 C          23.5105  -33.0603  -42.0745 C.2       9 UNK         0.5513 
     57 N          24.7224  -32.5463  -41.9012 N.am      9 UNK        -0.7519 
     58 O          23.3327  -33.9485  -42.9038 O.2       9 UNK        -0.4960 
     59 C59        21.0150  -33.3143  -41.2878 C.3       10 UNK        -0.0876 
     60 S60        19.9922  -32.8777  -42.7337 S.3       10 UNK        -0.2414 
     61 C61        19.1111  -31.4125  -42.0891 C.3       10 UNK         0.0169 
     62 H62        21.3522  -26.8636  -41.4543 H         1 UNK         0.0903 
     63 H63        19.8965  -27.6182  -40.7818 H         1 UNK         0.0903 
     64 H64        20.8361  -28.4500  -42.0190 H         1 UNK         0.0903 
     65 H65        18.9467  -25.4551  -41.4523 H         1 UNK         0.3096 
     66 H66        17.5617  -24.2152  -42.6326 H         1 UNK         0.1121 
     67 H67        16.9700  -26.6899  -44.3134 H         1 UNK         0.0849 
     68 H68        15.9060  -25.3301  -44.0723 H         1 UNK         0.0849 
     69 H69        14.6977  -28.7858  -42.0483 H         1 UNK         0.0865 
     70 H70        14.5044  -27.9943  -43.5891 H         1 UNK         0.0865 
     71 H71        17.1275  -29.6982  -41.4907 H         1 UNK         0.1346 
     72 H72        18.9896  -31.5512  -44.8943 H         1 UNK         0.1412 
     73 H73        15.7128  -28.8598  -45.4442 H         1 UNK         0.1426 
     74 H74        16.5810  -29.9702  -47.3291 H         1 UNK         0.0716 
     75 H75        17.3213  -31.5212  -47.0333 H         1 UNK         0.0716 
     76 H76        18.5636  -27.9785  -46.1840 H         1 UNK         0.0695 
     77 H77        18.1985  -27.5921  -47.8330 H         1 UNK         0.0695 
     78 H78        20.4184  -27.0027  -48.3577 H         1 UNK         0.0983 
     79 H79        19.9687  -26.2788  -45.5101 H         1 UNK         0.3095 
     80 H80        21.6973  -23.7483  -45.2888 H         1 UNK         0.0454 
     81 H81        20.2788  -21.6745  -45.4360 H         1 UNK         0.0851 
     82 H82        19.3386  -22.4242  -46.7260 H         1 UNK         0.0851 
     83 H83        21.0430  -22.0831  -46.9615 H         1 UNK         0.0851 
     84 H84        20.3443  -24.4380  -43.6888 H         1 UNK         0.2976 
     85 H85        21.0409  -28.0318  -44.9702 H         1 UNK         0.3116 
     86 H86        23.4342  -29.5936  -45.8690 H         1 UNK         0.0646 
     87 H87        21.3737  -30.3215  -43.7178 H         1 UNK         0.0847 
     88 H88        22.7539  -31.2970  -44.2162 H         1 UNK         0.0847 
     89 H89        21.4261  -31.0362  -45.3261 H         1 UNK         0.0847 
     90 H90        24.7759  -30.1812  -43.8874 H         1 UNK         0.3040 
     91 H91        25.7028  -27.7139  -42.6785 H         1 UNK         0.1015 
     92 H92        26.7113  -30.5995  -42.4857 H         1 UNK         0.0786 
     93 H93        27.5321  -29.1900  -41.8343 H         1 UNK         0.0786 
     94 H94        27.3084  -29.3447  -43.5686 H         1 UNK         0.0786 
     95 H95        24.0371  -27.0878  -41.3298 H         1 UNK         0.3172 
     96 H96        23.1458  -26.6177  -39.3674 H         1 UNK         0.0595 
     97 H97        25.2594  -28.4463  -38.0971 H         1 UNK         0.0839 
     98 H98        24.4433  -27.0892  -37.3285 H         1 UNK         0.0839 
     99 H99        25.5697  -26.7993  -38.6323 H         1 UNK         0.0839 
    100 H100       22.6632  -27.9309  -36.9841 H         1 UNK         0.2998 
    101 H101       20.3079  -29.4142  -37.5174 H         1 UNK         0.0822 
    102 H102       20.2764  -29.7161  -35.0325 H         1 UNK         0.0787 
    103 H103       21.9305  -29.1303  -34.9264 H         1 UNK         0.0787 
    104 H104       20.6387  -28.0538  -35.4624 H         1 UNK         0.0787 
    105 H105       23.5930  -30.4799  -37.2902 H         1 UNK         0.3055 
    106 H106       23.1232  -33.2901  -36.7829 H         1 UNK         0.1106 
    107 H107       25.4815  -31.8234  -38.0984 H         1 UNK         0.0828 
    108 H108       25.3412  -32.2149  -36.3827 H         1 UNK         0.0828 
    109 H109       25.4893  -33.4998  -37.5695 H         1 UNK         0.0828 
    110 H110       22.7145  -31.2273  -39.5799 H         1 UNK         0.2931 
    111 H111       22.1425  -31.5121  -41.6319 H         1 UNK         0.0412 
    112 H112       24.8673  -31.7860  -41.2449 H         1 UNK         0.3472 
    113 H113       25.4942  -32.9104  -42.4360 H         1 UNK         0.3472 
    114 H114       21.2149  -34.3872  -41.2980 H         1 UNK         0.0970 
    115 H115       20.4116  -33.1434  -40.3947 H         1 UNK         0.0970 
    116 H116       18.5441  -31.7217  -41.2096 H         1 UNK         0.0612 
    117 H117       19.8435  -30.6823  -41.7439 H         1 UNK         0.0612 
@<TRIPOS>BOND
     1    1    2 1    
     2    1   62 1    
     3    1   63 1    
     4    1   64 1    
     5    2    3 2    
     6    2    4 am   BACKBONE|DICT|INTERRES
     7    4    5 1    
     8    4   65 1    
     9    5    6 1    
    10    5   25 1    
    11    5   66 1    
    12    6    7 1    
    13    6   67 1    
    14    6   68 1    
    15    7    8 1    
    16    8    9 1    
    17    8   69 1    
    18    8   70 1    
    19    9   10 ar   
    20    9   14 ar   
    21   10   11 ar   
    22   10   71 1    
    23   11   12 ar   
    24   11   61 1    
    25   12   13 ar   
    26   12   72 1    
    27   13   14 ar   
    28   13   15 1    
    29   14   73 1    
    30   15   16 1    
    31   15   74 1    
    32   15   75 1    
    33   16   17 1    
    34   17   18 1    
    35   17   76 1    
    36   17   77 1    
    37   18   19 1    
    38   18   27 1    
    39   18   78 1    
    40   19   20 am   BACKBONE|DICT|INTERRES
    41   19   79 1    
    42   20   21 2    
    43   20   22 1    
    44   22   23 1    
    45   22   24 1    
    46   22   80 1    
    47   23   81 1    
    48   23   82 1    
    49   23   83 1    
    50   24   25 am   BACKBONE|DICT|INTERRES
    51   24   84 1    
    52   25   26 2    
    53   27   28 2    
    54   27   29 am   BACKBONE|DICT|INTERRES
    55   29   30 1    
    56   29   85 1    
    57   30   31 1    
    58   30   32 1    
    59   30   86 1    
    60   31   87 1    
    61   31   88 1    
    62   31   89 1    
    63   32   33 2    
    64   32   34 am   BACKBONE|DICT|INTERRES
    65   34   35 1    
    66   34   90 1    
    67   35   36 1    
    68   35   37 1    
    69   35   91 1    
    70   36   92 1    
    71   36   93 1    
    72   36   94 1    
    73   37   38 2    
    74   37   39 am   BACKBONE|DICT|INTERRES
    75   39   40 1    
    76   39   95 1    
    77   40   41 1    
    78   40   42 1    
    79   40   96 1    
    80   41   97 1    
    81   41   98 1    
    82   41   99 1    
    83   42   43 2    
    84   42   44 am   BACKBONE|DICT|INTERRES
    85   44   45 1    
    86   44  100 1    
    87   45   46 1    
    88   45   47 1    
    89   45  101 1    
    90   46  102 1    
    91   46  103 1    
    92   46  104 1    
    93   47   48 2    
    94   47   49 am   BACKBONE|DICT|INTERRES
    95   49   50 1    
    96   49  105 1    
    97   50   51 1    
    98   50   52 1    
    99   50  106 1    
   100   51  107 1    
   101   51  108 1    
   102   51  109 1    
   103   52   53 2    
   104   52   54 am   BACKBONE|DICT|INTERRES
   105   54   55 1    
   106   54  110 1    
   107   55   56 1    
   108   55   59 1    
   109   55  111 1    
   110   56   57 am   BACKBONE|DICT|INTERRES
   111   56   58 2    
   112   57  112 1    
   113   57  113 1    
   114   59   60 1    
   115   59  114 1    
   116   59  115 1    
   117   60   61 1    
   118   61  116 1    
   119   61  117 1    
@<TRIPOS>SUBSTRUCTURE
     1 UNK         1 GROUP             0       ****    0 ROOT    
